# CIF file generated by openbabel 2.4.90, see http://openbabel.sf.net
data_I
_chemical_name_common ''
_cell_length_a 24.4635
_cell_length_b 24.4635
_cell_length_c 112.996
_cell_angle_alpha 90
_cell_angle_beta 90
_cell_angle_gamma 120
_space_group_name_H-M_alt 'P 1'
_space_group_name_Hall 'P 1'
loop_
    _symmetry_equiv_pos_as_xyz
    x,y,z
loop_
    _atom_site_label
    _atom_site_type_symbol
    _atom_site_fract_x
    _atom_site_fract_y
    _atom_site_fract_z
    _atom_site_occupancy
    C0      C    0.20830   0.35730   0.51654   1.000
    N1      N    0.27500   0.28630   0.52236   1.000
    H2      H    0.28070   0.25930   0.51810   1.000
    O3      O    0.37960   0.35030   0.52540   1.000
    O4      O    0.49130   0.88290   0.40631   1.000
    O5      O    0.51790   0.09670   0.47150   1.000
    N6      N    0.32140   0.39200   0.52280   1.000
    H7      H    0.34730   0.42660   0.52670   1.000
    C8      C    0.12130   0.18990   0.53659   1.000
    C9      C    0.18160   0.20890   0.53280   1.000
    H10     H    0.20220   0.18570   0.53460   1.000
    C11     C    0.21140   0.26500   0.52598   1.000
    C12     C    0.18280   0.30240   0.52376   1.000
    C13     C    0.12580   0.28130   0.52800   1.000
    H14     H    0.10720   0.30660   0.52660   1.000
    C15     C    0.08860   0.22460   0.53460   1.000
    H16     H    0.04720   0.21120   0.53740   1.000
    C17     C    0.33190   0.34720   0.52478   1.000
    C18     C    0.50020   0.91530   0.41400   1.000
    C19     C    0.27590   0.39970   0.51548   1.000
    C20     C    0.30120   0.45290   0.50836   1.000
    H21     H    0.34540   0.48060   0.50770   1.000
    C22     C    0.25630   0.46350   0.50206   1.000
    C23     C    0.19120   0.41850   0.50200   1.000
    H24     H    0.16340   0.42700   0.49750   1.000
    C25     C    0.16820   0.36660   0.50780   1.000
    H26     H    0.12580   0.33420   0.50650   1.000
    C27     C    0.43150   0.86060   0.45471   1.000
    C28     C    0.45780   0.85740   0.44407   1.000
    H29     H    0.45420   0.81920   0.44120   1.000
    C30     C    0.49090   0.91570   0.43760   1.000
    C31     C    0.49300   0.97030   0.44147   1.000
    C32     C    0.46550   0.96860   0.45156   1.000
    C33     C    0.43180   0.91180   0.45855   1.000
    H34     H    0.41070   0.91130   0.46560   1.000
    C35     C    0.52360   0.02670   0.43478   1.000
    C36     C    0.52530   0.02510   0.42209   1.000
    C37     C    0.55140   0.07880   0.41588   1.000
    H38     H    0.54970   0.07670   0.40750   1.000
    C39     C    0.58180   0.13910   0.42148   1.000
    C40     C    0.58580   0.13980   0.43362   1.000
    H41     H    0.61070   0.17900   0.43750   1.000
    C42     C    0.55590   0.08710   0.44011   1.000
    N43     N    0.51520   0.90930   0.42631   1.000
    H44     H    0.54530   0.89990   0.42700   1.000
    N45     N    0.49100   0.96920   0.41435   1.000
    H46     H    0.46250   0.96880   0.40950   1.000
    N47     N    0.46180   0.01730   0.45712   1.000
    H48     H    0.42370   0.01210   0.45780   1.000
    N49     N    0.55830   0.09540   0.45210   1.000
    H50     H    0.59760   0.11830   0.45450   1.000
    C51     C    0.51420   0.07730   0.46210   1.000
    O52     O    0.64970   0.02930   0.52540   1.000
    O53     O    0.97070   0.62040   0.52540   1.000
    O54     O    0.23663   0.14877   0.63817   1.000
    O55     O    0.91213   0.76337   0.63817   1.000
    O56     O    0.85123   0.08787   0.63817   1.000
    O57     O    0.35030   0.37960   0.97460   1.000
    O58     O    0.02930   0.64970   0.97460   1.000
    O59     O    0.62040   0.97070   0.97460   1.000
    O60     O    0.62040   0.64970   0.47460   1.000
    O61     O    0.35030   0.97070   0.47460   1.000
    O62     O    0.02930   0.37960   0.47460   1.000
    O63     O    0.64970   0.62040   0.02540   1.000
    O64     O    0.97070   0.35030   0.02540   1.000
    O65     O    0.37960   0.02930   0.02540   1.000
    O66     O    0.04627   0.68363   0.85873   1.000
    O67     O    0.31637   0.36263   0.85873   1.000
    O68     O    0.63737   0.95373   0.85873   1.000
    O69     O    0.01697   0.71293   0.30793   1.000
    O70     O    0.69597   0.98303   0.30793   1.000
    O71     O    0.28707   0.30403   0.30793   1.000
    O72     O    0.28707   0.98303   0.80793   1.000
    O73     O    0.01697   0.30403   0.80793   1.000
    O74     O    0.69597   0.71293   0.80793   1.000
    O75     O    0.31637   0.95373   0.35873   1.000
    O76     O    0.63737   0.68363   0.35873   1.000
    O77     O    0.04627   0.36263   0.35873   1.000
    O78     O    0.71293   0.01697   0.19207   1.000
    O79     O    0.98303   0.69597   0.19207   1.000
    O80     O    0.30403   0.28707   0.19207   1.000
    O81     O    0.68363   0.04627   0.64127   1.000
    O82     O    0.36263   0.31637   0.64127   1.000
    O83     O    0.95373   0.63737   0.64127   1.000
    O84     O    0.95373   0.31637   0.14127   1.000
    O85     O    0.68363   0.63737   0.14127   1.000
    O86     O    0.36263   0.04627   0.14127   1.000
    O87     O    0.98303   0.28707   0.69207   1.000
    O88     O    0.30403   0.01697   0.69207   1.000
    O89     O    0.71293   0.69597   0.69207   1.000
    C90     C    0.40193   0.85657   0.70326   1.000
    C91     C    0.45463   0.59807   0.70326   1.000
    H92     H    0.81430   0.01650   0.53460   1.000
    H93     H    0.98350   0.79780   0.53460   1.000
    C94     C    0.79110   0.97270   0.53280   1.000
    C95     C    0.02730   0.81840   0.53280   1.000
    C96     C    0.20890   0.18160   0.96720   1.000
    C97     C    0.97270   0.79110   0.96720   1.000
    C98     C    0.81840   0.02730   0.96720   1.000
    O99     O    0.11710   0.60840   0.40631   1.000
    O100    O    0.39160   0.50870   0.40631   1.000
    O101    O    0.90330   0.42120   0.47150   1.000
    O102    O    0.57880   0.48210   0.47150   1.000
    O103    O    0.88290   0.49130   0.09369   1.000
    O104    O    0.60840   0.11710   0.09369   1.000
    O105    O    0.50870   0.39160   0.09369   1.000
    O106    O    0.50870   0.11710   0.59369   1.000
    O107    O    0.88290   0.39160   0.59369   1.000
    O108    O    0.60840   0.49130   0.59369   1.000
    O109    O    0.11710   0.50870   0.90631   1.000
    O110    O    0.39160   0.88290   0.90631   1.000
    O111    O    0.49130   0.60840   0.90631   1.000
    O112    O    0.15797   0.21623   0.73964   1.000
    O113    O    0.78377   0.94173   0.73964   1.000
    O114    O    0.05827   0.84203   0.73964   1.000
    O115    O    0.54957   0.82463   0.42702   1.000
    O116    O    0.27507   0.45043   0.42702   1.000
    O117    O    0.17537   0.72493   0.42702   1.000
    O118    O    0.17537   0.45043   0.92702   1.000
    O119    O    0.54957   0.72493   0.92702   1.000
    O120    O    0.27507   0.82463   0.92702   1.000
    O121    O    0.78377   0.84203   0.23964   1.000
    O122    O    0.05827   0.21623   0.23964   1.000
    O123    O    0.15797   0.94173   0.23964   1.000
    O124    O    0.82463   0.54957   0.07298   1.000
    O125    O    0.45043   0.27507   0.07298   1.000
    O126    O    0.72493   0.17537   0.07298   1.000
    O127    O    0.21623   0.15797   0.76036   1.000
    O128    O    0.94173   0.78377   0.76036   1.000
    O129    O    0.84203   0.05827   0.76036   1.000
    O130    O    0.84203   0.78377   0.26036   1.000
    O131    O    0.21623   0.05827   0.26036   1.000
    O132    O    0.94173   0.15797   0.26036   1.000
    O133    O    0.45043   0.17537   0.57298   1.000
    O134    O    0.72493   0.54957   0.57298   1.000
    O135    O    0.82463   0.27507   0.57298   1.000
    O136    O    0.09670   0.51790   0.02850   1.000
    O137    O    0.42120   0.90330   0.02850   1.000
    O138    O    0.48210   0.57880   0.02850   1.000
    O139    O    0.48210   0.90330   0.52850   1.000
    O140    O    0.09670   0.57880   0.52850   1.000
    O141    O    0.42120   0.51790   0.52850   1.000
    O142    O    0.90330   0.48210   0.97150   1.000
    O143    O    0.57880   0.09670   0.97150   1.000
    O144    O    0.51790   0.42120   0.97150   1.000
    O145    O    0.18457   0.43003   0.80483   1.000
    O146    O    0.56997   0.75453   0.80483   1.000
    O147    O    0.24547   0.81543   0.80483   1.000
    O148    O    0.76337   0.85123   0.36183   1.000
    O149    O    0.08787   0.23663   0.36183   1.000
    O150    O    0.14877   0.91213   0.36183   1.000
    O151    O    0.14877   0.23663   0.86183   1.000
    O152    O    0.76337   0.91213   0.86183   1.000
    O153    O    0.08787   0.85123   0.86183   1.000
    O154    O    0.56997   0.81543   0.30483   1.000
    O155    O    0.24547   0.43003   0.30483   1.000
    O156    O    0.18457   0.75453   0.30483   1.000
    O157    O    0.85123   0.76337   0.13817   1.000
    O158    O    0.23663   0.08787   0.13817   1.000
    O159    O    0.91213   0.14877   0.13817   1.000
    O160    O    0.43003   0.18457   0.69517   1.000
    O161    O    0.75453   0.56997   0.69517   1.000
    O162    O    0.81543   0.24547   0.69517   1.000
    O163    O    0.81543   0.56997   0.19517   1.000
    O164    O    0.43003   0.24547   0.19517   1.000
    O165    O    0.75453   0.18457   0.19517   1.000
    C166    C    0.53067   0.42193   0.79873   1.000
    C167    C    0.44207   0.24473   0.36793   1.000
    C168    C    0.80267   0.55793   0.36793   1.000
    C169    C    0.75527   0.19733   0.36793   1.000
    C170    C    0.42193   0.89127   0.20127   1.000
    C171    C    0.10873   0.53067   0.20127   1.000
    C172    C    0.46933   0.57807   0.20127   1.000
    C173    C    0.55793   0.75527   0.63207   1.000
    C174    C    0.19733   0.44207   0.63207   1.000
    C175    C    0.24473   0.80267   0.63207   1.000
    C176    C    0.24473   0.44207   0.13207   1.000
    C177    C    0.55793   0.80267   0.13207   1.000
    C178    C    0.19733   0.75527   0.13207   1.000
    C179    C    0.10873   0.57807   0.70127   1.000
    N180    N    0.71370   0.98870   0.52236   1.000
    N181    N    0.01130   0.72500   0.52236   1.000
    H182    H    0.74070   0.02140   0.51810   1.000
    H183    H    0.97860   0.71930   0.51810   1.000
    N184    N    0.28630   0.27500   0.97764   1.000
    N185    N    0.98870   0.71370   0.97764   1.000
    N186    N    0.72500   0.01130   0.97764   1.000
    N187    N    0.72500   0.71370   0.47764   1.000
    N188    N    0.28630   0.01130   0.47764   1.000
    N189    N    0.98870   0.27500   0.47764   1.000
    N190    N    0.71370   0.72500   0.02236   1.000
    N191    N    0.01130   0.28630   0.02236   1.000
    N192    N    0.27500   0.98870   0.02236   1.000
    N193    N    0.94167   0.61963   0.85569   1.000
    N194    N    0.38037   0.32203   0.85569   1.000
    N195    N    0.67797   0.05833   0.85569   1.000
    N196    N    0.95297   0.60833   0.31097   1.000
    N197    N    0.65537   0.04703   0.31097   1.000
    N198    N    0.39167   0.34463   0.31097   1.000
    N199    N    0.39167   0.04703   0.81097   1.000
    N200    N    0.95297   0.34463   0.81097   1.000
    N201    N    0.65537   0.60833   0.81097   1.000
    N202    N    0.38037   0.05833   0.35569   1.000
    N203    N    0.67797   0.61963   0.35569   1.000
    N204    N    0.94167   0.32203   0.35569   1.000
    N205    N    0.60833   0.95297   0.18903   1.000
    N206    N    0.04703   0.65537   0.18903   1.000
    N207    N    0.34463   0.39167   0.18903   1.000
    N208    N    0.61963   0.94167   0.64431   1.000
    N209    N    0.32203   0.38037   0.64431   1.000
    N210    N    0.05833   0.67797   0.64431   1.000
    N211    N    0.05833   0.38037   0.14431   1.000
    N212    N    0.61963   0.67797   0.14431   1.000
    N213    N    0.32203   0.94167   0.14431   1.000
    N214    N    0.04703   0.39167   0.68903   1.000
    N215    N    0.34463   0.95297   0.68903   1.000
    N216    N    0.60833   0.65537   0.68903   1.000
    N217    N    0.60800   0.92940   0.52280   1.000
    N218    N    0.07060   0.67860   0.52280   1.000
    H219    H    0.25930   0.28070   0.98190   1.000
    H220    H    0.02140   0.74070   0.98190   1.000
    H221    H    0.71930   0.97860   0.98190   1.000
    H222    H    0.71930   0.74070   0.48190   1.000
    H223    H    0.25930   0.97860   0.48190   1.000
    H224    H    0.02140   0.28070   0.48190   1.000
    H225    H    0.74070   0.71930   0.01810   1.000
    H226    H    0.97860   0.25930   0.01810   1.000
    H227    H    0.28070   0.02140   0.01810   1.000
    H228    H    0.94737   0.59263   0.85143   1.000
    H229    H    0.40737   0.35473   0.85143   1.000
    H230    H    0.64527   0.05263   0.85143   1.000
    H231    H    0.92597   0.61403   0.31523   1.000
    H232    H    0.68807   0.07403   0.31523   1.000
    H233    H    0.38597   0.31193   0.31523   1.000
    H234    H    0.38597   0.07403   0.81523   1.000
    H235    H    0.92597   0.31193   0.81523   1.000
    H236    H    0.68807   0.61403   0.81523   1.000
    H237    H    0.40737   0.05263   0.35143   1.000
    H238    H    0.64527   0.59263   0.35143   1.000
    H239    H    0.94737   0.35473   0.35143   1.000
    H240    H    0.61403   0.92597   0.18477   1.000
    H241    H    0.07403   0.68807   0.18477   1.000
    H242    H    0.31193   0.38597   0.18477   1.000
    H243    H    0.59263   0.94737   0.64857   1.000
    H244    H    0.35473   0.40737   0.64857   1.000
    H245    H    0.05263   0.64527   0.64857   1.000
    H246    H    0.05263   0.40737   0.14857   1.000
    H247    H    0.59263   0.64527   0.14857   1.000
    H248    H    0.35473   0.94737   0.14857   1.000
    H249    H    0.07403   0.38597   0.68477   1.000
    H250    H    0.31193   0.92597   0.68477   1.000
    H251    H    0.61403   0.68807   0.68477   1.000
    H252    H    0.57340   0.92070   0.52670   1.000
    H253    H    0.07930   0.65270   0.52670   1.000
    N254    N    0.39200   0.32140   0.97720   1.000
    N255    N    0.92940   0.60800   0.97720   1.000
    N256    N    0.67860   0.07060   0.97720   1.000
    N257    N    0.67860   0.60800   0.47720   1.000
    N258    N    0.39200   0.07060   0.47720   1.000
    N259    N    0.92940   0.32140   0.47720   1.000
    N260    N    0.60800   0.67860   0.02280   1.000
    N261    N    0.07060   0.39200   0.02280   1.000
    N262    N    0.32140   0.92940   0.02280   1.000
    N263    N    0.98807   0.72533   0.85613   1.000
    N264    N    0.27467   0.26273   0.85613   1.000
    N265    N    0.73727   0.01193   0.85613   1.000
    N266    N    0.05867   0.65473   0.31053   1.000
    N267    N    0.59607   0.94133   0.31053   1.000
    N268    N    0.34527   0.40393   0.31053   1.000
    N269    N    0.34527   0.94133   0.81053   1.000
    N270    N    0.05867   0.40393   0.81053   1.000
    N271    N    0.59607   0.65473   0.81053   1.000
    N272    N    0.27467   0.01193   0.35613   1.000
    N273    N    0.73727   0.72533   0.35613   1.000
    N274    N    0.98807   0.26273   0.35613   1.000
    N275    N    0.65473   0.05867   0.18947   1.000
    N276    N    0.94133   0.59607   0.18947   1.000
    N277    N    0.40393   0.34527   0.18947   1.000
    N278    N    0.72533   0.98807   0.64387   1.000
    N279    N    0.26273   0.27467   0.64387   1.000
    N280    N    0.01193   0.73727   0.64387   1.000
    N281    N    0.01193   0.27467   0.14387   1.000
    N282    N    0.72533   0.73727   0.14387   1.000
    N283    N    0.26273   0.98807   0.14387   1.000
    N284    N    0.94133   0.34527   0.68947   1.000
    N285    N    0.40393   0.05867   0.68947   1.000
    N286    N    0.65473   0.59607   0.68947   1.000
    H287    H    0.42660   0.34730   0.97330   1.000
    H288    H    0.92070   0.57340   0.97330   1.000
    H289    H    0.65270   0.07930   0.97330   1.000
    H290    H    0.65270   0.57340   0.47330   1.000
    H291    H    0.42660   0.07930   0.47330   1.000
    H292    H    0.92070   0.34730   0.47330   1.000
    H293    H    0.57340   0.65270   0.02670   1.000
    H294    H    0.07930   0.42660   0.02670   1.000
    H295    H    0.34730   0.92070   0.02670   1.000
    H296    H    0.01397   0.75993   0.86003   1.000
    H297    H    0.24007   0.25403   0.86003   1.000
    H298    H    0.74597   0.98603   0.86003   1.000
    H299    H    0.09327   0.68063   0.30663   1.000
    H300    H    0.58737   0.90673   0.30663   1.000
    H301    H    0.31937   0.41263   0.30663   1.000
    H302    H    0.31937   0.90673   0.80663   1.000
    H303    H    0.09327   0.41263   0.80663   1.000
    H304    H    0.58737   0.68063   0.80663   1.000
    H305    H    0.24007   0.98603   0.36003   1.000
    H306    H    0.74597   0.75993   0.36003   1.000
    H307    H    0.01397   0.25403   0.36003   1.000
    H308    H    0.68063   0.09327   0.19337   1.000
    H309    H    0.90673   0.58737   0.19337   1.000
    H310    H    0.41263   0.31937   0.19337   1.000
    H311    H    0.75993   0.01397   0.63997   1.000
    H312    H    0.25403   0.24007   0.63997   1.000
    H313    H    0.98603   0.74597   0.63997   1.000
    H314    H    0.98603   0.24007   0.13997   1.000
    H315    H    0.75993   0.74597   0.13997   1.000
    H316    H    0.25403   0.01397   0.13997   1.000
    H317    H    0.90673   0.31937   0.69337   1.000
    H318    H    0.41263   0.09327   0.69337   1.000
    H319    H    0.68063   0.58737   0.69337   1.000
    C320    C    0.81010   0.93140   0.53659   1.000
    C321    C    0.06860   0.87870   0.53659   1.000
    C322    C    0.81840   0.79110   0.46720   1.000
    C323    C    0.20890   0.02730   0.46720   1.000
    C324    C    0.97270   0.18160   0.46720   1.000
    C325    C    0.18990   0.12130   0.96341   1.000
    C326    C    0.93140   0.81010   0.96341   1.000
    C327    C    0.87870   0.06860   0.96341   1.000
    C328    C    0.87870   0.81010   0.46341   1.000
    C329    C    0.18990   0.06860   0.46341   1.000
    C330    C    0.93140   0.12130   0.46341   1.000
    C331    C    0.81010   0.87870   0.03659   1.000
    C332    C    0.06860   0.18990   0.03659   1.000
    C333    C    0.12130   0.93140   0.03659   1.000
    C334    C    0.78797   0.52323   0.86992   1.000
    C335    C    0.47677   0.26473   0.86992   1.000
    C336    C    0.73527   0.21203   0.86992   1.000
    C337    C    0.85657   0.45463   0.29674   1.000
    C338    C    0.59807   0.14343   0.29674   1.000
    C339    C    0.54537   0.40193   0.29674   1.000
    C340    C    0.54537   0.14343   0.79674   1.000
    C341    C    0.85657   0.40193   0.79674   1.000
    C342    C    0.59807   0.45463   0.79674   1.000
    C343    C    0.47677   0.21203   0.36992   1.000
    C344    C    0.73527   0.52323   0.36992   1.000
    C345    C    0.78797   0.26473   0.36992   1.000
    C346    C    0.45463   0.85657   0.20326   1.000
    C347    C    0.14343   0.59807   0.20326   1.000
    C348    C    0.40193   0.54537   0.20326   1.000
    C349    C    0.52323   0.78797   0.63008   1.000
    C350    C    0.26473   0.47677   0.63008   1.000
    C351    C    0.21203   0.73527   0.63008   1.000
    C352    C    0.21203   0.47677   0.13008   1.000
    C353    C    0.52323   0.73527   0.13008   1.000
    C354    C    0.26473   0.78797   0.13008   1.000
    C355    C    0.14343   0.54537   0.70326   1.000
    H356    H    0.84747   0.87913   0.27453   1.000
    H357    H    0.03167   0.15253   0.27453   1.000
    H358    H    0.12087   0.96833   0.27453   1.000
    H359    H    0.78753   0.48587   0.10787   1.000
    H360    H    0.51413   0.30167   0.10787   1.000
    H361    H    0.69833   0.21247   0.10787   1.000
    H362    H    0.15253   0.12087   0.72547   1.000
    H363    H    0.96833   0.84747   0.72547   1.000
    H364    H    0.87913   0.03167   0.72547   1.000
    H365    H    0.87913   0.84747   0.22547   1.000
    H366    H    0.15253   0.03167   0.22547   1.000
    H367    H    0.96833   0.12087   0.22547   1.000
    H368    H    0.51413   0.21247   0.60787   1.000
    H369    H    0.69833   0.48587   0.60787   1.000
    H370    H    0.78753   0.30167   0.60787   1.000
    C371    C    0.02970   0.52270   0.44147   1.000
    C372    C    0.47730   0.50700   0.44147   1.000
    C373    C    0.08430   0.57520   0.43760   1.000
    C374    C    0.42480   0.50910   0.43760   1.000
    C375    C    0.79110   0.81840   0.03280   1.000
    C376    C    0.02730   0.20890   0.03280   1.000
    C377    C    0.18160   0.97270   0.03280   1.000
    C378    C    0.84827   0.54223   0.86613   1.000
    C379    C    0.45777   0.30603   0.86613   1.000
    C380    C    0.69397   0.15173   0.86613   1.000
    C381    C    0.87557   0.51493   0.30053   1.000
    C382    C    0.63937   0.12443   0.30053   1.000
    C383    C    0.48507   0.36063   0.30053   1.000
    C384    C    0.48507   0.12443   0.80053   1.000
    C385    C    0.87557   0.36063   0.80053   1.000
    C386    C    0.63937   0.51493   0.80053   1.000
    C387    C    0.45777   0.15173   0.36613   1.000
    C388    C    0.69397   0.54223   0.36613   1.000
    C389    C    0.84827   0.30603   0.36613   1.000
    C390    C    0.51493   0.87557   0.19947   1.000
    C391    C    0.12443   0.63937   0.19947   1.000
    C392    C    0.36063   0.48507   0.19947   1.000
    C393    C    0.54223   0.84827   0.63387   1.000
    C394    C    0.30603   0.45777   0.63387   1.000
    C395    C    0.15173   0.69397   0.63387   1.000
    C396    C    0.15173   0.45777   0.13387   1.000
    C397    C    0.54223   0.69397   0.13387   1.000
    C398    C    0.30603   0.84827   0.13387   1.000
    C399    C    0.12443   0.48507   0.69947   1.000
    C400    C    0.36063   0.87557   0.69947   1.000
    C401    C    0.51493   0.63937   0.69947   1.000
    C402    C    0.73500   0.94640   0.52598   1.000
    C403    C    0.05360   0.78860   0.52598   1.000
    H404    H    0.18570   0.20220   0.96540   1.000
    H405    H    0.01650   0.81430   0.96540   1.000
    H406    H    0.79780   0.98350   0.96540   1.000
    H407    H    0.79780   0.81430   0.46540   1.000
    H408    H    0.18570   0.98350   0.46540   1.000
    H409    H    0.01650   0.20220   0.46540   1.000
    H410    H    0.81430   0.79780   0.03460   1.000
    H411    H    0.98350   0.18570   0.03460   1.000
    H412    H    0.20220   0.01650   0.03460   1.000
    H413    H    0.86887   0.51903   0.86793   1.000
    H414    H    0.48097   0.34983   0.86793   1.000
    H415    H    0.65017   0.13113   0.86793   1.000
    H416    H    0.85237   0.53553   0.29873   1.000
    H417    H    0.68317   0.14763   0.29873   1.000
    H418    H    0.46447   0.31683   0.29873   1.000
    H419    H    0.46447   0.14763   0.79873   1.000
    H420    H    0.85237   0.31683   0.79873   1.000
    H421    H    0.68317   0.53553   0.79873   1.000
    H422    H    0.48097   0.13113   0.36793   1.000
    H423    H    0.65017   0.51903   0.36793   1.000
    H424    H    0.86887   0.34983   0.36793   1.000
    H425    H    0.53553   0.85237   0.20127   1.000
    H426    H    0.14763   0.68317   0.20127   1.000
    H427    H    0.31683   0.46447   0.20127   1.000
    H428    H    0.51903   0.86887   0.63207   1.000
    H429    H    0.34983   0.48097   0.63207   1.000
    H430    H    0.13113   0.65017   0.63207   1.000
    H431    H    0.13113   0.48097   0.13207   1.000
    H432    H    0.51903   0.65017   0.13207   1.000
    H433    H    0.34983   0.86887   0.13207   1.000
    H434    H    0.14763   0.46447   0.70127   1.000
    H435    H    0.31683   0.85237   0.70127   1.000
    H436    H    0.53553   0.68317   0.70127   1.000
    C437    C    0.69760   0.88040   0.52376   1.000
    C438    C    0.11960   0.81720   0.52376   1.000
    C439    C    0.26500   0.21140   0.97402   1.000
    C440    C    0.94640   0.73500   0.97402   1.000
    C441    C    0.78860   0.05360   0.97402   1.000
    C442    C    0.78860   0.73500   0.47402   1.000
    C443    C    0.26500   0.05360   0.47402   1.000
    C444    C    0.94640   0.21140   0.47402   1.000
    C445    C    0.73500   0.78860   0.02598   1.000
    C446    C    0.05360   0.26500   0.02598   1.000
    C447    C    0.21140   0.94640   0.02598   1.000
    C448    C    0.87807   0.59833   0.85931   1.000
    C449    C    0.40167   0.27973   0.85931   1.000
    C450    C    0.72027   0.12193   0.85931   1.000
    C451    C    0.93167   0.54473   0.30735   1.000
    C452    C    0.61307   0.06833   0.30735   1.000
    C453    C    0.45527   0.38693   0.30735   1.000
    C454    C    0.45527   0.06833   0.80735   1.000
    C455    C    0.93167   0.38693   0.80735   1.000
    C456    C    0.61307   0.54473   0.80735   1.000
    C457    C    0.40167   0.12193   0.35931   1.000
    C458    C    0.72027   0.59833   0.35931   1.000
    C459    C    0.87807   0.27973   0.35931   1.000
    C460    C    0.54473   0.93167   0.19265   1.000
    C461    C    0.06833   0.61307   0.19265   1.000
    C462    C    0.38693   0.45527   0.19265   1.000
    C463    C    0.59833   0.87807   0.64069   1.000
    C464    C    0.27973   0.40167   0.64069   1.000
    C465    C    0.12193   0.72027   0.64069   1.000
    C466    C    0.12193   0.40167   0.14069   1.000
    C467    C    0.59833   0.72027   0.14069   1.000
    C468    C    0.27973   0.87807   0.14069   1.000
    C469    C    0.06833   0.45527   0.69265   1.000
    C470    C    0.38693   0.93167   0.69265   1.000
    C471    C    0.54473   0.61307   0.69265   1.000
    C472    C    0.71870   0.84450   0.52800   1.000
    C473    C    0.15550   0.87420   0.52800   1.000
    C474    C    0.30240   0.18280   0.97624   1.000
    C475    C    0.88040   0.69760   0.97624   1.000
    C476    C    0.81720   0.11960   0.97624   1.000
    C477    C    0.81720   0.69760   0.47624   1.000
    C478    C    0.30240   0.11960   0.47624   1.000
    C479    C    0.88040   0.18280   0.47624   1.000
    C480    C    0.69760   0.81720   0.02376   1.000
    C481    C    0.11960   0.30240   0.02376   1.000
    C482    C    0.18280   0.88040   0.02376   1.000
    C483    C    0.84947   0.63573   0.85709   1.000
    C484    C    0.36427   0.21373   0.85709   1.000
    C485    C    0.78627   0.15053   0.85709   1.000
    C486    C    0.96907   0.51613   0.30957   1.000
    C487    C    0.54707   0.03093   0.30957   1.000
    C488    C    0.48387   0.45293   0.30957   1.000
    C489    C    0.48387   0.03093   0.80957   1.000
    C490    C    0.96907   0.45293   0.80957   1.000
    C491    C    0.54707   0.51613   0.80957   1.000
    C492    C    0.36427   0.15053   0.35709   1.000
    C493    C    0.78627   0.63573   0.35709   1.000
    C494    C    0.84947   0.21373   0.35709   1.000
    C495    C    0.51613   0.96907   0.19043   1.000
    C496    C    0.03093   0.54707   0.19043   1.000
    C497    C    0.45293   0.48387   0.19043   1.000
    C498    C    0.63573   0.84947   0.64291   1.000
    C499    C    0.21373   0.36427   0.64291   1.000
    C500    C    0.15053   0.78627   0.64291   1.000
    C501    C    0.15053   0.36427   0.14291   1.000
    C502    C    0.63573   0.78627   0.14291   1.000
    C503    C    0.21373   0.84947   0.14291   1.000
    C504    C    0.03093   0.48387   0.69043   1.000
    C505    C    0.45293   0.96907   0.69043   1.000
    C506    C    0.51613   0.54707   0.69043   1.000
    H507    H    0.69340   0.80060   0.52660   1.000
    H508    H    0.19940   0.89280   0.52660   1.000
    C509    C    0.28130   0.12580   0.97200   1.000
    C510    C    0.84450   0.71870   0.97200   1.000
    C511    C    0.87420   0.15550   0.97200   1.000
    C512    C    0.87420   0.71870   0.47200   1.000
    C513    C    0.28130   0.15550   0.47200   1.000
    C514    C    0.84450   0.12580   0.47200   1.000
    C515    C    0.71870   0.87420   0.02800   1.000
    C516    C    0.15550   0.28130   0.02800   1.000
    C517    C    0.12580   0.84450   0.02800   1.000
    C518    C    0.79247   0.61463   0.86133   1.000
    C519    C    0.38537   0.17783   0.86133   1.000
    C520    C    0.82217   0.20753   0.86133   1.000
    C521    C    0.94797   0.45913   0.30533   1.000
    C522    C    0.51117   0.05203   0.30533   1.000
    C523    C    0.54087   0.48883   0.30533   1.000
    C524    C    0.54087   0.05203   0.80533   1.000
    C525    C    0.94797   0.48883   0.80533   1.000
    C526    C    0.51117   0.45913   0.80533   1.000
    C527    C    0.38537   0.20753   0.36133   1.000
    C528    C    0.82217   0.61463   0.36133   1.000
    C529    C    0.79247   0.17783   0.36133   1.000
    C530    C    0.45913   0.94797   0.19467   1.000
    C531    C    0.05203   0.51117   0.19467   1.000
    C532    C    0.48883   0.54087   0.19467   1.000
    C533    C    0.61463   0.79247   0.63867   1.000
    C534    C    0.17783   0.38537   0.63867   1.000
    C535    C    0.20753   0.82217   0.63867   1.000
    C536    C    0.20753   0.38537   0.13867   1.000
    C537    C    0.61463   0.82217   0.13867   1.000
    C538    C    0.17783   0.79247   0.13867   1.000
    C539    C    0.05203   0.54087   0.69467   1.000
    C540    C    0.48883   0.94797   0.69467   1.000
    C541    C    0.45913   0.51117   0.69467   1.000
    C542    C    0.77540   0.86400   0.53460   1.000
    C543    C    0.13600   0.91140   0.53460   1.000
    H544    H    0.30660   0.10720   0.97340   1.000
    H545    H    0.80060   0.69340   0.97340   1.000
    H546    H    0.89280   0.19940   0.97340   1.000
    H547    H    0.89280   0.69340   0.47340   1.000
    H548    H    0.30660   0.19940   0.47340   1.000
    H549    H    0.80060   0.10720   0.47340   1.000
    H550    H    0.69340   0.89280   0.02660   1.000
    H551    H    0.19940   0.30660   0.02660   1.000
    H552    H    0.10720   0.80060   0.02660   1.000
    H553    H    0.77387   0.63993   0.85993   1.000
    H554    H    0.36007   0.13393   0.85993   1.000
    H555    H    0.86607   0.22613   0.85993   1.000
    H556    H    0.97327   0.44053   0.30673   1.000
    H557    H    0.46727   0.02673   0.30673   1.000
    H558    H    0.55947   0.53273   0.30673   1.000
    H559    H    0.55947   0.02673   0.80673   1.000
    H560    H    0.97327   0.53273   0.80673   1.000
    H561    H    0.46727   0.44053   0.80673   1.000
    H562    H    0.36007   0.22613   0.35993   1.000
    H563    H    0.86607   0.63993   0.35993   1.000
    H564    H    0.77387   0.13393   0.35993   1.000
    H565    H    0.44053   0.97327   0.19327   1.000
    H566    H    0.02673   0.46727   0.19327   1.000
    H567    H    0.53273   0.55947   0.19327   1.000
    H568    H    0.63993   0.77387   0.64007   1.000
    H569    H    0.13393   0.36007   0.64007   1.000
    H570    H    0.22613   0.86607   0.64007   1.000
    H571    H    0.22613   0.36007   0.14007   1.000
    H572    H    0.63993   0.86607   0.14007   1.000
    H573    H    0.13393   0.77387   0.14007   1.000
    H574    H    0.02673   0.55947   0.69327   1.000
    H575    H    0.53273   0.97327   0.69327   1.000
    H576    H    0.44053   0.46727   0.69327   1.000
    H577    H    0.78880   0.83600   0.53740   1.000
    H578    H    0.16400   0.95280   0.53740   1.000
    C579    C    0.22460   0.08860   0.96540   1.000
    C580    C    0.86400   0.77540   0.96540   1.000
    C581    C    0.91140   0.13600   0.96540   1.000
    C582    C    0.91140   0.77540   0.46540   1.000
    C583    C    0.22460   0.13600   0.46540   1.000
    C584    C    0.86400   0.08860   0.46540   1.000
    C585    C    0.77540   0.91140   0.03460   1.000
    C586    C    0.13600   0.22460   0.03460   1.000
    C587    C    0.08860   0.86400   0.03460   1.000
    C588    C    0.75527   0.55793   0.86793   1.000
    C589    C    0.44207   0.19733   0.86793   1.000
    C590    C    0.80267   0.24473   0.86793   1.000
    C591    C    0.89127   0.42193   0.29873   1.000
    C592    C    0.53067   0.10873   0.29873   1.000
    C593    C    0.57807   0.46933   0.29873   1.000
    C594    C    0.57807   0.10873   0.79873   1.000
    C595    C    0.89127   0.46933   0.79873   1.000
    C596    C    0.77743   0.19787   0.72656   1.000
    C597    C    0.77743   0.57957   0.22656   1.000
    C598    C    0.42043   0.19787   0.22656   1.000
    C599    C    0.80213   0.22257   0.22656   1.000
    C600    C    0.24623   0.11077   0.60678   1.000
    C601    C    0.86453   0.75377   0.60678   1.000
    C602    C    0.88923   0.13547   0.60678   1.000
    N603    N    0.09070   0.60590   0.42631   1.000
    N604    N    0.39410   0.48480   0.42631   1.000
    C605    C    0.46933   0.89127   0.70127   1.000
    C606    C    0.42193   0.53067   0.70127   1.000
    C607    C    0.65280   0.98470   0.52478   1.000
    C608    C    0.01530   0.66810   0.52478   1.000
    H609    H    0.21120   0.04720   0.96260   1.000
    H610    H    0.83600   0.78880   0.96260   1.000
    H611    H    0.95280   0.16400   0.96260   1.000
    H612    H    0.95280   0.78880   0.46260   1.000
    H613    H    0.21120   0.16400   0.46260   1.000
    H614    H    0.83600   0.04720   0.46260   1.000
    H615    H    0.78880   0.95280   0.03740   1.000
    H616    H    0.16400   0.21120   0.03740   1.000
    H617    H    0.04720   0.83600   0.03740   1.000
    H618    H    0.71387   0.54453   0.87073   1.000
    H619    H    0.45547   0.16933   0.87073   1.000
    H620    H    0.83067   0.28613   0.87073   1.000
    H621    H    0.87787   0.38053   0.29593   1.000
    H622    H    0.50267   0.12213   0.29593   1.000
    H623    H    0.61947   0.49733   0.29593   1.000
    H624    H    0.61947   0.12213   0.79593   1.000
    H625    H    0.87787   0.49733   0.79593   1.000
    H626    H    0.50267   0.38053   0.79593   1.000
    H627    H    0.45547   0.28613   0.37073   1.000
    H628    H    0.83067   0.54453   0.37073   1.000
    H629    H    0.71387   0.16933   0.37073   1.000
    H630    H    0.38053   0.87787   0.20407   1.000
    H631    H    0.12213   0.50267   0.20407   1.000
    H632    H    0.49733   0.61947   0.20407   1.000
    H633    H    0.54453   0.71387   0.62927   1.000
    H634    H    0.16933   0.45547   0.62927   1.000
    H635    H    0.28613   0.83067   0.62927   1.000
    H636    H    0.28613   0.45547   0.12927   1.000
    H637    H    0.54453   0.83067   0.12927   1.000
    H638    H    0.16933   0.71387   0.12927   1.000
    H639    H    0.12213   0.61947   0.70407   1.000
    H640    H    0.49733   0.87787   0.70407   1.000
    H641    H    0.38053   0.50267   0.70407   1.000
    C642    C    0.64270   0.85100   0.51654   1.000
    C643    C    0.14900   0.79170   0.51654   1.000
    C644    C    0.34720   0.33190   0.97522   1.000
    C645    C    0.98470   0.65280   0.97522   1.000
    C646    C    0.66810   0.01530   0.97522   1.000
    C647    C    0.66810   0.65280   0.47522   1.000
    C648    C    0.34720   0.01530   0.47522   1.000
    C649    C    0.98470   0.33190   0.47522   1.000
    C650    C    0.65280   0.66810   0.02478   1.000
    C651    C    0.01530   0.34720   0.02478   1.000
    C652    C    0.33190   0.98470   0.02478   1.000
    C653    C    0.99857   0.68053   0.85811   1.000
    C654    C    0.31947   0.31803   0.85811   1.000
    C655    C    0.68197   0.00143   0.85811   1.000
    C656    C    0.01387   0.66523   0.30855   1.000
    C657    C    0.65137   0.98613   0.30855   1.000
    C658    C    0.33477   0.34863   0.30855   1.000
    C659    C    0.33477   0.98613   0.80855   1.000
    C660    C    0.01387   0.34863   0.80855   1.000
    C661    C    0.65137   0.66523   0.80855   1.000
    C662    C    0.31947   0.00143   0.35811   1.000
    C663    C    0.68197   0.68053   0.35811   1.000
    C664    C    0.99857   0.31803   0.35811   1.000
    C665    C    0.66523   0.01387   0.19145   1.000
    C666    C    0.98613   0.65137   0.19145   1.000
    C667    C    0.34863   0.33477   0.19145   1.000
    C668    C    0.68053   0.99857   0.64189   1.000
    C669    C    0.31803   0.31947   0.64189   1.000
    C670    C    0.00143   0.68197   0.64189   1.000
    C671    C    0.00143   0.31947   0.14189   1.000
    C672    C    0.68053   0.68197   0.14189   1.000
    C673    C    0.31803   0.99857   0.14189   1.000
    C674    C    0.98613   0.33477   0.69145   1.000
    C675    C    0.34863   0.01387   0.69145   1.000
    C676    C    0.66523   0.65137   0.69145   1.000
    C677    C    0.60030   0.87620   0.51548   1.000
    C678    C    0.12380   0.72410   0.51548   1.000
    C679    C    0.35730   0.20830   0.98346   1.000
    C680    C    0.85100   0.64270   0.98346   1.000
    C681    C    0.79170   0.14900   0.98346   1.000
    C682    C    0.79170   0.64270   0.48346   1.000
    C683    C    0.35730   0.14900   0.48346   1.000
    C684    C    0.85100   0.20830   0.48346   1.000
    C685    C    0.64270   0.79170   0.01654   1.000
    C686    C    0.14900   0.35730   0.01654   1.000
    C687    C    0.20830   0.85100   0.01654   1.000
    C688    C    0.87497   0.69063   0.84987   1.000
    C689    C    0.30937   0.18433   0.84987   1.000
    C690    C    0.81567   0.12503   0.84987   1.000
    C691    C    0.02397   0.54163   0.31679   1.000
    C692    C    0.51767   0.97603   0.31679   1.000
    C693    C    0.45837   0.48233   0.31679   1.000
    C694    C    0.45837   0.97603   0.81679   1.000
    C695    C    0.02397   0.48233   0.81679   1.000
    C696    C    0.51767   0.54163   0.81679   1.000
    C697    C    0.30937   0.12503   0.34987   1.000
    C698    C    0.81567   0.69063   0.34987   1.000
    C699    C    0.87497   0.18433   0.34987   1.000
    C700    C    0.54163   0.02397   0.18321   1.000
    C701    C    0.97603   0.51767   0.18321   1.000
    C702    C    0.48233   0.45837   0.18321   1.000
    C703    C    0.69063   0.87497   0.65013   1.000
    C704    C    0.18433   0.30937   0.65013   1.000
    C705    C    0.12503   0.81567   0.65013   1.000
    C706    C    0.12503   0.30937   0.15013   1.000
    C707    C    0.69063   0.81567   0.15013   1.000
    C708    C    0.18433   0.87497   0.15013   1.000
    C709    C    0.97603   0.45837   0.68321   1.000
    C710    C    0.48233   0.02397   0.68321   1.000
    C711    C    0.54163   0.51767   0.68321   1.000
    C712    C    0.54710   0.84830   0.50836   1.000
    C713    C    0.15170   0.69880   0.50836   1.000
    C714    C    0.39970   0.27590   0.98452   1.000
    C715    C    0.87620   0.60030   0.98452   1.000
    C716    C    0.72410   0.12380   0.98452   1.000
    C717    C    0.72410   0.60030   0.48452   1.000
    C718    C    0.39970   0.12380   0.48452   1.000
    C719    C    0.87620   0.27590   0.48452   1.000
    C720    C    0.60030   0.72410   0.01548   1.000
    C721    C    0.12380   0.39970   0.01548   1.000
    C722    C    0.27590   0.87620   0.01548   1.000
    C723    C    0.94257   0.73303   0.84881   1.000
    C724    C    0.26697   0.20953   0.84881   1.000
    C725    C    0.79047   0.05743   0.84881   1.000
    C726    C    0.06637   0.60923   0.31785   1.000
    C727    C    0.54287   0.93363   0.31785   1.000
    C728    C    0.39077   0.45713   0.31785   1.000
    C729    C    0.39077   0.93363   0.81785   1.000
    C730    C    0.06637   0.45713   0.81785   1.000
    C731    C    0.54287   0.60923   0.81785   1.000
    C732    C    0.26697   0.05743   0.34881   1.000
    C733    C    0.79047   0.73303   0.34881   1.000
    C734    C    0.94257   0.20953   0.34881   1.000
    C735    C    0.60923   0.06637   0.18215   1.000
    C736    C    0.93363   0.54287   0.18215   1.000
    C737    C    0.45713   0.39077   0.18215   1.000
    C738    C    0.73303   0.94257   0.65119   1.000
    C739    C    0.20953   0.26697   0.65119   1.000
    C740    C    0.05743   0.79047   0.65119   1.000
    C741    C    0.05743   0.26697   0.15119   1.000
    C742    C    0.73303   0.79047   0.15119   1.000
    C743    C    0.20953   0.94257   0.15119   1.000
    C744    C    0.93363   0.39077   0.68215   1.000
    C745    C    0.45713   0.06637   0.68215   1.000
    C746    C    0.60923   0.54287   0.68215   1.000
    H747    H    0.51940   0.86480   0.50770   1.000
    H748    H    0.13520   0.65460   0.50770   1.000
    C749    C    0.45290   0.30120   0.99164   1.000
    C750    C    0.84830   0.54710   0.99164   1.000
    C751    C    0.69880   0.15170   0.99164   1.000
    C752    C    0.69880   0.54710   0.49164   1.000
    C753    C    0.45290   0.15170   0.49164   1.000
    C754    C    0.84830   0.30120   0.49164   1.000
    C755    C    0.54710   0.69880   0.00836   1.000
    C756    C    0.15170   0.45290   0.00836   1.000
    C757    C    0.30120   0.84830   0.00836   1.000
    C758    C    0.96787   0.78623   0.84169   1.000
    C759    C    0.21377   0.18163   0.84169   1.000
    C760    C    0.81837   0.03213   0.84169   1.000
    C761    C    0.11957   0.63453   0.32497   1.000
    C762    C    0.51497   0.88043   0.32497   1.000
    C763    C    0.36547   0.48503   0.32497   1.000
    C764    C    0.36547   0.88043   0.82497   1.000
    C765    C    0.11957   0.48503   0.82497   1.000
    C766    C    0.51497   0.63453   0.82497   1.000
    C767    C    0.21377   0.03213   0.34169   1.000
    C768    C    0.81837   0.78623   0.34169   1.000
    C769    C    0.96787   0.18163   0.34169   1.000
    C770    C    0.63453   0.11957   0.17503   1.000
    C771    C    0.88043   0.51497   0.17503   1.000
    C772    C    0.48503   0.36547   0.17503   1.000
    C773    C    0.78623   0.96787   0.65831   1.000
    C774    C    0.18163   0.21377   0.65831   1.000
    C775    C    0.03213   0.81837   0.65831   1.000
    C776    C    0.03213   0.21377   0.15831   1.000
    C777    C    0.78623   0.81837   0.15831   1.000
    C778    C    0.18163   0.96787   0.15831   1.000
    C779    C    0.88043   0.36547   0.67503   1.000
    C780    C    0.48503   0.11957   0.67503   1.000
    C781    C    0.63453   0.51497   0.67503   1.000
    C782    C    0.53650   0.79280   0.50206   1.000
    C783    C    0.20720   0.74370   0.50206   1.000
    H784    H    0.48060   0.34540   0.99230   1.000
    H785    H    0.86480   0.51940   0.99230   1.000
    H786    H    0.65460   0.13520   0.99230   1.000
    H787    H    0.65460   0.51940   0.49230   1.000
    H788    H    0.48060   0.13520   0.49230   1.000
    H789    H    0.86480   0.34540   0.49230   1.000
    H790    H    0.51940   0.65460   0.00770   1.000
    H791    H    0.13520   0.48060   0.00770   1.000
    H792    H    0.34540   0.86480   0.00770   1.000
    H793    H    0.01207   0.81393   0.84103   1.000
    H794    H    0.18607   0.19813   0.84103   1.000
    H795    H    0.80187   0.98793   0.84103   1.000
    H796    H    0.14727   0.67873   0.32563   1.000
    H797    H    0.53147   0.85273   0.32563   1.000
    H798    H    0.32127   0.46853   0.32563   1.000
    H799    H    0.32127   0.85273   0.82563   1.000
    H800    H    0.14727   0.46853   0.82563   1.000
    H801    H    0.53147   0.67873   0.82563   1.000
    H802    H    0.18607   0.98793   0.34103   1.000
    H803    H    0.80187   0.81393   0.34103   1.000
    H804    H    0.01207   0.19813   0.34103   1.000
    H805    H    0.67873   0.14727   0.17437   1.000
    H806    H    0.85273   0.53147   0.17437   1.000
    H807    H    0.46853   0.32127   0.17437   1.000
    H808    H    0.81393   0.01207   0.65897   1.000
    H809    H    0.19813   0.18607   0.65897   1.000
    H810    H    0.98793   0.80187   0.65897   1.000
    H811    H    0.98793   0.18607   0.15897   1.000
    H812    H    0.81393   0.80187   0.15897   1.000
    H813    H    0.19813   0.01207   0.15897   1.000
    H814    H    0.85273   0.32127   0.67437   1.000
    H815    H    0.46853   0.14727   0.67437   1.000
    H816    H    0.67873   0.53147   0.67437   1.000
    C817    C    0.58150   0.77270   0.50200   1.000
    C818    C    0.22730   0.80880   0.50200   1.000
    C819    C    0.46350   0.25630   0.99794   1.000
    C820    C    0.79280   0.53650   0.99794   1.000
    C821    C    0.74370   0.20720   0.99794   1.000
    C822    C    0.74370   0.53650   0.49794   1.000
    C823    C    0.46350   0.20720   0.49794   1.000
    C824    C    0.79280   0.25630   0.49794   1.000
    C825    C    0.53650   0.74370   0.00206   1.000
    C826    C    0.20720   0.46350   0.00206   1.000
    C827    C    0.25630   0.79280   0.00206   1.000
    C828    C    0.92297   0.79683   0.83539   1.000
    C829    C    0.20317   0.12613   0.83539   1.000
    C830    C    0.87387   0.07703   0.83539   1.000
    C831    C    0.13017   0.58963   0.33127   1.000
    C832    C    0.45947   0.86983   0.33127   1.000
    C833    C    0.41037   0.54053   0.33127   1.000
    C834    C    0.41037   0.86983   0.83127   1.000
    C835    C    0.13017   0.54053   0.83127   1.000
    C836    C    0.45947   0.58963   0.83127   1.000
    C837    C    0.20317   0.07703   0.33539   1.000
    C838    C    0.87387   0.79683   0.33539   1.000
    C839    C    0.92297   0.12613   0.33539   1.000
    C840    C    0.58963   0.13017   0.16873   1.000
    C841    C    0.86983   0.45947   0.16873   1.000
    C842    C    0.54053   0.41037   0.16873   1.000
    C843    C    0.79683   0.92297   0.66461   1.000
    C844    C    0.12613   0.20317   0.66461   1.000
    C845    C    0.07703   0.87387   0.66461   1.000
    C846    C    0.07703   0.20317   0.16461   1.000
    C847    C    0.79683   0.87387   0.16461   1.000
    C848    C    0.12613   0.92297   0.16461   1.000
    C849    C    0.86983   0.41037   0.66873   1.000
    C850    C    0.54053   0.13017   0.66873   1.000
    C851    C    0.58963   0.45947   0.66873   1.000
    H852    H    0.57300   0.73640   0.49750   1.000
    H853    H    0.26360   0.83660   0.49750   1.000
    C854    C    0.41850   0.19120   0.99800   1.000
    C855    C    0.77270   0.58150   0.99800   1.000
    C856    C    0.80880   0.22730   0.99800   1.000
    C857    C    0.80880   0.58150   0.49800   1.000
    C858    C    0.41850   0.22730   0.49800   1.000
    C859    C    0.77270   0.19120   0.49800   1.000
    C860    C    0.58150   0.80880   0.00200   1.000
    C861    C    0.22730   0.41850   0.00200   1.000
    C862    C    0.19120   0.77270   0.00200   1.000
    C863    C    0.85787   0.75183   0.83533   1.000
    C864    C    0.24817   0.10603   0.83533   1.000
    C865    C    0.89397   0.14213   0.83533   1.000
    C866    C    0.08517   0.52453   0.33133   1.000
    C867    C    0.43937   0.91483   0.33133   1.000
    C868    C    0.47547   0.56063   0.33133   1.000
    C869    C    0.47547   0.91483   0.83133   1.000
    C870    C    0.08517   0.56063   0.83133   1.000
    C871    C    0.43937   0.52453   0.83133   1.000
    C872    C    0.24817   0.14213   0.33533   1.000
    C873    C    0.89397   0.75183   0.33533   1.000
    C874    C    0.85787   0.10603   0.33533   1.000
    C875    C    0.52453   0.08517   0.16867   1.000
    C876    C    0.91483   0.43937   0.16867   1.000
    C877    C    0.56063   0.47547   0.16867   1.000
    C878    C    0.75183   0.85787   0.66467   1.000
    C879    C    0.10603   0.24817   0.66467   1.000
    C880    C    0.14213   0.89397   0.66467   1.000
    C881    C    0.14213   0.24817   0.16467   1.000
    C882    C    0.75183   0.89397   0.16467   1.000
    C883    C    0.10603   0.85787   0.16467   1.000
    C884    C    0.91483   0.47547   0.66867   1.000
    C885    C    0.56063   0.08517   0.66867   1.000
    C886    C    0.52453   0.43937   0.66867   1.000
    C887    C    0.63340   0.80160   0.50780   1.000
    C888    C    0.19840   0.83180   0.50780   1.000
    H889    H    0.42700   0.16340   0.00250   1.000
    H890    H    0.73640   0.57300   0.00250   1.000
    H891    H    0.83660   0.26360   0.00250   1.000
    H892    H    0.83660   0.57300   0.50250   1.000
    H893    H    0.42700   0.26360   0.50250   1.000
    H894    H    0.73640   0.16340   0.50250   1.000
    H895    H    0.57300   0.83660   0.99750   1.000
    H896    H    0.26360   0.42700   0.99750   1.000
    H897    H    0.16340   0.73640   0.99750   1.000
    H898    H    0.83007   0.76033   0.83083   1.000
    H899    H    0.23967   0.06973   0.83083   1.000
    H900    H    0.93027   0.16993   0.83083   1.000
    H901    H    0.09367   0.49673   0.33583   1.000
    H902    H    0.40307   0.90633   0.33583   1.000
    H903    H    0.50327   0.59693   0.33583   1.000
    H904    H    0.50327   0.90633   0.83583   1.000
    H905    H    0.09367   0.59693   0.83583   1.000
    H906    H    0.40307   0.49673   0.83583   1.000
    H907    H    0.23967   0.16993   0.33083   1.000
    H908    H    0.93027   0.76033   0.33083   1.000
    H909    H    0.83007   0.06973   0.33083   1.000
    H910    H    0.49673   0.09367   0.16417   1.000
    H911    H    0.90633   0.40307   0.16417   1.000
    H912    H    0.59693   0.50327   0.16417   1.000
    H913    H    0.76033   0.83007   0.66917   1.000
    H914    H    0.06973   0.23967   0.66917   1.000
    H915    H    0.16993   0.93027   0.66917   1.000
    H916    H    0.16993   0.23967   0.16917   1.000
    H917    H    0.76033   0.93027   0.16917   1.000
    H918    H    0.06973   0.83007   0.16917   1.000
    H919    H    0.90633   0.50327   0.66417   1.000
    H920    H    0.59693   0.09367   0.66417   1.000
    H921    H    0.49673   0.40307   0.66417   1.000
    H922    H    0.66580   0.79160   0.50650   1.000
    H923    H    0.20840   0.87420   0.50650   1.000
    C924    C    0.36660   0.16820   0.99220   1.000
    C925    C    0.80160   0.63340   0.99220   1.000
    C926    C    0.83180   0.19840   0.99220   1.000
    C927    C    0.83180   0.63340   0.49220   1.000
    C928    C    0.36660   0.19840   0.49220   1.000
    C929    C    0.80160   0.16820   0.49220   1.000
    C930    C    0.63340   0.83180   0.00780   1.000
    C931    C    0.19840   0.36660   0.00780   1.000
    C932    C    0.16820   0.80160   0.00780   1.000
    C933    C    0.83487   0.69993   0.84113   1.000
    C934    C    0.30007   0.13493   0.84113   1.000
    C935    C    0.86507   0.16513   0.84113   1.000
    C936    C    0.03327   0.50153   0.32553   1.000
    C937    C    0.46827   0.96673   0.32553   1.000
    C938    C    0.49847   0.53173   0.32553   1.000
    C939    C    0.49847   0.96673   0.82553   1.000
    C940    C    0.03327   0.53173   0.82553   1.000
    C941    C    0.46827   0.50153   0.82553   1.000
    C942    C    0.30007   0.16513   0.34113   1.000
    C943    C    0.86507   0.69993   0.34113   1.000
    C944    C    0.83487   0.13493   0.34113   1.000
    C945    C    0.50153   0.03327   0.17447   1.000
    C946    C    0.96673   0.46827   0.17447   1.000
    C947    C    0.53173   0.49847   0.17447   1.000
    C948    C    0.69993   0.83487   0.65887   1.000
    C949    C    0.13493   0.30007   0.65887   1.000
    C950    C    0.16513   0.86507   0.65887   1.000
    C951    C    0.16513   0.30007   0.15887   1.000
    C952    C    0.69993   0.86507   0.15887   1.000
    C953    C    0.13493   0.83487   0.15887   1.000
    C954    C    0.96673   0.49847   0.67447   1.000
    C955    C    0.53173   0.03327   0.67447   1.000
    C956    C    0.50153   0.46827   0.67447   1.000
    H957    H    0.33420   0.12580   0.99350   1.000
    H958    H    0.79160   0.66580   0.99350   1.000
    H959    H    0.87420   0.20840   0.99350   1.000
    H960    H    0.87420   0.66580   0.49350   1.000
    H961    H    0.33420   0.20840   0.49350   1.000
    H962    H    0.79160   0.12580   0.49350   1.000
    H963    H    0.66580   0.87420   0.00650   1.000
    H964    H    0.20840   0.33420   0.00650   1.000
    H965    H    0.12580   0.79160   0.00650   1.000
    H966    H    0.79247   0.66753   0.83983   1.000
    H967    H    0.33247   0.12493   0.83983   1.000
    H968    H    0.87507   0.20753   0.83983   1.000
    H969    H    0.00087   0.45913   0.32683   1.000
    H970    H    0.45827   0.99913   0.32683   1.000
    H971    H    0.54087   0.54173   0.32683   1.000
    H972    H    0.54087   0.99913   0.82683   1.000
    H973    H    0.00087   0.54173   0.82683   1.000
    H974    H    0.45827   0.45913   0.82683   1.000
    H975    H    0.33247   0.20753   0.33983   1.000
    H976    H    0.87507   0.66753   0.33983   1.000
    H977    H    0.79247   0.12493   0.33983   1.000
    H978    H    0.45913   0.00087   0.17317   1.000
    H979    H    0.99913   0.45827   0.17317   1.000
    H980    H    0.54173   0.54087   0.17317   1.000
    H981    H    0.66753   0.79247   0.66017   1.000
    H982    H    0.12493   0.33247   0.66017   1.000
    H983    H    0.20753   0.87507   0.66017   1.000
    H984    H    0.20753   0.33247   0.16017   1.000
    H985    H    0.66753   0.87507   0.16017   1.000
    H986    H    0.12493   0.79247   0.16017   1.000
    H987    H    0.99913   0.54087   0.67317   1.000
    H988    H    0.54173   0.00087   0.67317   1.000
    H989    H    0.45913   0.45827   0.67317   1.000
    C990    C    0.13940   0.57090   0.45471   1.000
    C991    C    0.42910   0.56850   0.45471   1.000
    C992    C    0.14260   0.60040   0.44407   1.000
    C993    C    0.39960   0.54220   0.44407   1.000
    C994    C    0.86060   0.43150   0.04529   1.000
    C995    C    0.57090   0.13940   0.04529   1.000
    C996    C    0.56850   0.42910   0.04529   1.000
    C997    C    0.56850   0.13940   0.54529   1.000
    C998    C    0.86060   0.42910   0.54529   1.000
    C999    C    0.57090   0.43150   0.54529   1.000
    C1000   C    0.13940   0.56850   0.95471   1.000
    C1001   C    0.42910   0.86060   0.95471   1.000
    C1002   C    0.43150   0.57090   0.95471   1.000
    C1003   C    0.09817   0.19393   0.78804   1.000
    C1004   C    0.80607   0.90423   0.78804   1.000
    C1005   C    0.09577   0.90183   0.78804   1.000
    C1006   C    0.52727   0.76483   0.37862   1.000
    C1007   C    0.23757   0.47273   0.37862   1.000
    C1008   C    0.23517   0.76243   0.37862   1.000
    C1009   C    0.23517   0.47273   0.87862   1.000
    C1010   C    0.52727   0.76243   0.87862   1.000
    C1011   C    0.23757   0.76483   0.87862   1.000
    C1012   C    0.80607   0.90183   0.28804   1.000
    C1013   C    0.09577   0.19393   0.28804   1.000
    C1014   C    0.09817   0.90423   0.28804   1.000
    C1015   C    0.76483   0.52727   0.12138   1.000
    C1016   C    0.47273   0.23757   0.12138   1.000
    C1017   C    0.76243   0.23517   0.12138   1.000
    C1018   C    0.19393   0.09817   0.71196   1.000
    C1019   C    0.90423   0.80607   0.71196   1.000
    C1020   C    0.90183   0.09577   0.71196   1.000
    C1021   C    0.90183   0.80607   0.21196   1.000
    C1022   C    0.19393   0.09577   0.21196   1.000
    C1023   C    0.90423   0.09817   0.21196   1.000
    C1024   C    0.47273   0.23517   0.62138   1.000
    C1025   C    0.76243   0.52727   0.62138   1.000
    C1026   C    0.76483   0.23757   0.62138   1.000
    H1027   H    0.18080   0.63500   0.44120   1.000
    H1028   H    0.36500   0.54580   0.44120   1.000
    C1029   C    0.85740   0.45780   0.05593   1.000
    C1030   C    0.60040   0.14260   0.05593   1.000
    C1031   C    0.54220   0.39960   0.05593   1.000
    C1032   C    0.54220   0.14260   0.55593   1.000
    C1033   C    0.85740   0.39960   0.55593   1.000
    C1034   C    0.60040   0.45780   0.55593   1.000
    C1035   C    0.14260   0.54220   0.94407   1.000
    C1036   C    0.39960   0.85740   0.94407   1.000
    C1037   C    0.45780   0.60040   0.94407   1.000
    C1038   C    0.12447   0.19073   0.77740   1.000
    C1039   C    0.80927   0.93373   0.77740   1.000
    C1040   C    0.06627   0.87553   0.77740   1.000
    C1041   C    0.52407   0.79113   0.38926   1.000
    C1042   C    0.26707   0.47593   0.38926   1.000
    C1043   C    0.20887   0.73293   0.38926   1.000
    C1044   C    0.20887   0.47593   0.88926   1.000
    C1045   C    0.52407   0.73293   0.88926   1.000
    C1046   C    0.26707   0.79113   0.88926   1.000
    C1047   C    0.80927   0.87553   0.27740   1.000
    C1048   C    0.06627   0.19073   0.27740   1.000
    C1049   C    0.12447   0.93373   0.27740   1.000
    C1050   C    0.79113   0.52407   0.11074   1.000
    C1051   C    0.47593   0.26707   0.11074   1.000
    C1052   C    0.73293   0.20887   0.11074   1.000
    C1053   C    0.19073   0.12447   0.72260   1.000
    C1054   C    0.93373   0.80927   0.72260   1.000
    C1055   C    0.87553   0.06627   0.72260   1.000
    C1056   C    0.87553   0.80927   0.22260   1.000
    C1057   C    0.19073   0.06627   0.22260   1.000
    C1058   C    0.93373   0.12447   0.22260   1.000
    C1059   C    0.47593   0.20887   0.61074   1.000
    C1060   C    0.73293   0.52407   0.61074   1.000
    C1061   C    0.79113   0.26707   0.61074   1.000
    C1062   C    0.91570   0.49090   0.06240   1.000
    C1063   C    0.57520   0.08430   0.06240   1.000
    C1064   C    0.50910   0.42480   0.06240   1.000
    H1065   H    0.81920   0.45420   0.05880   1.000
    H1066   H    0.63500   0.18080   0.05880   1.000
    H1067   H    0.54580   0.36500   0.05880   1.000
    H1068   H    0.54580   0.18080   0.55880   1.000
    H1069   H    0.81920   0.36500   0.55880   1.000
    H1070   H    0.63500   0.45420   0.55880   1.000
    H1071   H    0.18080   0.54580   0.94120   1.000
    H1072   H    0.36500   0.81920   0.94120   1.000
    H1073   H    0.45420   0.63500   0.94120   1.000
    H1074   H    0.12087   0.15253   0.77453   1.000
    H1075   H    0.84747   0.96833   0.77453   1.000
    H1076   H    0.03167   0.87913   0.77453   1.000
    H1077   H    0.48587   0.78753   0.39213   1.000
    H1078   H    0.30167   0.51413   0.39213   1.000
    H1079   H    0.21247   0.69833   0.39213   1.000
    H1080   H    0.21247   0.51413   0.89213   1.000
    H1081   H    0.48587   0.69833   0.89213   1.000
    H1082   H    0.30167   0.78753   0.89213   1.000
    C1083   C    0.50910   0.08430   0.56240   1.000
    C1084   C    0.91570   0.42480   0.56240   1.000
    C1085   C    0.57520   0.49090   0.56240   1.000
    C1086   C    0.08430   0.50910   0.93760   1.000
    C1087   C    0.42480   0.91570   0.93760   1.000
    C1088   C    0.49090   0.57520   0.93760   1.000
    C1089   C    0.15757   0.24903   0.77093   1.000
    C1090   C    0.75097   0.90853   0.77093   1.000
    C1091   C    0.09147   0.84243   0.77093   1.000
    C1092   C    0.58237   0.82423   0.39573   1.000
    C1093   C    0.24187   0.41763   0.39573   1.000
    C1094   C    0.17577   0.75813   0.39573   1.000
    C1095   C    0.17577   0.41763   0.89573   1.000
    C1096   C    0.58237   0.75813   0.89573   1.000
    C1097   C    0.24187   0.82423   0.89573   1.000
    C1098   C    0.75097   0.84243   0.27093   1.000
    C1099   C    0.09147   0.24903   0.27093   1.000
    C1100   C    0.15757   0.90853   0.27093   1.000
    C1101   C    0.82423   0.58237   0.10427   1.000
    C1102   C    0.41763   0.24187   0.10427   1.000
    C1103   C    0.75813   0.17577   0.10427   1.000
    C1104   C    0.24903   0.15757   0.72907   1.000
    C1105   C    0.90853   0.75097   0.72907   1.000
    C1106   C    0.84243   0.09147   0.72907   1.000
    C1107   C    0.84243   0.75097   0.22907   1.000
    C1108   C    0.24903   0.09147   0.22907   1.000
    C1109   C    0.90853   0.15757   0.22907   1.000
    C1110   C    0.41763   0.17577   0.60427   1.000
    C1111   C    0.75813   0.58237   0.60427   1.000
    C1112   C    0.82423   0.24187   0.60427   1.000
    C1113   C    0.03140   0.49690   0.45156   1.000
    C1114   C    0.50310   0.53450   0.45156   1.000
    C1115   C    0.97030   0.49300   0.05853   1.000
    C1116   C    0.52270   0.02970   0.05853   1.000
    C1117   C    0.50700   0.47730   0.05853   1.000
    C1118   C    0.50700   0.02970   0.55853   1.000
    C1119   C    0.97030   0.47730   0.55853   1.000
    C1120   C    0.52270   0.49300   0.55853   1.000
    C1121   C    0.02970   0.50700   0.94147   1.000
    C1122   C    0.47730   0.97030   0.94147   1.000
    C1123   C    0.49300   0.52270   0.94147   1.000
    C1124   C    0.15967   0.30363   0.77480   1.000
    C1125   C    0.69637   0.85603   0.77480   1.000
    C1126   C    0.14397   0.84033   0.77480   1.000
    C1127   C    0.63697   0.82633   0.39186   1.000
    C1128   C    0.18937   0.36303   0.39186   1.000
    C1129   C    0.17367   0.81063   0.39186   1.000
    C1130   C    0.17367   0.36303   0.89186   1.000
    C1131   C    0.63697   0.81063   0.89186   1.000
    C1132   C    0.18937   0.82633   0.89186   1.000
    C1133   C    0.69637   0.84033   0.27480   1.000
    C1134   C    0.14397   0.30363   0.27480   1.000
    C1135   C    0.15967   0.85603   0.27480   1.000
    C1136   C    0.82633   0.63697   0.10814   1.000
    C1137   C    0.36303   0.18937   0.10814   1.000
    C1138   C    0.81063   0.17367   0.10814   1.000
    C1139   C    0.30363   0.15967   0.72520   1.000
    C1140   C    0.85603   0.69637   0.72520   1.000
    C1141   C    0.84033   0.14397   0.72520   1.000
    C1142   C    0.84033   0.69637   0.22520   1.000
    C1143   C    0.30363   0.14397   0.22520   1.000
    C1144   C    0.85603   0.15967   0.22520   1.000
    C1145   C    0.36303   0.17367   0.60814   1.000
    C1146   C    0.81063   0.63697   0.60814   1.000
    C1147   C    0.82633   0.18937   0.60814   1.000
    C1148   C    0.08820   0.52000   0.45855   1.000
    C1149   C    0.48000   0.56820   0.45855   1.000
    C1150   C    0.96860   0.46550   0.04844   1.000
    C1151   C    0.49690   0.03140   0.04844   1.000
    C1152   C    0.53450   0.50310   0.04844   1.000
    C1153   C    0.53450   0.03140   0.54844   1.000
    C1154   C    0.96860   0.50310   0.54844   1.000
    C1155   C    0.49690   0.46550   0.54844   1.000
    C1156   C    0.03140   0.53450   0.95156   1.000
    C1157   C    0.50310   0.96860   0.95156   1.000
    C1158   C    0.46550   0.49690   0.95156   1.000
    C1159   C    0.13217   0.30193   0.78489   1.000
    C1160   C    0.69807   0.83023   0.78489   1.000
    C1161   C    0.16977   0.86783   0.78489   1.000
    C1162   C    0.63527   0.79883   0.38177   1.000
    C1163   C    0.16357   0.36473   0.38177   1.000
    C1164   C    0.20117   0.83643   0.38177   1.000
    C1165   C    0.20117   0.36473   0.88177   1.000
    C1166   C    0.63527   0.83643   0.88177   1.000
    C1167   C    0.16357   0.79883   0.88177   1.000
    C1168   C    0.69807   0.86783   0.28489   1.000
    C1169   C    0.16977   0.30193   0.28489   1.000
    C1170   C    0.13217   0.83023   0.28489   1.000
    C1171   C    0.79883   0.63527   0.11823   1.000
    C1172   C    0.36473   0.16357   0.11823   1.000
    C1173   C    0.83643   0.20117   0.11823   1.000
    C1174   C    0.30193   0.13217   0.71511   1.000
    C1175   C    0.83023   0.69807   0.71511   1.000
    C1176   C    0.86783   0.16977   0.71511   1.000
    C1177   C    0.86783   0.69807   0.21511   1.000
    C1178   C    0.30193   0.16977   0.21511   1.000
    C1179   C    0.83023   0.13217   0.21511   1.000
    C1180   C    0.36473   0.20117   0.61823   1.000
    C1181   C    0.83643   0.63527   0.61823   1.000
    C1182   C    0.79883   0.16357   0.61823   1.000
    H1183   H    0.08870   0.49940   0.46560   1.000
    H1184   H    0.50060   0.58930   0.46560   1.000
    C1185   C    0.91180   0.43180   0.04145   1.000
    C1186   C    0.52000   0.08820   0.04145   1.000
    C1187   C    0.56820   0.48000   0.04145   1.000
    C1188   C    0.56820   0.08820   0.54145   1.000
    C1189   C    0.91180   0.48000   0.54145   1.000
    C1190   C    0.52000   0.43180   0.54145   1.000
    C1191   C    0.08820   0.56820   0.95855   1.000
    C1192   C    0.48000   0.91180   0.95855   1.000
    C1193   C    0.43180   0.52000   0.95855   1.000
    C1194   C    0.09847   0.24513   0.79188   1.000
    C1195   C    0.75487   0.85333   0.79188   1.000
    C1196   C    0.14667   0.90153   0.79188   1.000
    C1197   C    0.57847   0.76513   0.37478   1.000
    C1198   C    0.18667   0.42153   0.37478   1.000
    C1199   C    0.23487   0.81333   0.37478   1.000
    C1200   C    0.23487   0.42153   0.87478   1.000
    C1201   C    0.57847   0.81333   0.87478   1.000
    C1202   C    0.18667   0.76513   0.87478   1.000
    C1203   C    0.75487   0.90153   0.29188   1.000
    C1204   C    0.14667   0.24513   0.29188   1.000
    C1205   C    0.09847   0.85333   0.29188   1.000
    C1206   C    0.76513   0.57847   0.12522   1.000
    C1207   C    0.42153   0.18667   0.12522   1.000
    C1208   C    0.81333   0.23487   0.12522   1.000
    C1209   C    0.24513   0.09847   0.70812   1.000
    C1210   C    0.85333   0.75487   0.70812   1.000
    C1211   C    0.90153   0.14667   0.70812   1.000
    C1212   C    0.90153   0.75487   0.20812   1.000
    C1213   C    0.24513   0.14667   0.20812   1.000
    C1214   C    0.85333   0.09847   0.20812   1.000
    C1215   C    0.42153   0.23487   0.62522   1.000
    C1216   C    0.81333   0.57847   0.62522   1.000
    C1217   C    0.76513   0.18667   0.62522   1.000
    C1218   C    0.97330   0.49690   0.43478   1.000
    C1219   C    0.50310   0.47640   0.43478   1.000
    H1220   H    0.91130   0.41070   0.03440   1.000
    H1221   H    0.49940   0.08870   0.03440   1.000
    H1222   H    0.58930   0.50060   0.03440   1.000
    H1223   H    0.58930   0.08870   0.53440   1.000
    H1224   H    0.91130   0.50060   0.53440   1.000
    H1225   H    0.49940   0.41070   0.53440   1.000
    H1226   H    0.08870   0.58930   0.96560   1.000
    H1227   H    0.50060   0.91130   0.96560   1.000
    H1228   H    0.41070   0.49940   0.96560   1.000
    H1229   H    0.07737   0.24463   0.79893   1.000
    H1230   H    0.75537   0.83273   0.79893   1.000
    H1231   H    0.16727   0.92263   0.79893   1.000
    H1232   H    0.57797   0.74403   0.36773   1.000
    H1233   H    0.16607   0.42203   0.36773   1.000
    H1234   H    0.25597   0.83393   0.36773   1.000
    H1235   H    0.25597   0.42203   0.86773   1.000
    H1236   H    0.57797   0.83393   0.86773   1.000
    H1237   H    0.16607   0.74403   0.86773   1.000
    H1238   H    0.75537   0.92263   0.29893   1.000
    H1239   H    0.16727   0.24463   0.29893   1.000
    H1240   H    0.07737   0.83273   0.29893   1.000
    H1241   H    0.74403   0.57797   0.13227   1.000
    H1242   H    0.42203   0.16607   0.13227   1.000
    H1243   H    0.83393   0.25597   0.13227   1.000
    H1244   H    0.24463   0.07737   0.70107   1.000
    H1245   H    0.83273   0.75537   0.70107   1.000
    H1246   H    0.92263   0.16727   0.70107   1.000
    H1247   H    0.92263   0.75537   0.20107   1.000
    H1248   H    0.24463   0.16727   0.20107   1.000
    H1249   H    0.83273   0.07737   0.20107   1.000
    H1250   H    0.42203   0.25597   0.63227   1.000
    H1251   H    0.83393   0.57797   0.63227   1.000
    H1252   H    0.74403   0.16607   0.63227   1.000
    C1253   C    0.97490   0.50020   0.42209   1.000
    C1254   C    0.49980   0.47470   0.42209   1.000
    C1255   C    0.02670   0.52360   0.06522   1.000
    C1256   C    0.49690   0.97330   0.06522   1.000
    C1257   C    0.47640   0.50310   0.06522   1.000
    C1258   C    0.47640   0.97330   0.56522   1.000
    C1259   C    0.02670   0.50310   0.56522   1.000
    C1260   C    0.49690   0.52360   0.56522   1.000
    C1261   C    0.97330   0.47640   0.93478   1.000
    C1262   C    0.50310   0.02670   0.93478   1.000
    C1263   C    0.52360   0.49690   0.93478   1.000
    C1264   C    0.19027   0.36003   0.76811   1.000
    C1265   C    0.63997   0.83023   0.76811   1.000
    C1266   C    0.16977   0.80973   0.76811   1.000
    C1267   C    0.69337   0.85693   0.39855   1.000
    C1268   C    0.16357   0.30663   0.39855   1.000
    C1269   C    0.14307   0.83643   0.39855   1.000
    C1270   C    0.14307   0.30663   0.89855   1.000
    C1271   C    0.69337   0.83643   0.89855   1.000
    C1272   C    0.16357   0.85693   0.89855   1.000
    C1273   C    0.63997   0.80973   0.26811   1.000
    C1274   C    0.16977   0.36003   0.26811   1.000
    C1275   C    0.19027   0.83023   0.26811   1.000
    C1276   C    0.85693   0.69337   0.10145   1.000
    C1277   C    0.30663   0.16357   0.10145   1.000
    C1278   C    0.83643   0.14307   0.10145   1.000
    C1279   C    0.36003   0.19027   0.73189   1.000
    C1280   C    0.83023   0.63997   0.73189   1.000
    C1281   C    0.80973   0.16977   0.73189   1.000
    C1282   C    0.80973   0.63997   0.23189   1.000
    C1283   C    0.36003   0.16977   0.23189   1.000
    C1284   C    0.83023   0.19027   0.23189   1.000
    C1285   C    0.30663   0.14307   0.60145   1.000
    C1286   C    0.83643   0.69337   0.60145   1.000
    C1287   C    0.85693   0.16357   0.60145   1.000
    C1288   C    0.92120   0.47260   0.41588   1.000
    C1289   C    0.52740   0.44860   0.41588   1.000
    C1290   C    0.02510   0.52530   0.07791   1.000
    C1291   C    0.50020   0.97490   0.07791   1.000
    C1292   C    0.47470   0.49980   0.07791   1.000
    C1293   C    0.47470   0.97490   0.57791   1.000
    C1294   C    0.02510   0.49980   0.57791   1.000
    C1295   C    0.50020   0.52530   0.57791   1.000
    C1296   C    0.97490   0.47470   0.92209   1.000
    C1297   C    0.49980   0.02510   0.92209   1.000
    C1298   C    0.52530   0.50020   0.92209   1.000
    C1299   C    0.19197   0.35843   0.75542   1.000
    C1300   C    0.64157   0.83353   0.75542   1.000
    C1301   C    0.16647   0.80803   0.75542   1.000
    C1302   C    0.69177   0.85863   0.41124   1.000
    C1303   C    0.16687   0.30823   0.41124   1.000
    C1304   C    0.14137   0.83313   0.41124   1.000
    C1305   C    0.14137   0.30823   0.91124   1.000
    C1306   C    0.69177   0.83313   0.91124   1.000
    C1307   C    0.16687   0.85863   0.91124   1.000
    C1308   C    0.64157   0.80803   0.25542   1.000
    C1309   C    0.16647   0.35843   0.25542   1.000
    C1310   C    0.19197   0.83353   0.25542   1.000
    C1311   C    0.85863   0.69177   0.08876   1.000
    C1312   C    0.30823   0.16687   0.08876   1.000
    C1313   C    0.83313   0.14137   0.08876   1.000
    C1314   C    0.35843   0.19197   0.74458   1.000
    C1315   C    0.83353   0.64157   0.74458   1.000
    C1316   C    0.80803   0.16647   0.74458   1.000
    C1317   C    0.80803   0.64157   0.24458   1.000
    C1318   C    0.35843   0.16647   0.24458   1.000
    C1319   C    0.83353   0.19197   0.24458   1.000
    C1320   C    0.30823   0.14137   0.58876   1.000
    C1321   C    0.83313   0.69177   0.58876   1.000
    C1322   C    0.85863   0.16687   0.58876   1.000
    H1323   H    0.92330   0.47300   0.40750   1.000
    H1324   H    0.52700   0.45030   0.40750   1.000
    C1325   C    0.07880   0.55140   0.08412   1.000
    C1326   C    0.47260   0.92120   0.08412   1.000
    C1327   C    0.44860   0.52740   0.08412   1.000
    C1328   C    0.44860   0.92120   0.58412   1.000
    C1329   C    0.07880   0.52740   0.58412   1.000
    C1330   C    0.47260   0.55140   0.58412   1.000
    C1331   C    0.92120   0.44860   0.91588   1.000
    C1332   C    0.52740   0.07880   0.91588   1.000
    C1333   C    0.55140   0.47260   0.91588   1.000
    C1334   C    0.21807   0.41213   0.74921   1.000
    C1335   C    0.58787   0.80593   0.74921   1.000
    C1336   C    0.19407   0.78193   0.74921   1.000
    C1337   C    0.74547   0.88473   0.41745   1.000
    C1338   C    0.13927   0.25453   0.41745   1.000
    C1339   C    0.11527   0.86073   0.41745   1.000
    C1340   C    0.11527   0.25453   0.91745   1.000
    C1341   C    0.74547   0.86073   0.91745   1.000
    C1342   C    0.13927   0.88473   0.91745   1.000
    C1343   C    0.58787   0.78193   0.24921   1.000
    C1344   C    0.19407   0.41213   0.24921   1.000
    C1345   C    0.21807   0.80593   0.24921   1.000
    C1346   C    0.88473   0.74547   0.08255   1.000
    C1347   C    0.25453   0.13927   0.08255   1.000
    C1348   C    0.86073   0.11527   0.08255   1.000
    C1349   C    0.41213   0.21807   0.75079   1.000
    C1350   C    0.80593   0.58787   0.75079   1.000
    C1351   C    0.78193   0.19407   0.75079   1.000
    C1352   C    0.78193   0.58787   0.25079   1.000
    C1353   C    0.41213   0.19407   0.25079   1.000
    C1354   C    0.80593   0.21807   0.25079   1.000
    C1355   C    0.25453   0.11527   0.58255   1.000
    C1356   C    0.86073   0.74547   0.58255   1.000
    C1357   C    0.88473   0.13927   0.58255   1.000
    C1358   C    0.86090   0.44270   0.42148   1.000
    C1359   C    0.55730   0.41820   0.42148   1.000
    H1360   H    0.07670   0.54970   0.09250   1.000
    H1361   H    0.47300   0.92330   0.09250   1.000
    H1362   H    0.45030   0.52700   0.09250   1.000
    H1363   H    0.45030   0.92330   0.59250   1.000
    H1364   H    0.07670   0.52700   0.59250   1.000
    H1365   H    0.47300   0.54970   0.59250   1.000
    H1366   H    0.92330   0.45030   0.90750   1.000
    H1367   H    0.52700   0.07670   0.90750   1.000
    H1368   H    0.54970   0.47300   0.90750   1.000
    H1369   H    0.21637   0.41003   0.74083   1.000
    H1370   H    0.58997   0.80633   0.74083   1.000
    H1371   H    0.19367   0.78363   0.74083   1.000
    H1372   H    0.74337   0.88303   0.42583   1.000
    H1373   H    0.13967   0.25663   0.42583   1.000
    H1374   H    0.11697   0.86033   0.42583   1.000
    H1375   H    0.11697   0.25663   0.92583   1.000
    H1376   H    0.74337   0.86033   0.92583   1.000
    H1377   H    0.13967   0.88303   0.92583   1.000
    H1378   H    0.58997   0.78363   0.24083   1.000
    H1379   H    0.19367   0.41003   0.24083   1.000
    H1380   H    0.21637   0.80633   0.24083   1.000
    H1381   H    0.88303   0.74337   0.07417   1.000
    H1382   H    0.25663   0.13967   0.07417   1.000
    H1383   H    0.86033   0.11697   0.07417   1.000
    H1384   H    0.41003   0.21637   0.75917   1.000
    H1385   H    0.80633   0.58997   0.75917   1.000
    H1386   H    0.78363   0.19367   0.75917   1.000
    H1387   H    0.78363   0.58997   0.25917   1.000
    H1388   H    0.41003   0.19367   0.25917   1.000
    H1389   H    0.80633   0.21637   0.25917   1.000
    H1390   H    0.25663   0.11697   0.57417   1.000
    H1391   H    0.86033   0.74337   0.57417   1.000
    H1392   H    0.88303   0.13967   0.57417   1.000
    C1393   C    0.86020   0.44600   0.43362   1.000
    C1394   C    0.55400   0.41420   0.43362   1.000
    C1395   C    0.13910   0.58180   0.07852   1.000
    C1396   C    0.44270   0.86090   0.07852   1.000
    C1397   C    0.41820   0.55730   0.07852   1.000
    C1398   C    0.41820   0.86090   0.57852   1.000
    C1399   C    0.13910   0.55730   0.57852   1.000
    C1400   C    0.44270   0.58180   0.57852   1.000
    C1401   C    0.86090   0.41820   0.92148   1.000
    C1402   C    0.55730   0.13910   0.92148   1.000
    C1403   C    0.58180   0.44270   0.92148   1.000
    C1404   C    0.24847   0.47243   0.75481   1.000
    C1405   C    0.52757   0.77603   0.75481   1.000
    C1406   C    0.22397   0.75153   0.75481   1.000
    C1407   C    0.80577   0.91513   0.41185   1.000
    C1408   C    0.10937   0.19423   0.41185   1.000
    C1409   C    0.08487   0.89063   0.41185   1.000
    C1410   C    0.08487   0.19423   0.91185   1.000
    C1411   C    0.80577   0.89063   0.91185   1.000
    C1412   C    0.10937   0.91513   0.91185   1.000
    C1413   C    0.52757   0.75153   0.25481   1.000
    C1414   C    0.22397   0.47243   0.25481   1.000
    C1415   C    0.24847   0.77603   0.25481   1.000
    C1416   C    0.91513   0.80577   0.08815   1.000
    C1417   C    0.19423   0.10937   0.08815   1.000
    C1418   C    0.89063   0.08487   0.08815   1.000
    C1419   C    0.47243   0.24847   0.74519   1.000
    C1420   C    0.77603   0.52757   0.74519   1.000
    C1421   C    0.75153   0.22397   0.74519   1.000
    C1422   C    0.75153   0.52757   0.24519   1.000
    C1423   C    0.47243   0.22397   0.24519   1.000
    C1424   C    0.77603   0.24847   0.24519   1.000
    C1425   C    0.19423   0.08487   0.58815   1.000
    C1426   C    0.89063   0.80577   0.58815   1.000
    C1427   C    0.91513   0.10937   0.58815   1.000
    H1428   H    0.82100   0.43170   0.43750   1.000
    H1429   H    0.56830   0.38930   0.43750   1.000
    C1430   C    0.13980   0.58580   0.06638   1.000
    C1431   C    0.44600   0.86020   0.06638   1.000
    C1432   C    0.41420   0.55400   0.06638   1.000
    C1433   C    0.41420   0.86020   0.56638   1.000
    C1434   C    0.13980   0.55400   0.56638   1.000
    C1435   C    0.44600   0.58580   0.56638   1.000
    C1436   C    0.86020   0.41420   0.93362   1.000
    C1437   C    0.55400   0.13980   0.93362   1.000
    C1438   C    0.58580   0.44600   0.93362   1.000
    C1439   C    0.25247   0.47313   0.76695   1.000
    C1440   C    0.52687   0.77933   0.76695   1.000
    C1441   C    0.22067   0.74753   0.76695   1.000
    C1442   C    0.80647   0.91913   0.39971   1.000
    C1443   C    0.11267   0.19353   0.39971   1.000
    C1444   C    0.08087   0.88733   0.39971   1.000
    C1445   C    0.08087   0.19353   0.89971   1.000
    C1446   C    0.80647   0.88733   0.89971   1.000
    C1447   C    0.11267   0.91913   0.89971   1.000
    C1448   C    0.52687   0.74753   0.26695   1.000
    C1449   C    0.22067   0.47313   0.26695   1.000
    C1450   C    0.25247   0.77933   0.26695   1.000
    C1451   C    0.91913   0.80647   0.10029   1.000
    C1452   C    0.19353   0.11267   0.10029   1.000
    C1453   C    0.88733   0.08087   0.10029   1.000
    C1454   C    0.47313   0.25247   0.73305   1.000
    C1455   C    0.77933   0.52687   0.73305   1.000
    C1456   C    0.74753   0.22067   0.73305   1.000
    C1457   C    0.74753   0.52687   0.23305   1.000
    C1458   C    0.47313   0.22067   0.23305   1.000
    C1459   C    0.77933   0.25247   0.23305   1.000
    C1460   C    0.19353   0.08087   0.60029   1.000
    C1461   C    0.88733   0.80647   0.60029   1.000
    C1462   C    0.91913   0.11267   0.60029   1.000
    C1463   C    0.91290   0.46880   0.44011   1.000
    C1464   C    0.53120   0.44410   0.44011   1.000
    H1465   H    0.17900   0.61070   0.06250   1.000
    H1466   H    0.43170   0.82100   0.06250   1.000
    H1467   H    0.38930   0.56830   0.06250   1.000
    H1468   H    0.38930   0.82100   0.56250   1.000
    H1469   H    0.17900   0.56830   0.56250   1.000
    H1470   H    0.43170   0.61070   0.56250   1.000
    H1471   H    0.82100   0.38930   0.93750   1.000
    H1472   H    0.56830   0.17900   0.93750   1.000
    H1473   H    0.61070   0.43170   0.93750   1.000
    H1474   H    0.27737   0.51233   0.77083   1.000
    H1475   H    0.48767   0.76503   0.77083   1.000
    H1476   H    0.23497   0.72263   0.77083   1.000
    H1477   H    0.84567   0.94403   0.39583   1.000
    H1478   H    0.09837   0.15433   0.39583   1.000
    H1479   H    0.05597   0.90163   0.39583   1.000
    H1480   H    0.05597   0.15433   0.89583   1.000
    H1481   H    0.84567   0.90163   0.89583   1.000
    H1482   H    0.09837   0.94403   0.89583   1.000
    H1483   H    0.48767   0.72263   0.27083   1.000
    H1484   H    0.23497   0.51233   0.27083   1.000
    H1485   H    0.27737   0.76503   0.27083   1.000
    H1486   H    0.94403   0.84567   0.10417   1.000
    H1487   H    0.15433   0.09837   0.10417   1.000
    H1488   H    0.90163   0.05597   0.10417   1.000
    H1489   H    0.51233   0.27737   0.72917   1.000
    H1490   H    0.76503   0.48767   0.72917   1.000
    H1491   H    0.72263   0.23497   0.72917   1.000
    H1492   H    0.72263   0.48767   0.22917   1.000
    H1493   H    0.51233   0.23497   0.22917   1.000
    H1494   H    0.76503   0.27737   0.22917   1.000
    H1495   H    0.15433   0.05597   0.60417   1.000
    H1496   H    0.90163   0.84567   0.60417   1.000
    H1497   H    0.94403   0.09837   0.60417   1.000
    C1498   C    0.08710   0.55590   0.05989   1.000
    C1499   C    0.46880   0.91290   0.05989   1.000
    C1500   C    0.44410   0.53120   0.05989   1.000
    C1501   C    0.44410   0.91290   0.55989   1.000
    C1502   C    0.08710   0.53120   0.55989   1.000
    C1503   C    0.46880   0.55590   0.55989   1.000
    C1504   C    0.91290   0.44410   0.94011   1.000
    C1505   C    0.53120   0.08710   0.94011   1.000
    C1506   C    0.55590   0.46880   0.94011   1.000
    C1507   C    0.22257   0.42043   0.77344   1.000
    C1508   C    0.57957   0.80213   0.77344   1.000
    C1509   C    0.19787   0.77743   0.77344   1.000
    C1510   C    0.75377   0.88923   0.39322   1.000
    C1511   C    0.13547   0.24623   0.39322   1.000
    C1512   C    0.11077   0.86453   0.39322   1.000
    C1513   C    0.11077   0.24623   0.89322   1.000
    C1514   C    0.75377   0.86453   0.89322   1.000
    C1515   C    0.13547   0.88923   0.89322   1.000
    C1516   C    0.57957   0.77743   0.27344   1.000
    C1517   C    0.19787   0.42043   0.27344   1.000
    C1518   C    0.22257   0.80213   0.27344   1.000
    C1519   C    0.88923   0.75377   0.10678   1.000
    C1520   C    0.24623   0.13547   0.10678   1.000
    C1521   C    0.86453   0.11077   0.10678   1.000
    C1522   C    0.42043   0.22257   0.72656   1.000
    C1523   C    0.80213   0.57957   0.72656   1.000
    H1524   H    0.10010   0.64540   0.42700   1.000
    H1525   H    0.35460   0.45470   0.42700   1.000
    N1526   N    0.90930   0.51520   0.07369   1.000
    N1527   N    0.60590   0.09070   0.07369   1.000
    N1528   N    0.48480   0.39410   0.07369   1.000
    N1529   N    0.48480   0.09070   0.57369   1.000
    N1530   N    0.90930   0.39410   0.57369   1.000
    N1531   N    0.60590   0.51520   0.57369   1.000
    N1532   N    0.09070   0.48480   0.92631   1.000
    N1533   N    0.39410   0.90930   0.92631   1.000
    N1534   N    0.51520   0.60590   0.92631   1.000
    N1535   N    0.18187   0.24263   0.75964   1.000
    N1536   N    0.75737   0.93923   0.75964   1.000
    N1537   N    0.06077   0.81813   0.75964   1.000
    N1538   N    0.57597   0.84853   0.40702   1.000
    N1539   N    0.27257   0.42403   0.40702   1.000
    N1540   N    0.15147   0.72743   0.40702   1.000
    N1541   N    0.15147   0.42403   0.90702   1.000
    N1542   N    0.57597   0.72743   0.90702   1.000
    N1543   N    0.27257   0.84853   0.90702   1.000
    N1544   N    0.75737   0.81813   0.25964   1.000
    N1545   N    0.06077   0.24263   0.25964   1.000
    N1546   N    0.18187   0.93923   0.25964   1.000
    N1547   N    0.84853   0.57597   0.09298   1.000
    N1548   N    0.42403   0.27257   0.09298   1.000
    N1549   N    0.72743   0.15147   0.09298   1.000
    N1550   N    0.24263   0.18187   0.74036   1.000
    N1551   N    0.93923   0.75737   0.74036   1.000
    N1552   N    0.81813   0.06077   0.74036   1.000
    N1553   N    0.81813   0.75737   0.24036   1.000
    N1554   N    0.24263   0.06077   0.24036   1.000
    N1555   N    0.93923   0.18187   0.24036   1.000
    N1556   N    0.42403   0.15147   0.59298   1.000
    N1557   N    0.72743   0.57597   0.59298   1.000
    N1558   N    0.84853   0.27257   0.59298   1.000
    N1559   N    0.03080   0.52180   0.41435   1.000
    N1560   N    0.47820   0.50900   0.41435   1.000
    H1561   H    0.89990   0.54530   0.07300   1.000
    H1562   H    0.64540   0.10010   0.07300   1.000
    H1563   H    0.45470   0.35460   0.07300   1.000
    H1564   H    0.45470   0.10010   0.57300   1.000
    H1565   H    0.89990   0.35460   0.57300   1.000
    H1566   H    0.64540   0.54530   0.57300   1.000
    H1567   H    0.10010   0.45470   0.92700   1.000
    H1568   H    0.35460   0.89990   0.92700   1.000
    H1569   H    0.54530   0.64540   0.92700   1.000
    H1570   H    0.21197   0.23323   0.76033   1.000
    H1571   H    0.76677   0.97873   0.76033   1.000
    H1572   H    0.02127   0.78803   0.76033   1.000
    H1573   H    0.56657   0.87863   0.40633   1.000
    H1574   H    0.31207   0.43343   0.40633   1.000
    H1575   H    0.12137   0.68793   0.40633   1.000
    H1576   H    0.12137   0.43343   0.90633   1.000
    H1577   H    0.56657   0.68793   0.90633   1.000
    H1578   H    0.31207   0.87863   0.90633   1.000
    H1579   H    0.76677   0.78803   0.26033   1.000
    H1580   H    0.02127   0.23323   0.26033   1.000
    H1581   H    0.21197   0.97873   0.26033   1.000
    H1582   H    0.87863   0.56657   0.09367   1.000
    H1583   H    0.43343   0.31207   0.09367   1.000
    H1584   H    0.68793   0.12137   0.09367   1.000
    H1585   H    0.23323   0.21197   0.73967   1.000
    H1586   H    0.97873   0.76677   0.73967   1.000
    H1587   H    0.78803   0.02127   0.73967   1.000
    H1588   H    0.78803   0.76677   0.23967   1.000
    H1589   H    0.23323   0.02127   0.23967   1.000
    H1590   H    0.97873   0.21197   0.23967   1.000
    H1591   H    0.43343   0.12137   0.59367   1.000
    H1592   H    0.68793   0.56657   0.59367   1.000
    H1593   H    0.87863   0.31207   0.59367   1.000
    H1594   H    0.03120   0.49370   0.40950   1.000
    H1595   H    0.50630   0.53750   0.40950   1.000
    N1596   N    0.96920   0.49100   0.08565   1.000
    N1597   N    0.52180   0.03080   0.08565   1.000
    N1598   N    0.50900   0.47820   0.08565   1.000
    N1599   N    0.50900   0.03080   0.58565   1.000
    N1600   N    0.96920   0.47820   0.58565   1.000
    N1601   N    0.52180   0.49100   0.58565   1.000
    N1602   N    0.03080   0.50900   0.91435   1.000
    N1603   N    0.47820   0.96920   0.91435   1.000
    N1604   N    0.49100   0.52180   0.91435   1.000
    N1605   N    0.15767   0.30253   0.74768   1.000
    N1606   N    0.69747   0.85513   0.74768   1.000
    N1607   N    0.14487   0.84233   0.74768   1.000
    N1608   N    0.63587   0.82433   0.41898   1.000
    N1609   N    0.18847   0.36413   0.41898   1.000
    N1610   N    0.17567   0.81153   0.41898   1.000
    N1611   N    0.17567   0.36413   0.91898   1.000
    N1612   N    0.63587   0.81153   0.91898   1.000
    N1613   N    0.18847   0.82433   0.91898   1.000
    N1614   N    0.69747   0.84233   0.24768   1.000
    N1615   N    0.14487   0.30253   0.24768   1.000
    N1616   N    0.15767   0.85513   0.24768   1.000
    N1617   N    0.82433   0.63587   0.08102   1.000
    N1618   N    0.36413   0.18847   0.08102   1.000
    N1619   N    0.81153   0.17567   0.08102   1.000
    N1620   N    0.30253   0.15767   0.75232   1.000
    N1621   N    0.85513   0.69747   0.75232   1.000
    N1622   N    0.84233   0.14487   0.75232   1.000
    N1623   N    0.84233   0.69747   0.25232   1.000
    N1624   N    0.30253   0.14487   0.25232   1.000
    N1625   N    0.85513   0.15767   0.25232   1.000
    N1626   N    0.36413   0.17567   0.58102   1.000
    N1627   N    0.81153   0.63587   0.58102   1.000
    N1628   N    0.82433   0.18847   0.58102   1.000
    C1629   C    0.08470   0.58490   0.41400   1.000
    C1630   C    0.41510   0.49980   0.41400   1.000
    H1631   H    0.96880   0.46250   0.09050   1.000
    H1632   H    0.49370   0.03120   0.09050   1.000
    H1633   H    0.53750   0.50630   0.09050   1.000
    H1634   H    0.53750   0.03120   0.59050   1.000
    H1635   H    0.96880   0.50630   0.59050   1.000
    H1636   H    0.49370   0.46250   0.59050   1.000
    H1637   H    0.03120   0.53750   0.90950   1.000
    H1638   H    0.50630   0.96880   0.90950   1.000
    H1639   H    0.46250   0.49370   0.90950   1.000
    H1640   H    0.12917   0.30213   0.74283   1.000
    H1641   H    0.69787   0.82703   0.74283   1.000
    H1642   H    0.17297   0.87083   0.74283   1.000
    H1643   H    0.63547   0.79583   0.42383   1.000
    H1644   H    0.16037   0.36453   0.42383   1.000
    H1645   H    0.20417   0.83963   0.42383   1.000
    H1646   H    0.20417   0.36453   0.92383   1.000
    H1647   H    0.63547   0.83963   0.92383   1.000
    H1648   H    0.16037   0.79583   0.92383   1.000
    H1649   H    0.69787   0.87083   0.24283   1.000
    H1650   H    0.17297   0.30213   0.24283   1.000
    H1651   H    0.12917   0.82703   0.24283   1.000
    H1652   H    0.79583   0.63547   0.07617   1.000
    H1653   H    0.36453   0.16037   0.07617   1.000
    H1654   H    0.83963   0.20417   0.07617   1.000
    H1655   H    0.30213   0.12917   0.75717   1.000
    H1656   H    0.82703   0.69787   0.75717   1.000
    H1657   H    0.87083   0.17297   0.75717   1.000
    H1658   H    0.87083   0.69787   0.25717   1.000
    H1659   H    0.30213   0.17297   0.25717   1.000
    H1660   H    0.82703   0.12917   0.25717   1.000
    H1661   H    0.36453   0.20417   0.57617   1.000
    H1662   H    0.83963   0.63547   0.57617   1.000
    H1663   H    0.79583   0.16037   0.57617   1.000
    N1664   N    0.98270   0.44450   0.45712   1.000
    N1665   N    0.55550   0.53820   0.45712   1.000
    C1666   C    0.91530   0.50020   0.08600   1.000
    C1667   C    0.58490   0.08470   0.08600   1.000
    C1668   C    0.49980   0.41510   0.08600   1.000
    C1669   C    0.49980   0.08470   0.58600   1.000
    C1670   C    0.91530   0.41510   0.58600   1.000
    C1671   C    0.58490   0.50020   0.58600   1.000
    C1672   C    0.08470   0.49980   0.91400   1.000
    C1673   C    0.41510   0.91530   0.91400   1.000
    C1674   C    0.50020   0.58490   0.91400   1.000
    C1675   C    0.16687   0.24863   0.74733   1.000
    C1676   C    0.75137   0.91823   0.74733   1.000
    C1677   C    0.08177   0.83313   0.74733   1.000
    C1678   C    0.58197   0.83353   0.41933   1.000
    C1679   C    0.25157   0.41803   0.41933   1.000
    C1680   C    0.16647   0.74843   0.41933   1.000
    C1681   C    0.16647   0.41803   0.91933   1.000
    C1682   C    0.58197   0.74843   0.91933   1.000
    C1683   C    0.25157   0.83353   0.91933   1.000
    C1684   C    0.75137   0.83313   0.24733   1.000
    C1685   C    0.08177   0.24863   0.24733   1.000
    C1686   C    0.16687   0.91823   0.24733   1.000
    C1687   C    0.83353   0.58197   0.08067   1.000
    C1688   C    0.41803   0.25157   0.08067   1.000
    C1689   C    0.74843   0.16647   0.08067   1.000
    C1690   C    0.24863   0.16687   0.75267   1.000
    C1691   C    0.91823   0.75137   0.75267   1.000
    C1692   C    0.83313   0.08177   0.75267   1.000
    C1693   C    0.83313   0.75137   0.25267   1.000
    C1694   C    0.24863   0.08177   0.25267   1.000
    C1695   C    0.91823   0.16687   0.25267   1.000
    C1696   C    0.41803   0.16647   0.58067   1.000
    C1697   C    0.74843   0.58197   0.58067   1.000
    C1698   C    0.83353   0.25157   0.58067   1.000
    H1699   H    0.98790   0.41160   0.45780   1.000
    H1700   H    0.58840   0.57630   0.45780   1.000
    N1701   N    0.01730   0.46180   0.04288   1.000
    N1702   N    0.44450   0.98270   0.04288   1.000
    N1703   N    0.53820   0.55550   0.04288   1.000
    N1704   N    0.53820   0.98270   0.54288   1.000
    N1705   N    0.01730   0.55550   0.54288   1.000
    N1706   N    0.44450   0.46180   0.54288   1.000
    N1707   N    0.98270   0.53820   0.95712   1.000
    N1708   N    0.55550   0.01730   0.95712   1.000
    N1709   N    0.46180   0.44450   0.95712   1.000
    N1710   N    0.12847   0.35063   0.79045   1.000
    N1711   N    0.64937   0.77783   0.79045   1.000
    N1712   N    0.22217   0.87153   0.79045   1.000
    N1713   N    0.68397   0.79513   0.37621   1.000
    N1714   N    0.11117   0.31603   0.37621   1.000
    N1715   N    0.20487   0.88883   0.37621   1.000
    N1716   N    0.20487   0.31603   0.87621   1.000
    N1717   N    0.68397   0.88883   0.87621   1.000
    N1718   N    0.11117   0.79513   0.87621   1.000
    N1719   N    0.64937   0.87153   0.29045   1.000
    N1720   N    0.22217   0.35063   0.29045   1.000
    N1721   N    0.12847   0.77783   0.29045   1.000
    N1722   N    0.79513   0.68397   0.12379   1.000
    N1723   N    0.31603   0.11117   0.12379   1.000
    N1724   N    0.88883   0.20487   0.12379   1.000
    N1725   N    0.35063   0.12847   0.70955   1.000
    N1726   N    0.77783   0.64937   0.70955   1.000
    N1727   N    0.87153   0.22217   0.70955   1.000
    N1728   N    0.87153   0.64937   0.20955   1.000
    N1729   N    0.35063   0.22217   0.20955   1.000
    N1730   N    0.77783   0.12847   0.20955   1.000
    N1731   N    0.31603   0.20487   0.62379   1.000
    N1732   N    0.88883   0.68397   0.62379   1.000
    N1733   N    0.79513   0.11117   0.62379   1.000
    N1734   N    0.90460   0.46290   0.45210   1.000
    N1735   N    0.53710   0.44170   0.45210   1.000
    H1736   H    0.01210   0.42370   0.04220   1.000
    H1737   H    0.41160   0.98790   0.04220   1.000
    H1738   H    0.57630   0.58840   0.04220   1.000
    H1739   H    0.57630   0.98790   0.54220   1.000
    H1740   H    0.01210   0.58840   0.54220   1.000
    H1741   H    0.41160   0.42370   0.54220   1.000
    H1742   H    0.98790   0.57630   0.95780   1.000
    H1743   H    0.58840   0.01210   0.95780   1.000
    H1744   H    0.42370   0.41160   0.95780   1.000
    H1745   H    0.09037   0.34543   0.79113   1.000
    H1746   H    0.65457   0.74493   0.79113   1.000
    H1747   H    0.25507   0.90963   0.79113   1.000
    H1748   H    0.67877   0.75703   0.37553   1.000
    H1749   H    0.07827   0.32123   0.37553   1.000
    H1750   H    0.24297   0.92173   0.37553   1.000
    H1751   H    0.24297   0.32123   0.87553   1.000
    H1752   H    0.67877   0.92173   0.87553   1.000
    H1753   H    0.07827   0.75703   0.87553   1.000
    H1754   H    0.65457   0.90963   0.29113   1.000
    H1755   H    0.25507   0.34543   0.29113   1.000
    H1756   H    0.09037   0.74493   0.29113   1.000
    H1757   H    0.75703   0.67877   0.12447   1.000
    H1758   H    0.32123   0.07827   0.12447   1.000
    H1759   H    0.92173   0.24297   0.12447   1.000
    H1760   H    0.34543   0.09037   0.70887   1.000
    H1761   H    0.74493   0.65457   0.70887   1.000
    H1762   H    0.90963   0.25507   0.70887   1.000
    H1763   H    0.90963   0.65457   0.20887   1.000
    H1764   H    0.34543   0.25507   0.20887   1.000
    H1765   H    0.74493   0.09037   0.20887   1.000
    H1766   H    0.32123   0.24297   0.62447   1.000
    H1767   H    0.92173   0.67877   0.62447   1.000
    H1768   H    0.75703   0.07827   0.62447   1.000
    H1769   H    0.88170   0.47930   0.45450   1.000
    H1770   H    0.52070   0.40240   0.45450   1.000
    N1771   N    0.09540   0.55830   0.04790   1.000
    N1772   N    0.46290   0.90460   0.04790   1.000
    N1773   N    0.44170   0.53710   0.04790   1.000
    N1774   N    0.44170   0.90460   0.54790   1.000
    N1775   N    0.09540   0.53710   0.54790   1.000
    N1776   N    0.46290   0.55830   0.54790   1.000
    N1777   N    0.90460   0.44170   0.95210   1.000
    N1778   N    0.53710   0.09540   0.95210   1.000
    N1779   N    0.55830   0.46290   0.95210   1.000
    N1780   N    0.22497   0.42873   0.78543   1.000
    N1781   N    0.57127   0.79623   0.78543   1.000
    N1782   N    0.20377   0.77503   0.78543   1.000
    N1783   N    0.76207   0.89163   0.38123   1.000
    N1784   N    0.12957   0.23793   0.38123   1.000
    N1785   N    0.10837   0.87043   0.38123   1.000
    N1786   N    0.10837   0.23793   0.88123   1.000
    N1787   N    0.76207   0.87043   0.88123   1.000
    N1788   N    0.12957   0.89163   0.88123   1.000
    N1789   N    0.57127   0.77503   0.28543   1.000
    N1790   N    0.20377   0.42873   0.28543   1.000
    N1791   N    0.22497   0.79623   0.28543   1.000
    N1792   N    0.89163   0.76207   0.11877   1.000
    N1793   N    0.23793   0.12957   0.11877   1.000
    N1794   N    0.87043   0.10837   0.11877   1.000
    N1795   N    0.42873   0.22497   0.71457   1.000
    N1796   N    0.79623   0.57127   0.71457   1.000
    N1797   N    0.77503   0.20377   0.71457   1.000
    N1798   N    0.77503   0.57127   0.21457   1.000
    N1799   N    0.42873   0.20377   0.21457   1.000
    N1800   N    0.79623   0.22497   0.21457   1.000
    N1801   N    0.23793   0.10837   0.61877   1.000
    N1802   N    0.87043   0.76207   0.61877   1.000
    N1803   N    0.89163   0.12957   0.61877   1.000
    C1804   C    0.92270   0.43690   0.46210   1.000
    C1805   C    0.56310   0.48580   0.46210   1.000
    H1806   H    0.11830   0.59760   0.04550   1.000
    H1807   H    0.47930   0.88170   0.04550   1.000
    H1808   H    0.40240   0.52070   0.04550   1.000
    H1809   H    0.40240   0.88170   0.54550   1.000
    H1810   H    0.11830   0.52070   0.54550   1.000
    H1811   H    0.47930   0.59760   0.54550   1.000
    H1812   H    0.88170   0.40240   0.95450   1.000
    H1813   H    0.52070   0.11830   0.95450   1.000
    H1814   H    0.59760   0.47930   0.95450   1.000
    H1815   H    0.26427   0.45163   0.78783   1.000
    H1816   H    0.54837   0.81263   0.78783   1.000
    H1817   H    0.18737   0.73573   0.78783   1.000
    H1818   H    0.78497   0.93093   0.37883   1.000
    H1819   H    0.14597   0.21503   0.37883   1.000
    H1820   H    0.06907   0.85403   0.37883   1.000
    H1821   H    0.06907   0.21503   0.87883   1.000
    H1822   H    0.78497   0.85403   0.87883   1.000
    H1823   H    0.14597   0.93093   0.87883   1.000
    H1824   H    0.54837   0.73573   0.28783   1.000
    H1825   H    0.18737   0.45163   0.28783   1.000
    H1826   H    0.26427   0.81263   0.28783   1.000
    H1827   H    0.93093   0.78497   0.12117   1.000
    H1828   H    0.21503   0.14597   0.12117   1.000
    H1829   H    0.85403   0.06907   0.12117   1.000
    H1830   H    0.45163   0.26427   0.71217   1.000
    H1831   H    0.81263   0.54837   0.71217   1.000
    H1832   H    0.73573   0.18737   0.71217   1.000
    H1833   H    0.73573   0.54837   0.21217   1.000
    H1834   H    0.45163   0.18737   0.21217   1.000
    H1835   H    0.81263   0.26427   0.21217   1.000
    H1836   H    0.21503   0.06907   0.62117   1.000
    H1837   H    0.85403   0.78497   0.62117   1.000
    H1838   H    0.93093   0.14597   0.62117   1.000
    C1839   C    0.07730   0.51420   0.03790   1.000
    C1840   C    0.43690   0.92270   0.03790   1.000
    C1841   C    0.48580   0.56310   0.03790   1.000
    C1842   C    0.48580   0.92270   0.53790   1.000
    C1843   C    0.07730   0.56310   0.53790   1.000
    C1844   C    0.43690   0.51420   0.53790   1.000
    C1845   C    0.92270   0.48580   0.96210   1.000
    C1846   C    0.56310   0.07730   0.96210   1.000
    C1847   C    0.51420   0.43690   0.96210   1.000
    C1848   C    0.18087   0.41063   0.79543   1.000
    C1849   C    0.58937   0.77023   0.79543   1.000
    C1850   C    0.22977   0.81913   0.79543   1.000
    C1851   C    0.74397   0.84753   0.37123   1.000
    C1852   C    0.10357   0.25603   0.37123   1.000
    C1853   C    0.15247   0.89643   0.37123   1.000
    C1854   C    0.15247   0.25603   0.87123   1.000
    C1855   C    0.74397   0.89643   0.87123   1.000
    C1856   C    0.10357   0.84753   0.87123   1.000
    C1857   C    0.58937   0.81913   0.29543   1.000
    C1858   C    0.22977   0.41063   0.29543   1.000
    C1859   C    0.18087   0.77023   0.29543   1.000
    C1860   C    0.84753   0.74397   0.12877   1.000
    C1861   C    0.25603   0.10357   0.12877   1.000
    C1862   C    0.89643   0.15247   0.12877   1.000
    C1863   C    0.41063   0.18087   0.70457   1.000
    C1864   C    0.77023   0.58937   0.70457   1.000
    C1865   C    0.81913   0.22977   0.70457   1.000
    C1866   C    0.81913   0.58937   0.20457   1.000
    C1867   C    0.41063   0.22977   0.20457   1.000
    C1868   C    0.77023   0.18087   0.20457   1.000
    C1869   C    0.25603   0.15247   0.62877   1.000
    C1870   C    0.89643   0.74397   0.62877   1.000
    C1871   C    0.84753   0.10357   0.62877   1.000
loop_
    _geom_bond_atom_site_label_1
    _geom_bond_atom_site_label_2
    _geom_bond_distance
    _geom_bond_site_symmetry_2
    _ccdc_geom_bond_type
    C862   C827      1.41245      .   S
    C862   C932      1.28209      .   S
    C862   H897      0.95170  1_554   S
    C861   C826      1.41245      .   S
    C861   C931      1.28209      .   S
    C861   H896      0.95170  1_554   S
    C860   C825      1.41245      .   S
    C860   C930      1.28209      .   S
    C860   H895      0.95170  1_554   S
    C825   C755      1.43713      .   S
    C827   C757      1.43713      .   S
    C826   C756      1.43713      .   S
    H889   C854      0.95170  1_554   S
    H890   C855      0.95170  1_554   S
    H891   C856      0.95170  1_554   S
    H965   C932      0.95056      .   S
    H964   C931      0.95056      .   S
    H963   C930      0.95056      .   S
    H790   C755      0.94932      .   S
    H791   C756      0.94932      .   S
    H792   C757      0.94932      .   S
    C930   C685      1.48748      .   S
    C932   C687      1.48748      .   S
    C931   C686      1.48748      .   S
    C757   C722      1.38515      .   S
    C756   C721      1.38515      .   S
    C755   C720      1.38515      .   S
    C721   C686      1.45249      .   S
    C721   N261      1.47250      .   S
    C720   C685      1.45249      .   S
    C720   N260      1.47250      .   S
    C722   C687      1.45249      .   S
    C722   N262      1.47250      .   S
    C686   C481      1.42151      .   S
    C685   C480      1.42151      .   S
    C687   C482      1.42151      .   S
    H227   N192      0.88291  1_545   S
    H226   N191      0.88291  1_655   S
    H225   N190      0.88291      .   S
    N191   C651      1.46906      .   S
    N191   C446      1.43139      .   S
    N192   C652      1.46906      .   S
    N192   C447      1.43139      .   S
    N190   C650      1.46906      .   S
    N190   C445      1.43139      .   S
    N260   C650      1.26439      .   S
    N260   H293      0.88080      .   S
    N261   C651      1.26439      .   S
    N261   H294      0.88080      .   S
    N262   C652      1.26439      .   S
    N262   H295      0.88080      .   S
    C481   C446      1.42467      .   S
    C481   C516      1.31172      .   S
    C482   C447      1.42467      .   S
    C482   C517      1.31172      .   S
    C480   C445      1.42467      .   S
    C480   C515      1.31172      .   S
    C650   O63       1.13307      .   S
    C651   O64       1.13307  1_455   S
    C652   O65       1.13307  1_565   S
    C445   C375      1.41715      .   S
    C447   C377      1.41715      .   S
    C446   C376      1.41715      .   S
    H551   C516      0.94698      .   S
    H550   C515      0.94698      .   S
    H552   C517      0.94698      .   S
    C515   C585      1.43040      .   S
    C516   C586      1.43040      .   S
    C517   C587      1.43040      .   S
    O138   C1841     1.14833      .   S
    O137   C1840     1.14833      .   S
    O136   C1839     1.14833      .   S
    C375   H410      0.95051      .   S
    C375   C331      1.37472      .   S
    C376   H411      0.95051  1_455   S
    C376   C332      1.37472      .   S
    C377   H412      0.95051  1_565   S
    C377   C333      1.37472      .   S
    H1220  C1185     0.94598      .   S
    H1221  C1186     0.94598      .   S
    H1222  C1187     0.94598      .   S
    C587   C333      1.44574      .   S
    C587   H617      0.94937      .   S
    C586   C332      1.44574      .   S
    C586   H616      0.94937      .   S
    C585   C331      1.44574      .   S
    C585   H615      0.94937      .   S
    C1841  N1703     1.49425      .   S
    C1841  N1773     1.46938      .   S
    C1840  N1702     1.49425      .   S
    C1840  N1772     1.46938      .   S
    C1839  N1701     1.49425      .   S
    C1839  N1771     1.46938      .   S
    C1186  C995      1.32211      .   S
    C1186  C1151     1.44525      .   S
    C1185  C994      1.32211      .   S
    C1185  C1150     1.44525      .   S
    C1187  C996      1.32211      .   S
    C1187  C1152     1.44525      .   S
    H1737  N1702     0.87878      .   S
    H1736  N1701     0.87878      .   S
    H1738  N1703     0.87878      .   S
    N1701  C1150     1.38928  1_455   S
    N1703  C1152     1.38928      .   S
    N1702  C1151     1.38928  1_565   S
    C995   C1030     1.38417      .   S
    C994   C1029     1.38417      .   S
    C996   C1031     1.38417      .   S
    H1807  N1772     0.87926      .   S
    H1808  N1773     0.87926      .   S
    H1806  N1771     0.87926      .   S
    N1773  C1500     1.36686      .   S
    N1772  C1499     1.36686      .   S
    N1771  C1498     1.36686      .   S
    C1150  C1115     1.31386      .   S
    C1151  C1116     1.31386      .   S
    C1152  C1117     1.31386      .   S
    C1029  H1065     0.95075      .   S
    C1029  C1062     1.43854      .   S
    C1030  H1066     0.95075      .   S
    C1030  C1063     1.43854      .   S
    C1031  H1067     0.95075      .   S
    C1031  C1064     1.43854      .   S
    C1117  C1064     1.38180      .   S
    C1117  C1257     1.41515      .   S
    C1116  C1063     1.38180      .   S
    C1116  C1256     1.41515  1_545   S
    C1115  C1062     1.38180      .   S
    C1115  C1255     1.41515  1_655   S
    C1498  C1255     1.41521      .   S
    C1498  C1430     1.33862      .   S
    C1499  C1256     1.41521      .   S
    C1499  C1431     1.33862      .   S
    C1500  C1257     1.41521      .   S
    C1500  C1432     1.33862      .   S
    C1062  N1526     1.44860      .   S
    C1063  N1527     1.44860      .   S
    C1064  N1528     1.44860      .   S
    H1467  C1432     0.94802      .   S
    H1466  C1431     0.94802      .   S
    H1465  C1430     0.94802      .   S
    C1257  C1292     1.43562      .   S
    C1256  C1291     1.43562      .   S
    C1255  C1290     1.43562      .   S
    C1430  C1395     1.37475      .   S
    C1431  C1396     1.37475      .   S
    C1432  C1397     1.37475      .   S
    O124   C1687     1.12166      .   S
    O125   C1688     1.12166      .   S
    O126   C1689     1.12166      .   S
    H1562  N1527     0.87778      .   S
    H1563  N1528     0.87778      .   S
    H1561  N1526     0.87778      .   S
    N1526  C1666     1.46454      .   S
    N1528  C1668     1.46454      .   S
    N1527  C1667     1.46454      .   S
    H1383  C1348     0.94808      .   S
    H1381  C1346     0.94808      .   S
    H1382  C1347     0.94808      .   S
    H1653  N1618     0.88301      .   S
    H1654  N1619     0.88301      .   S
    H1652  N1617     0.88301      .   S
    C1290  C1325     1.33681      .   S
    C1290  N1596     1.48041  1_455   S
    C1292  C1327     1.33681      .   S
    C1292  N1598     1.48041      .   S
    C1291  C1326     1.33681      .   S
    C1291  N1597     1.48041  1_565   S
    C1397  C1327     1.42566      .   S
    C1396  C1326     1.42566      .   S
    C1395  C1325     1.42566      .   S
    C1689  N1619     1.44487      .   S
    C1689  N1549     1.46454      .   S
    C1687  N1617     1.44487      .   S
    C1687  N1547     1.46454      .   S
    C1688  N1618     1.44487      .   S
    C1688  N1548     1.46454      .   S
    N1617  C1311     1.48041      .   S
    N1618  C1312     1.48041      .   S
    N1619  C1313     1.48041      .   S
    C1347  C1417     1.42566      .   S
    C1347  C1312     1.33681      .   S
    C1348  C1418     1.42566      .   S
    C1348  C1313     1.33681      .   S
    C1346  C1416     1.42566      .   S
    C1346  C1311     1.33681      .   S
    C1327  H1362     0.94808      .   S
    C1325  H1360     0.94808      .   S
    C1326  H1361     0.94808      .   S
    N1598  C1668     1.44487      .   S
    N1598  H1633     0.88301      .   S
    N1597  C1667     1.44487      .   S
    N1597  H1632     0.88301      .   S
    N1596  C1666     1.44487      .   S
    N1596  H1631     0.88301      .   S
    C1668  O105      1.12166      .   S
    C1667  O104      1.12166      .   S
    C1666  O103      1.12166      .   S
    C1416  C1451     1.37475      .   S
    C1417  C1452     1.37475      .   S
    C1418  C1453     1.37475      .   S
    C1311  C1276     1.43562      .   S
    C1313  C1278     1.43562      .   S
    C1312  C1277     1.43562      .   S
    N1549  H1584     0.87778      .   S
    N1549  C1103     1.44860      .   S
    N1548  H1583     0.87778      .   S
    N1548  C1102     1.44860      .   S
    N1547  H1582     0.87778      .   S
    N1547  C1101     1.44860      .   S
    C1451  H1486     0.94802      .   S
    C1451  C1519     1.33862      .   S
    C1452  H1487     0.94802      .   S
    C1452  C1520     1.33862      .   S
    C1453  H1488     0.94802      .   S
    C1453  C1521     1.33862      .   S
    C1278  C1521     1.41521      .   S
    C1278  C1138     1.41515      .   S
    C1277  C1520     1.41521      .   S
    C1277  C1137     1.41515      .   S
    C1276  C1519     1.41521      .   S
    C1276  C1136     1.41515      .   S
    C1102  C1137     1.38180      .   S
    C1102  C1051     1.43854      .   S
    C1103  C1138     1.38180      .   S
    C1103  C1052     1.43854      .   S
    C1101  C1136     1.38180      .   S
    C1101  C1050     1.43854      .   S
    C1521  N1794     1.36686      .   S
    C1520  N1793     1.36686      .   S
    C1519  N1792     1.36686      .   S
    H361   C1052     0.95075      .   S
    H360   C1051     0.95075      .   S
    H359   C1050     0.95075      .   S
    C1136  C1171     1.31386      .   S
    C1137  C1172     1.31386      .   S
    C1138  C1173     1.31386      .   S
    C1052  C1017     1.38417      .   S
    C1051  C1016     1.38417      .   S
    C1050  C1015     1.38417      .   S
    C1172  N1723     1.38928      .   S
    C1172  C1207     1.44525      .   S
    C1171  N1722     1.38928      .   S
    C1171  C1206     1.44525      .   S
    C1173  N1724     1.38928      .   S
    C1173  C1208     1.44525      .   S
    N1792  H1827     0.87926      .   S
    N1792  C1860     1.46938      .   S
    N1793  H1828     0.87926      .   S
    N1793  C1861     1.46938      .   S
    N1794  H1829     0.87926      .   S
    N1794  C1862     1.46938      .   S
    C1015  C1206     1.32211      .   S
    C1016  C1207     1.32211      .   S
    C1017  C1208     1.32211      .   S
    N1724  H1759     0.87878      .   S
    N1724  C1862     1.49425      .   S
    N1722  H1757     0.87878      .   S
    N1722  C1860     1.49425      .   S
    N1723  H1758     0.87878      .   S
    N1723  C1861     1.49425      .   S
    C1208  H1243     0.94598      .   S
    C1207  H1242     0.94598      .   S
    C1206  H1241     0.94598      .   S
    C1860  O157      1.14833      .   S
    C1861  O158      1.14833      .   S
    C1862  O159      1.14833      .   S
    H638   C178      0.94937      .   S
    H637   C177      0.94937      .   S
    H636   C176      0.94937      .   S
    C352   C176      1.44574      .   S
    C352   C396      1.37472      .   S
    C353   C177      1.44574      .   S
    C353   C397      1.37472      .   S
    C354   C178      1.44574      .   S
    C354   C398      1.37472      .   S
    H431   C396      0.95051      .   S
    H432   C397      0.95051      .   S
    H433   C398      0.95051      .   S
    C177   C537      1.43040      .   S
    C178   C538      1.43040      .   S
    C176   C536      1.43040      .   S
    C396   C466      1.41715      .   S
    C397   C467      1.41715      .   S
    C398   C468      1.41715      .   S
    C536   H571      0.94698      .   S
    C536   C501      1.31172      .   S
    C537   H572      0.94698      .   S
    C537   C502      1.31172      .   S
    C538   H573      0.94698      .   S
    C538   C503      1.31172      .   S
    H314   N281      0.88080  1_655   S
    H316   N283      0.88080  1_545   S
    H315   N282      0.88080      .   S
    C468   C503      1.42467      .   S
    C468   N213      1.43139      .   S
    C467   C502      1.42467      .   S
    C467   N212      1.43139      .   S
    C466   C501      1.42467      .   S
    C466   N211      1.43139      .   S
    O84    C671      1.13307  1_655   S
    O86    C673      1.13307  1_545   S
    O85    C672      1.13307      .   S
    C673   N283      1.26439      .   S
    C673   N213      1.46906      .   S
    C672   N282      1.26439      .   S
    C672   N212      1.46906      .   S
    C671   N281      1.26439      .   S
    C671   N211      1.46906      .   S
    C503   C708      1.42151      .   S
    C502   C707      1.42151      .   S
    C501   C706      1.42151      .   S
    N283   C743      1.47250      .   S
    N282   C742      1.47250      .   S
    N281   C741      1.47250      .   S
    N211   H246      0.88291      .   S
    N213   H248      0.88291      .   S
    N212   H247      0.88291      .   S
    C708   C743      1.45249      .   S
    C708   C953      1.48748      .   S
    C707   C742      1.45249      .   S
    C707   C952      1.48748      .   S
    C706   C741      1.45249      .   S
    C706   C951      1.48748      .   S
    C742   C777      1.38515      .   S
    C741   C776      1.38515      .   S
    C743   C778      1.38515      .   S
    C776   H811      0.94932  1_455   S
    C776   C846      1.43713      .   S
    C777   H812      0.94932      .   S
    C777   C847      1.43713      .   S
    C778   H813      0.94932  1_565   S
    C778   C848      1.43713      .   S
    C952   H985      0.95056      .   S
    C952   C882      1.28209      .   S
    C953   H986      0.95056      .   S
    C953   C883      1.28209      .   S
    C951   H984      0.95056      .   S
    C951   C881      1.28209      .   S
    H912   C877      0.95170      .   S
    H911   C876      0.95170      .   S
    H910   C875      0.95170      .   S
    C846   C881      1.41245      .   S
    C847   C882      1.41245      .   S
    C848   C883      1.41245      .   S
    C882   H917      0.95170      .   S
    C883   H918      0.95170      .   S
    C881   H916      0.95170      .   S
    C876   C841      1.41245      .   S
    C876   C946      1.28209      .   S
    C877   C842      1.41245      .   S
    C877   C947      1.28209      .   S
    C875   C840      1.41245      .   S
    C875   C945      1.28209      .   S
    C842   C772      1.43713      .   S
    C841   C771      1.43713      .   S
    C840   C770      1.43713      .   S
    H980   C947      0.95056      .   S
    H979   C946      0.95056      .   S
    H978   C945      0.95056      .   S
    H807   C772      0.94932      .   S
    H806   C771      0.94932      .   S
    H805   C770      0.94932      .   S
    C947   C702      1.48748      .   S
    C946   C701      1.48748      .   S
    C945   C700      1.48748      .   S
    C770   C735      1.38515      .   S
    C771   C736      1.38515      .   S
    C772   C737      1.38515      .   S
    C737   C702      1.45249      .   S
    C737   N277      1.47250      .   S
    C735   C700      1.45249      .   S
    C735   N275      1.47250      .   S
    C736   C701      1.45249      .   S
    C736   N276      1.47250      .   S
    C700   C495      1.42151  1_545   S
    C701   C496      1.42151  1_655   S
    C702   C497      1.42151      .   S
    H240   N205      0.88291      .   S
    H241   N206      0.88291      .   S
    H242   N207      0.88291      .   S
    N206   C666      1.46906  1_455   S
    N206   C461      1.43139      .   S
    N205   C665      1.46906  1_565   S
    N205   C460      1.43139      .   S
    N207   C667      1.46906      .   S
    N207   C462      1.43139      .   S
    N277   C667      1.26439      .   S
    N277   H310      0.88080      .   S
    N276   C666      1.26439      .   S
    N276   H309      0.88080      .   S
    N275   C665      1.26439      .   S
    N275   H308      0.88080      .   S
    C497   C462      1.42467      .   S
    C497   C532      1.31172      .   S
    C496   C461      1.42467      .   S
    C496   C531      1.31172      .   S
    C495   C460      1.42467      .   S
    C495   C530      1.31172      .   S
    C665   O78       1.13307      .   S
    C666   O79       1.13307      .   S
    C667   O80       1.13307      .   S
    C461   C391      1.41715      .   S
    C460   C390      1.41715      .   S
    C462   C392      1.41715      .   S
    H567   C532      0.94698      .   S
    H566   C531      0.94698      .   S
    H565   C530      0.94698      .   S
    C530   C170      1.43040      .   S
    C531   C171      1.43040      .   S
    C532   C172      1.43040      .   S
    O163   C1866     1.14833      .   S
    O164   C1867     1.14833      .   S
    O165   C1868     1.14833      .   S
    C390   H425      0.95051      .   S
    C390   C346      1.37472      .   S
    C392   H427      0.95051      .   S
    C392   C348      1.37472      .   S
    C391   H426      0.95051      .   S
    C391   C347      1.37472      .   S
    H1247  C1212     0.94598      .   S
    H1248  C1213     0.94598      .   S
    H1249  C1214     0.94598      .   S
    C171   C347      1.44574      .   S
    C171   H631      0.94937      .   S
    C170   C346      1.44574      .   S
    C170   H630      0.94937      .   S
    C172   C348      1.44574      .   S
    C172   H632      0.94937      .   S
    C1868  N1730     1.49425      .   S
    C1868  N1800     1.46938      .   S
    C1867  N1729     1.49425      .   S
    C1867  N1799     1.46938      .   S
    C1866  N1728     1.49425      .   S
    C1866  N1798     1.46938      .   S
    C1212  C1021     1.32211      .   S
    C1212  C1177     1.44525      .   S
    C1213  C1022     1.32211      .   S
    C1213  C1178     1.44525      .   S
    C1214  C1023     1.32211      .   S
    C1214  C1179     1.44525      .   S
    H1765  N1730     0.87878      .   S
    H1764  N1729     0.87878      .   S
    H1763  N1728     0.87878      .   S
    N1730  C1179     1.38928      .   S
    N1729  C1178     1.38928      .   S
    N1728  C1177     1.38928      .   S
    C1021  C1056     1.38417      .   S
    C1023  C1058     1.38417      .   S
    C1022  C1057     1.38417      .   S
    H1834  N1799     0.87926      .   S
    H1833  N1798     0.87926      .   S
    H1835  N1800     0.87926      .   S
    N1800  C599      1.36686      .   S
    N1798  C597      1.36686      .   S
    N1799  C598      1.36686      .   S
    C1179  C1144     1.31386      .   S
    C1178  C1143     1.31386      .   S
    C1177  C1142     1.31386      .   S
    C1056  H365      0.95075      .   S
    C1056  C1107     1.43854      .   S
    C1058  H367      0.95075      .   S
    C1058  C1109     1.43854      .   S
    C1057  H366      0.95075      .   S
    C1057  C1108     1.43854      .   S
    C1144  C1109     1.38180      .   S
    C1144  C1284     1.41515      .   S
    C1142  C1107     1.38180      .   S
    C1142  C1282     1.41515      .   S
    C1143  C1108     1.38180      .   S
    C1143  C1283     1.41515      .   S
    C598   C1283     1.41521      .   S
    C598   C1458     1.33862      .   S
    C597   C1282     1.41521      .   S
    C597   C1457     1.33862      .   S
    C599   C1284     1.41521      .   S
    C599   C1459     1.33862      .   S
    C1108  N1554     1.44860      .   S
    C1107  N1553     1.44860      .   S
    C1109  N1555     1.44860      .   S
    H1492  C1457     0.94802      .   S
    H1493  C1458     0.94802      .   S
    H1494  C1459     0.94802      .   S
    C1283  C1318     1.43562      .   S
    C1284  C1319     1.43562      .   S
    C1282  C1317     1.43562      .   S
    C1459  C1424     1.37475      .   S
    C1458  C1423     1.37475      .   S
    C1457  C1422     1.37475      .   S
    O123   C1686     1.12166      .   S
    O122   C1685     1.12166      .   S
    O121   C1684     1.12166      .   S
    H1590  N1555     0.87778      .   S
    H1589  N1554     0.87778      .   S
    H1588  N1553     0.87778      .   S
    N1554  C1694     1.46454      .   S
    N1553  C1693     1.46454      .   S
    N1555  C1695     1.46454      .   S
    H1380  C1345     0.94808      .   S
    H1379  C1344     0.94808      .   S
    H1378  C1343     0.94808      .   S
    H1651  N1616     0.88301      .   S
    H1650  N1615     0.88301      .   S
    H1649  N1614     0.88301      .   S
    C1319  C1354     1.33681      .   S
    C1319  N1625     1.48041      .   S
    C1317  C1352     1.33681      .   S
    C1317  N1623     1.48041      .   S
    C1318  C1353     1.33681      .   S
    C1318  N1624     1.48041      .   S
    C1423  C1353     1.42566      .   S
    C1424  C1354     1.42566      .   S
    C1422  C1352     1.42566      .   S
    C1686  N1616     1.44487      .   S
    C1686  N1546     1.46454      .   S
    C1685  N1615     1.44487      .   S
    C1685  N1545     1.46454      .   S
    C1684  N1614     1.44487      .   S
    C1684  N1544     1.46454      .   S
    N1615  C1309     1.48041      .   S
    N1616  C1310     1.48041      .   S
    N1614  C1308     1.48041      .   S
    C1343  C1413     1.42566      .   S
    C1343  C1308     1.33681      .   S
    C1345  C1415     1.42566      .   S
    C1345  C1310     1.33681      .   S
    C1344  C1414     1.42566      .   S
    C1344  C1309     1.33681      .   S
    C1352  H1387     0.94808      .   S
    C1354  H1389     0.94808      .   S
    C1353  H1388     0.94808      .   S
    N1623  C1693     1.44487      .   S
    N1623  H1658     0.88301      .   S
    N1624  C1694     1.44487      .   S
    N1624  H1659     0.88301      .   S
    N1625  C1695     1.44487      .   S
    N1625  H1660     0.88301      .   S
    C1695  O132      1.12166      .   S
    C1693  O130      1.12166      .   S
    C1694  O131      1.12166      .   S
    C1413  C1448     1.37475      .   S
    C1415  C1450     1.37475      .   S
    C1414  C1449     1.37475      .   S
    C1310  C1275     1.43562      .   S
    C1309  C1274     1.43562      .   S
    C1308  C1273     1.43562      .   S
    N1545  H1580     0.87778      .   S
    N1545  C1099     1.44860      .   S
    N1544  H1579     0.87778      .   S
    N1544  C1098     1.44860      .   S
    N1546  H1581     0.87778      .   S
    N1546  C1100     1.44860      .   S
    C1448  H1483     0.94802      .   S
    C1448  C1516     1.33862      .   S
    C1449  H1484     0.94802      .   S
    C1449  C1517     1.33862      .   S
    C1450  H1485     0.94802      .   S
    C1450  C1518     1.33862      .   S
    C1274  C1517     1.41521      .   S
    C1274  C1134     1.41515      .   S
    C1273  C1516     1.41521      .   S
    C1273  C1133     1.41515      .   S
    C1275  C1518     1.41521      .   S
    C1275  C1135     1.41515      .   S
    C1099  C1134     1.38180      .   S
    C1099  C1048     1.43854      .   S
    C1100  C1135     1.38180      .   S
    C1100  C1049     1.43854      .   S
    C1098  C1133     1.38180      .   S
    C1098  C1047     1.43854      .   S
    C1517  N1790     1.36686      .   S
    C1516  N1789     1.36686      .   S
    C1518  N1791     1.36686      .   S
    H358   C1049     0.95075      .   S
    H356   C1047     0.95075      .   S
    H357   C1048     0.95075      .   S
    C1134  C1169     1.31386      .   S
    C1133  C1168     1.31386      .   S
    C1135  C1170     1.31386      .   S
    C1047  C1012     1.38417      .   S
    C1048  C1013     1.38417      .   S
    C1049  C1014     1.38417      .   S
    C1170  N1721     1.38928      .   S
    C1170  C1205     1.44525      .   S
    C1169  N1720     1.38928      .   S
    C1169  C1204     1.44525      .   S
    C1168  N1719     1.38928      .   S
    C1168  C1203     1.44525      .   S
    N1789  H1824     0.87926      .   S
    N1789  C1857     1.46938      .   S
    N1791  H1826     0.87926      .   S
    N1791  C1859     1.46938      .   S
    N1790  H1825     0.87926      .   S
    N1790  C1858     1.46938      .   S
    C1014  C1205     1.32211      .   S
    C1012  C1203     1.32211      .   S
    C1013  C1204     1.32211      .   S
    N1719  H1754     0.87878      .   S
    N1719  C1857     1.49425      .   S
    N1720  H1755     0.87878      .   S
    N1720  C1858     1.49425      .   S
    N1721  H1756     0.87878      .   S
    N1721  C1859     1.49425      .   S
    C1205  H1240     0.94598      .   S
    C1204  H1239     0.94598      .   S
    C1203  H1238     0.94598      .   S
    C1857  O154      1.14833      .   S
    C1859  O156      1.14833      .   S
    C1858  O155      1.14833      .   S
    H621   C591      0.94937      .   S
    H622   C592      0.94937      .   S
    H623   C593      0.94937      .   S
    C339   C593      1.44574      .   S
    C339   C383      1.37472      .   S
    C338   C592      1.44574      .   S
    C338   C382      1.37472      .   S
    C337   C591      1.44574      .   S
    C337   C381      1.37472      .   S
    C592   C522      1.43040      .   S
    C591   C521      1.43040      .   S
    C593   C523      1.43040      .   S
    H418   C383      0.95051      .   S
    H417   C382      0.95051      .   S
    H416   C381      0.95051      .   S
    C383   C453      1.41715      .   S
    C382   C452      1.41715      .   S
    C381   C451      1.41715      .   S
    C523   H558      0.94698      .   S
    C523   C488      1.31172      .   S
    C522   H557      0.94698      .   S
    C522   C487      1.31172      .   S
    C521   H556      0.94698      .   S
    C521   C486      1.31172      .   S
    H301   N268      0.88080      .   S
    H299   N266      0.88080      .   S
    H300   N267      0.88080      .   S
    C451   C486      1.42467      .   S
    C451   N196      1.43139      .   S
    C452   C487      1.42467      .   S
    C452   N197      1.43139      .   S
    C453   C488      1.42467      .   S
    C453   N198      1.43139      .   S
    O69    C656      1.13307      .   S
    O71    C658      1.13307      .   S
    O70    C657      1.13307      .   S
    C658   N268      1.26439      .   S
    C658   N198      1.46906      .   S
    C657   N267      1.26439      .   S
    C657   N197      1.46906  1_565   S
    C656   N266      1.26439      .   S
    C656   N196      1.46906  1_455   S
    C487   C692      1.42151  1_545   S
    C486   C691      1.42151  1_655   S
    C488   C693      1.42151      .   S
    N268   C728      1.47250      .   S
    N267   C727      1.47250      .   S
    N266   C726      1.47250      .   S
    N196   H231      0.88291      .   S
    N197   H232      0.88291      .   S
    N198   H233      0.88291      .   S
    C691   C726      1.45249      .   S
    C691   C936      1.48748      .   S
    C692   C727      1.45249      .   S
    C692   C937      1.48748      .   S
    C693   C728      1.45249      .   S
    C693   C938      1.48748      .   S
    C728   C763      1.38515      .   S
    C727   C762      1.38515      .   S
    C726   C761      1.38515      .   S
    C762   H797      0.94932      .   S
    C762   C832      1.43713      .   S
    C763   H798      0.94932      .   S
    C763   C833      1.43713      .   S
    C761   H796      0.94932      .   S
    C761   C831      1.43713      .   S
    C938   H971      0.95056      .   S
    C938   C868      1.28209      .   S
    C937   H970      0.95056      .   S
    C937   C867      1.28209      .   S
    C936   H969      0.95056      .   S
    C936   C866      1.28209      .   S
    H907   C872      0.95170      .   S
    H908   C873      0.95170      .   S
    H909   C874      0.95170      .   S
    C831   C866      1.41245      .   S
    C832   C867      1.41245      .   S
    C833   C868      1.41245      .   S
    C866   H901      0.95170      .   S
    C867   H902      0.95170      .   S
    C868   H903      0.95170      .   S
    C873   C838      1.41245      .   S
    C873   C943      1.28209      .   S
    C872   C837      1.41245      .   S
    C872   C942      1.28209      .   S
    C874   C839      1.41245      .   S
    C874   C944      1.28209      .   S
    C839   C769      1.43713      .   S
    C837   C767      1.43713      .   S
    C838   C768      1.43713      .   S
    H975   C942      0.95056      .   S
    H977   C944      0.95056      .   S
    H976   C943      0.95056      .   S
    H802   C767      0.94932  1_565   S
    H803   C768      0.94932      .   S
    H804   C769      0.94932  1_455   S
    C942   C697      1.48748      .   S
    C943   C698      1.48748      .   S
    C944   C699      1.48748      .   S
    C768   C733      1.38515      .   S
    C769   C734      1.38515      .   S
    C767   C732      1.38515      .   S
    C734   C699      1.45249      .   S
    C734   N274      1.47250      .   S
    C733   C698      1.45249      .   S
    C733   N273      1.47250      .   S
    C732   C697      1.45249      .   S
    C732   N272      1.47250      .   S
    C697   C492      1.42151      .   S
    C698   C493      1.42151      .   S
    C699   C494      1.42151      .   S
    H238   N203      0.88291      .   S
    H237   N202      0.88291      .   S
    H239   N204      0.88291      .   S
    N203   C663      1.46906      .   S
    N203   C458      1.43139      .   S
    N204   C664      1.46906      .   S
    N204   C459      1.43139      .   S
    N202   C662      1.46906      .   S
    N202   C457      1.43139      .   S
    N273   C663      1.26439      .   S
    N273   H306      0.88080      .   S
    N272   C662      1.26439      .   S
    N272   H305      0.88080  1_545   S
    N274   C664      1.26439      .   S
    N274   H307      0.88080  1_655   S
    C493   C458      1.42467      .   S
    C493   C528      1.31172      .   S
    C492   C457      1.42467      .   S
    C492   C527      1.31172      .   S
    C494   C459      1.42467      .   S
    C494   C529      1.31172      .   S
    C664   O77       1.13307  1_655   S
    C662   O75       1.13307  1_545   S
    C663   O76       1.13307      .   S
    C459   C389      1.41715      .   S
    C458   C388      1.41715      .   S
    C457   C387      1.41715      .   S
    H562   C527      0.94698      .   S
    H564   C529      0.94698      .   S
    H563   C528      0.94698      .   S
    C527   C167      1.43040      .   S
    C529   C169      1.43040      .   S
    C528   C168      1.43040      .   S
    O150   C1853     1.14833      .   S
    O149   C1852     1.14833      .   S
    O148   C1851     1.14833      .   S
    C389   H424      0.95051      .   S
    C389   C345      1.37472      .   S
    C388   H423      0.95051      .   S
    C388   C344      1.37472      .   S
    C387   H422      0.95051      .   S
    C387   C343      1.37472      .   S
    H1233  C1198     0.94598      .   S
    H1232  C1197     0.94598      .   S
    H1234  C1199     0.94598      .   S
    C169   C345      1.44574      .   S
    C169   H629      0.94937      .   S
    C168   C344      1.44574      .   S
    C168   H628      0.94937      .   S
    C167   C343      1.44574      .   S
    C167   H627      0.94937      .   S
    C1852  N1714     1.49425      .   S
    C1852  N1784     1.46938      .   S
    C1853  N1715     1.49425      .   S
    C1853  N1785     1.46938      .   S
    C1851  N1713     1.49425      .   S
    C1851  N1783     1.46938      .   S
    C1197  C1006     1.32211      .   S
    C1197  C1162     1.44525      .   S
    C1199  C1008     1.32211      .   S
    C1199  C1164     1.44525      .   S
    C1198  C1007     1.32211      .   S
    C1198  C1163     1.44525      .   S
    H1748  N1713     0.87878      .   S
    H1749  N1714     0.87878      .   S
    H1750  N1715     0.87878      .   S
    N1715  C1164     1.38928      .   S
    N1714  C1163     1.38928      .   S
    N1713  C1162     1.38928      .   S
    C1008  C1043     1.38417      .   S
    C1007  C1042     1.38417      .   S
    C1006  C1041     1.38417      .   S
    H1819  N1784     0.87926      .   S
    H1820  N1785     0.87926      .   S
    H1818  N1783     0.87926      .   S
    N1784  C1511     1.36686      .   S
    N1785  C1512     1.36686      .   S
    N1783  C1510     1.36686      .   S
    C1163  C1128     1.31386      .   S
    C1162  C1127     1.31386      .   S
    C1164  C1129     1.31386      .   S
    C1042  H1078     0.95075      .   S
    C1042  C1093     1.43854      .   S
    C1041  H1077     0.95075      .   S
    C1041  C1092     1.43854      .   S
    C1043  H1079     0.95075      .   S
    C1043  C1094     1.43854      .   S
    C1128  C1093     1.38180      .   S
    C1128  C1268     1.41515      .   S
    C1127  C1092     1.38180      .   S
    C1127  C1267     1.41515      .   S
    C1129  C1094     1.38180      .   S
    C1129  C1269     1.41515      .   S
    C1511  C1268     1.41521      .   S
    C1511  C1443     1.33862      .   S
    C1510  C1267     1.41521      .   S
    C1510  C1442     1.33862      .   S
    C1512  C1269     1.41521      .   S
    C1512  C1444     1.33862      .   S
    C1094  N1540     1.44860      .   S
    C1093  N1539     1.44860      .   S
    C1092  N1538     1.44860      .   S
    H1479  C1444     0.94802      .   S
    H1478  C1443     0.94802      .   S
    H1477  C1442     0.94802      .   S
    C1269  C1304     1.43562      .   S
    C1268  C1303     1.43562      .   S
    C1267  C1302     1.43562      .   S
    C1442  C1407     1.37475      .   S
    C1444  C1409     1.37475      .   S
    C1443  C1408     1.37475      .   S
    O4     C18       1.12166      .   S
    O99    C1629     1.12166      .   S
    O100   C1630     1.12166      .   S
    H1575  N1540     0.87778      .   S
    H1573  N1538     0.87778      .   S
    H1574  N1539     0.87778      .   S
    N1538  C1678     1.46454      .   S
    N1539  C1679     1.46454      .   S
    N1540  C1680     1.46454      .   S
    H38    C37       0.94808      .   S
    H1324  C1289     0.94808      .   S
    H1323  C1288     0.94808      .   S
    H1595  N1560     0.88301      .   S
    H46    N45       0.88301      .   S
    H1594  N1559     0.88301      .   S
    C1304  C1339     1.33681      .   S
    C1304  N1610     1.48041      .   S
    C1302  C1337     1.33681      .   S
    C1302  N1608     1.48041      .   S
    C1303  C1338     1.33681      .   S
    C1303  N1609     1.48041      .   S
    C1409  C1339     1.42566      .   S
    C1407  C1337     1.42566      .   S
    C1408  C1338     1.42566      .   S
    C18    N45       1.44487      .   S
    C18    N43       1.46454      .   S
    C1629  N1559     1.44487      .   S
    C1629  N603      1.46454      .   S
    C1630  N1560     1.44487      .   S
    C1630  N604      1.46454      .   S
    N1560  C1254     1.48041      .   S
    N1559  C1253     1.48041  1_455   S
    N45    C36       1.48041  1_565   S
    C37    C39       1.42566      .   S
    C37    C36       1.33681      .   S
    C1288  C1358     1.42566      .   S
    C1288  C1253     1.33681      .   S
    C1289  C1359     1.42566      .   S
    C1289  C1254     1.33681      .   S
    C1337  H1372     0.94808      .   S
    C1338  H1373     0.94808      .   S
    C1339  H1374     0.94808      .   S
    N1608  C1678     1.44487      .   S
    N1608  H1643     0.88301      .   S
    N1609  C1679     1.44487      .   S
    N1609  H1644     0.88301      .   S
    N1610  C1680     1.44487      .   S
    N1610  H1645     0.88301      .   S
    C1680  O117      1.12166      .   S
    C1679  O116      1.12166      .   S
    C1678  O115      1.12166      .   S
    C39    C40       1.37475      .   S
    C1359  C1394     1.37475      .   S
    C1358  C1393     1.37475      .   S
    C36    C35       1.43562      .   S
    C1253  C1218     1.43562      .   S
    C1254  C1219     1.43562      .   S
    N603   H1524     0.87778      .   S
    N603   C373      1.44860      .   S
    N604   H1525     0.87778      .   S
    N604   C374      1.44860      .   S
    N43    H44       0.87778      .   S
    N43    C30       1.44860      .   S
    C1394  H1429     0.94802      .   S
    C1394  C1464     1.33862      .   S
    C1393  H1428     0.94802      .   S
    C1393  C1463     1.33862      .   S
    C40    H41       0.94802      .   S
    C40    C42       1.33862      .   S
    C1218  C1463     1.41521      .   S
    C1218  C371      1.41515  1_655   S
    C1219  C1464     1.41521      .   S
    C1219  C372      1.41515      .   S
    C35    C42       1.41521      .   S
    C35    C31       1.41515  1_545   S
    C30    C31       1.38180      .   S
    C30    C28       1.43854      .   S
    C373   C371      1.38180      .   S
    C373   C992      1.43854      .   S
    C374   C372      1.38180      .   S
    C374   C993      1.43854      .   S
    C1464  N1735     1.36686      .   S
    C42    N49       1.36686      .   S
    C1463  N1734     1.36686      .   S
    H29    C28       0.95075      .   S
    H1028  C993      0.95075      .   S
    H1027  C992      0.95075      .   S
    C371   C1113     1.31386      .   S
    C31    C32       1.31386      .   S
    C372   C1114     1.31386      .   S
    C992   C990      1.38417      .   S
    C993   C991      1.38417      .   S
    C28    C27       1.38417      .   S
    C1113  N1664     1.38928  1_455   S
    C1113  C1148     1.44525      .   S
    C1114  N1665     1.38928      .   S
    C1114  C1149     1.44525      .   S
    C32    N47       1.38928  1_565   S
    C32    C33       1.44525      .   S
    N1734  H1769     0.87926      .   S
    N1734  C1804     1.46938      .   S
    N1735  H1770     0.87926      .   S
    N1735  C1805     1.46938      .   S
    N49    H50       0.87926      .   S
    N49    C51       1.46938      .   S
    C991   C1149     1.32211      .   S
    C27    C33       1.32211      .   S
    C990   C1148     1.32211      .   S
    N47    H48       0.87878      .   S
    N47    C51       1.49425      .   S
    N1664  H1699     0.87878      .   S
    N1664  C1804     1.49425      .   S
    N1665  H1700     0.87878      .   S
    N1665  C1805     1.49425      .   S
    C33    H34       0.94598      .   S
    C1149  H1184     0.94598      .   S
    C1148  H1183     0.94598      .   S
    C51    O5        1.14833      .   S
    C1804  O101      1.14833      .   S
    C1805  O102      1.14833      .   S
    H614   C584      0.94937      .   S
    H613   C583      0.94937      .   S
    H612   C582      0.94937      .   S
    C328   C582      1.44574      .   S
    C328   C322      1.37472      .   S
    C330   C584      1.44574      .   S
    C330   C324      1.37472      .   S
    C329   C583      1.44574      .   S
    C329   C323      1.37472      .   S
    H408   C323      0.95051  1_565   S
    H407   C322      0.95051      .   S
    C584   C514      1.43040      .   S
    C582   C512      1.43040      .   S
    C583   C513      1.43040      .   S
    H409   C324      0.95051  1_455   S
    C322   C442      1.41715      .   S
    C324   C444      1.41715      .   S
    C323   C443      1.41715      .   S
    C514   H549      0.94698      .   S
    C514   C479      1.31172      .   S
    C512   H547      0.94698      .   S
    C512   C477      1.31172      .   S
    C513   H548      0.94698      .   S
    C513   C478      1.31172      .   S
    H290   N257      0.88080      .   S
    H291   N258      0.88080      .   S
    H292   N259      0.88080      .   S
    C442   C477      1.42467      .   S
    C442   N187      1.43139      .   S
    C443   C478      1.42467      .   S
    C443   N188      1.43139      .   S
    C444   C479      1.42467      .   S
    C444   N189      1.43139      .   S
    O60    C647      1.13307      .   S
    O61    C648      1.13307  1_565   S
    O62    C649      1.13307  1_455   S
    C649   N259      1.26439      .   S
    C649   N189      1.46906      .   S
    C648   N258      1.26439      .   S
    C648   N188      1.46906      .   S
    C647   N257      1.26439      .   S
    C647   N187      1.46906      .   S
    C479   C684      1.42151      .   S
    C477   C682      1.42151      .   S
    C478   C683      1.42151      .   S
    N257   C717      1.47250      .   S
    N259   C719      1.47250      .   S
    N258   C718      1.47250      .   S
    N189   H224      0.88291  1_655   S
    N188   H223      0.88291  1_545   S
    N187   H222      0.88291      .   S
    C684   C719      1.45249      .   S
    C684   C929      1.48748      .   S
    C683   C718      1.45249      .   S
    C683   C928      1.48748      .   S
    C682   C717      1.45249      .   S
    C682   C927      1.48748      .   S
    C719   C754      1.38515      .   S
    C717   C752      1.38515      .   S
    C718   C753      1.38515      .   S
    C752   H787      0.94932      .   S
    C752   C822      1.43713      .   S
    C753   H788      0.94932      .   S
    C753   C823      1.43713      .   S
    C754   H789      0.94932      .   S
    C754   C824      1.43713      .   S
    C928   H961      0.95056      .   S
    C928   C858      1.28209      .   S
    C929   H962      0.95056      .   S
    C929   C859      1.28209      .   S
    C927   H960      0.95056      .   S
    C927   C857      1.28209      .   S
    H853   C818      0.95170      .   S
    H852   C817      0.95170      .   S
    H24    C23       0.95170      .   S
    C824   C859      1.41245      .   S
    C823   C858      1.41245      .   S
    C822   C857      1.41245      .   S
    C859   H894      0.95170      .   S
    C858   H893      0.95170      .   S
    C857   H892      0.95170      .   S
    C818   C783      1.41245      .   S
    C818   C888      1.28209      .   S
    C817   C782      1.41245      .   S
    C817   C887      1.28209      .   S
    C23    C22       1.41245      .   S
    C23    C25       1.28209      .   S
    C22    C20       1.43713      .   S
    C782   C712      1.43713      .   S
    C783   C713      1.43713      .   S
    H26    C25       0.95056      .   S
    H922   C887      0.95056      .   S
    H923   C888      0.95056      .   S
    H21    C20       0.94932      .   S
    H747   C712      0.94932      .   S
    H748   C713      0.94932      .   S
    C25    C0        1.48748      .   S
    C887   C642      1.48748      .   S
    C888   C643      1.48748      .   S
    C20    C19       1.38515      .   S
    C712   C677      1.38515      .   S
    C713   C678      1.38515      .   S
    C19    C0        1.45249      .   S
    C19    N6        1.47250      .   S
    C677   C642      1.45249      .   S
    C677   N217      1.47250      .   S
    C678   C643      1.45249      .   S
    C678   N218      1.47250      .   S
    C0     C12       1.42151      .   S
    C642   C437      1.42151      .   S
    C643   C438      1.42151      .   S
    H182   N180      0.88291  1_545   S
    H183   N181      0.88291  1_655   S
    H2     N1        0.88291      .   S
    N180   C607      1.46906      .   S
    N180   C402      1.43139      .   S
    N1     C17       1.46906      .   S
    N1     C11       1.43139      .   S
    N181   C608      1.46906      .   S
    N181   C403      1.43139      .   S
    N6     C17       1.26439      .   S
    N6     H7        0.88080      .   S
    N217   C607      1.26439      .   S
    N217   H252      0.88080      .   S
    N218   C608      1.26439      .   S
    N218   H253      0.88080      .   S
    C12    C11       1.42467      .   S
    C12    C13       1.31172      .   S
    C437   C402      1.42467      .   S
    C437   C472      1.31172      .   S
    C438   C403      1.42467      .   S
    C438   C473      1.31172      .   S
    C17    O3        1.13307      .   S
    C608   O53       1.13307  1_455   S
    C607   O52       1.13307  1_565   S
    C402   C94       1.41715      .   S
    C403   C95       1.41715      .   S
    C11    C9        1.41715      .   S
    H14    C13       0.94698      .   S
    H508   C473      0.94698      .   S
    H507   C472      0.94698      .   S
    C473   C543      1.43040      .   S
    C472   C542      1.43040      .   S
    C13    C15       1.43040      .   S
    O139   C1842     1.14833      .   S
    O140   C1843     1.14833      .   S
    O141   C1844     1.14833      .   S
    C9     H10       0.95051      .   S
    C9     C8        1.37472      .   S
    C94    H92       0.95051  1_565   S
    C94    C320      1.37472      .   S
    C95    H93       0.95051  1_455   S
    C95    C321      1.37472      .   S
    H1225  C1190     0.94598      .   S
    H1223  C1188     0.94598      .   S
    H1224  C1189     0.94598      .   S
    C543   C321      1.44574      .   S
    C543   H578      0.94937      .   S
    C542   C320      1.44574      .   S
    C542   H577      0.94937      .   S
    C15    C8        1.44574      .   S
    C15    H16       0.94937      .   S
    C1842  N1704     1.49425      .   S
    C1842  N1774     1.46938      .   S
    C1843  N1705     1.49425      .   S
    C1843  N1775     1.46938      .   S
    C1844  N1706     1.49425      .   S
    C1844  N1776     1.46938      .   S
    C1188  C997      1.32211      .   S
    C1188  C1153     1.44525      .   S
    C1189  C998      1.32211      .   S
    C1189  C1154     1.44525      .   S
    C1190  C999      1.32211      .   S
    C1190  C1155     1.44525      .   S
    H1740  N1705     0.87878      .   S
    H1739  N1704     0.87878      .   S
    H1741  N1706     0.87878      .   S
    N1705  C1154     1.38928  1_455   S
    N1704  C1153     1.38928  1_565   S
    N1706  C1155     1.38928      .   S
    C998   C1033     1.38417      .   S
    C997   C1032     1.38417      .   S
    C999   C1034     1.38417      .   S
    H1810  N1775     0.87926      .   S
    H1809  N1774     0.87926      .   S
    H1811  N1776     0.87926      .   S
    N1775  C1502     1.36686      .   S
    N1776  C1503     1.36686      .   S
    N1774  C1501     1.36686      .   S
    C1154  C1119     1.31386      .   S
    C1155  C1120     1.31386      .   S
    C1153  C1118     1.31386      .   S
    C1032  H1068     0.95075      .   S
    C1032  C1083     1.43854      .   S
    C1033  H1069     0.95075      .   S
    C1033  C1084     1.43854      .   S
    C1034  H1070     0.95075      .   S
    C1034  C1085     1.43854      .   S
    C1120  C1085     1.38180      .   S
    C1120  C1260     1.41515      .   S
    C1119  C1084     1.38180      .   S
    C1119  C1259     1.41515  1_655   S
    C1118  C1083     1.38180      .   S
    C1118  C1258     1.41515  1_545   S
    C1501  C1258     1.41521      .   S
    C1501  C1433     1.33862      .   S
    C1502  C1259     1.41521      .   S
    C1502  C1434     1.33862      .   S
    C1503  C1260     1.41521      .   S
    C1503  C1435     1.33862      .   S
    C1083  N1529     1.44860      .   S
    C1084  N1530     1.44860      .   S
    C1085  N1531     1.44860      .   S
    H1468  C1433     0.94802      .   S
    H1469  C1434     0.94802      .   S
    H1470  C1435     0.94802      .   S
    C1260  C1295     1.43562      .   S
    C1259  C1294     1.43562      .   S
    C1258  C1293     1.43562      .   S
    C1435  C1400     1.37475      .   S
    C1434  C1399     1.37475      .   S
    C1433  C1398     1.37475      .   S
    O133   C1696     1.12166      .   S
    O134   C1697     1.12166      .   S
    O135   C1698     1.12166      .   S
    H1564  N1529     0.87778      .   S
    H1565  N1530     0.87778      .   S
    H1566  N1531     0.87778      .   S
    N1531  C1671     1.46454      .   S
    N1530  C1670     1.46454      .   S
    N1529  C1669     1.46454      .   S
    H1392  C1357     0.94808      .   S
    H1391  C1356     0.94808      .   S
    H1390  C1355     0.94808      .   S
    H1663  N1628     0.88301      .   S
    H1662  N1627     0.88301      .   S
    H1661  N1626     0.88301      .   S
    C1295  C1330     1.33681      .   S
    C1295  N1601     1.48041      .   S
    C1293  C1328     1.33681      .   S
    C1293  N1599     1.48041  1_565   S
    C1294  C1329     1.33681      .   S
    C1294  N1600     1.48041  1_455   S
    C1398  C1328     1.42566      .   S
    C1399  C1329     1.42566      .   S
    C1400  C1330     1.42566      .   S
    C1698  N1628     1.44487      .   S
    C1698  N1558     1.46454      .   S
    C1696  N1626     1.44487      .   S
    C1696  N1556     1.46454      .   S
    C1697  N1627     1.44487      .   S
    C1697  N1557     1.46454      .   S
    N1628  C1322     1.48041      .   S
    N1627  C1321     1.48041      .   S
    N1626  C1320     1.48041      .   S
    C1357  C1427     1.42566      .   S
    C1357  C1322     1.33681      .   S
    C1356  C1426     1.42566      .   S
    C1356  C1321     1.33681      .   S
    C1355  C1425     1.42566      .   S
    C1355  C1320     1.33681      .   S
    C1330  H1365     0.94808      .   S
    C1329  H1364     0.94808      .   S
    C1328  H1363     0.94808      .   S
    N1601  C1671     1.44487      .   S
    N1601  H1636     0.88301      .   S
    N1599  C1669     1.44487      .   S
    N1599  H1634     0.88301      .   S
    N1600  C1670     1.44487      .   S
    N1600  H1635     0.88301      .   S
    C1671  O108      1.12166      .   S
    C1669  O106      1.12166      .   S
    C1670  O107      1.12166      .   S
    C1426  C1461     1.37475      .   S
    C1427  C1462     1.37475      .   S
    C1425  C1460     1.37475      .   S
    C1320  C1285     1.43562      .   S
    C1322  C1287     1.43562      .   S
    C1321  C1286     1.43562      .   S
    N1558  H1593     0.87778      .   S
    N1558  C1112     1.44860      .   S
    N1557  H1592     0.87778      .   S
    N1557  C1111     1.44860      .   S
    N1556  H1591     0.87778      .   S
    N1556  C1110     1.44860      .   S
    C1460  H1495     0.94802      .   S
    C1460  C600      1.33862      .   S
    C1461  H1496     0.94802      .   S
    C1461  C601      1.33862      .   S
    C1462  H1497     0.94802      .   S
    C1462  C602      1.33862      .   S
    C1287  C602      1.41521      .   S
    C1287  C1147     1.41515      .   S
    C1285  C600      1.41521      .   S
    C1285  C1145     1.41515      .   S
    C1286  C601      1.41521      .   S
    C1286  C1146     1.41515      .   S
    C1110  C1145     1.38180      .   S
    C1110  C1059     1.43854      .   S
    C1111  C1146     1.38180      .   S
    C1111  C1060     1.43854      .   S
    C1112  C1147     1.38180      .   S
    C1112  C1061     1.43854      .   S
    C602   N1803     1.36686      .   S
    C601   N1802     1.36686      .   S
    C600   N1801     1.36686      .   S
    H368   C1059     0.95075      .   S
    H369   C1060     0.95075      .   S
    H370   C1061     0.95075      .   S
    C1147  C1182     1.31386      .   S
    C1146  C1181     1.31386      .   S
    C1145  C1180     1.31386      .   S
    C1061  C1026     1.38417      .   S
    C1059  C1024     1.38417      .   S
    C1060  C1025     1.38417      .   S
    C1181  N1732     1.38928      .   S
    C1181  C1216     1.44525      .   S
    C1180  N1731     1.38928      .   S
    C1180  C1215     1.44525      .   S
    C1182  N1733     1.38928      .   S
    C1182  C1217     1.44525      .   S
    N1801  H1836     0.87926      .   S
    N1801  C1869     1.46938      .   S
    N1802  H1837     0.87926      .   S
    N1802  C1870     1.46938      .   S
    N1803  H1838     0.87926      .   S
    N1803  C1871     1.46938      .   S
    C1024  C1215     1.32211      .   S
    C1025  C1216     1.32211      .   S
    C1026  C1217     1.32211      .   S
    N1733  H1768     0.87878      .   S
    N1733  C1871     1.49425      .   S
    N1732  H1767     0.87878      .   S
    N1732  C1870     1.49425      .   S
    N1731  H1766     0.87878      .   S
    N1731  C1869     1.49425      .   S
    C1215  H1250     0.94598      .   S
    C1216  H1251     0.94598      .   S
    C1217  H1252     0.94598      .   S
    C1871  O56       1.14833      .   S
    C1870  O55       1.14833      .   S
    C1869  O54       1.14833      .   S
    H633   C173      0.94937      .   S
    H634   C174      0.94937      .   S
    H635   C175      0.94937      .   S
    C349   C173      1.44574      .   S
    C349   C393      1.37472      .   S
    C350   C174      1.44574      .   S
    C350   C394      1.37472      .   S
    C351   C175      1.44574      .   S
    C351   C395      1.37472      .   S
    C175   C535      1.43040      .   S
    C173   C533      1.43040      .   S
    C174   C534      1.43040      .   S
    H428   C393      0.95051      .   S
    H429   C394      0.95051      .   S
    H430   C395      0.95051      .   S
    C393   C463      1.41715      .   S
    C394   C464      1.41715      .   S
    C395   C465      1.41715      .   S
    C535   H570      0.94698      .   S
    C535   C500      1.31172      .   S
    C534   H569      0.94698      .   S
    C534   C499      1.31172      .   S
    C533   H568      0.94698      .   S
    C533   C498      1.31172      .   S
    H311   N278      0.88080  1_545   S
    H313   N280      0.88080  1_655   S
    H312   N279      0.88080      .   S
    C464   C499      1.42467      .   S
    C464   N209      1.43139      .   S
    C465   C500      1.42467      .   S
    C465   N210      1.43139      .   S
    C463   C498      1.42467      .   S
    C463   N208      1.43139      .   S
    O83    C670      1.13307  1_655   S
    O82    C669      1.13307      .   S
    O81    C668      1.13307  1_545   S
    C668   N278      1.26439      .   S
    C668   N208      1.46906      .   S
    C670   N280      1.26439      .   S
    C670   N210      1.46906      .   S
    C669   N279      1.26439      .   S
    C669   N209      1.46906      .   S
    C500   C705      1.42151      .   S
    C498   C703      1.42151      .   S
    C499   C704      1.42151      .   S
    N278   C738      1.47250      .   S
    N280   C740      1.47250      .   S
    N279   C739      1.47250      .   S
    N210   H245      0.88291      .   S
    N209   H244      0.88291      .   S
    N208   H243      0.88291      .   S
    C705   C740      1.45249      .   S
    C705   C950      1.48748      .   S
    C704   C739      1.45249      .   S
    C704   C949      1.48748      .   S
    C703   C738      1.45249      .   S
    C703   C948      1.48748      .   S
    C738   C773      1.38515      .   S
    C739   C774      1.38515      .   S
    C740   C775      1.38515      .   S
    C775   H810      0.94932  1_455   S
    C775   C845      1.43713      .   S
    C774   H809      0.94932      .   S
    C774   C844      1.43713      .   S
    C773   H808      0.94932  1_565   S
    C773   C843      1.43713      .   S
    C950   H983      0.95056      .   S
    C950   C880      1.28209      .   S
    C949   H982      0.95056      .   S
    C949   C879      1.28209      .   S
    C948   H981      0.95056      .   S
    C948   C878      1.28209      .   S
    H921   C886      0.95170      .   S
    H920   C885      0.95170      .   S
    H919   C884      0.95170      .   S
    C843   C878      1.41245      .   S
    C845   C880      1.41245      .   S
    C844   C879      1.41245      .   S
    C880   H915      0.95170      .   S
    C879   H914      0.95170      .   S
    C878   H913      0.95170      .   S
    C886   C851      1.41245      .   S
    C886   C956      1.28209      .   S
    C884   C849      1.41245      .   S
    C884   C954      1.28209      .   S
    C885   C850      1.41245      .   S
    C885   C955      1.28209      .   S
    C851   C781      1.43713      .   S
    C849   C779      1.43713      .   S
    C850   C780      1.43713      .   S
    H989   C956      0.95056      .   S
    H987   C954      0.95056      .   S
    H988   C955      0.95056      .   S
    H816   C781      0.94932      .   S
    H815   C780      0.94932      .   S
    H814   C779      0.94932      .   S
    C956   C711      1.48748      .   S
    C955   C710      1.48748      .   S
    C954   C709      1.48748      .   S
    C779   C744      1.38515      .   S
    C780   C745      1.38515      .   S
    C781   C746      1.38515      .   S
    C746   C711      1.45249      .   S
    C746   N286      1.47250      .   S
    C744   C709      1.45249      .   S
    C744   N284      1.47250      .   S
    C745   C710      1.45249      .   S
    C745   N285      1.47250      .   S
    C709   C504      1.42151  1_655   S
    C710   C505      1.42151  1_545   S
    C711   C506      1.42151      .   S
    H251   N216      0.88291      .   S
    H250   N215      0.88291      .   S
    H249   N214      0.88291      .   S
    N216   C676      1.46906      .   S
    N216   C471      1.43139      .   S
    N215   C675      1.46906  1_565   S
    N215   C470      1.43139      .   S
    N214   C674      1.46906  1_455   S
    N214   C469      1.43139      .   S
    N285   C675      1.26439      .   S
    N285   H318      0.88080      .   S
    N284   C674      1.26439      .   S
    N284   H317      0.88080      .   S
    N286   C676      1.26439      .   S
    N286   H319      0.88080      .   S
    C504   C469      1.42467      .   S
    C504   C539      1.31172      .   S
    C505   C470      1.42467      .   S
    C505   C540      1.31172      .   S
    C506   C471      1.42467      .   S
    C506   C541      1.31172      .   S
    C676   O89       1.13307      .   S
    C674   O87       1.13307      .   S
    C675   O88       1.13307      .   S
    C471   C401      1.41715      .   S
    C470   C400      1.41715      .   S
    C469   C399      1.41715      .   S
    H576   C541      0.94698      .   S
    H575   C540      0.94698      .   S
    H574   C539      0.94698      .   S
    C539   C179      1.43040      .   S
    C540   C605      1.43040      .   S
    C541   C606      1.43040      .   S
    O162   C1865     1.14833      .   S
    O161   C1864     1.14833      .   S
    O160   C1863     1.14833      .   S
    C399   H434      0.95051      .   S
    C399   C355      1.37472      .   S
    C401   H436      0.95051      .   S
    C401   C91       1.37472      .   S
    C400   H435      0.95051      .   S
    C400   C90       1.37472      .   S
    H1246  C1211     0.94598      .   S
    H1245  C1210     0.94598      .   S
    H1244  C1209     0.94598      .   S
    C606   C91       1.44574      .   S
    C606   H641      0.94937      .   S
    C605   C90       1.44574      .   S
    C605   H640      0.94937      .   S
    C179   C355      1.44574      .   S
    C179   H639      0.94937      .   S
    C1864  N1726     1.49425      .   S
    C1864  N1796     1.46938      .   S
    C1863  N1725     1.49425      .   S
    C1863  N1795     1.46938      .   S
    C1865  N1727     1.49425      .   S
    C1865  N1797     1.46938      .   S
    C1209  C1018     1.32211      .   S
    C1209  C1174     1.44525      .   S
    C1210  C1019     1.32211      .   S
    C1210  C1175     1.44525      .   S
    C1211  C1020     1.32211      .   S
    C1211  C1176     1.44525      .   S
    H1760  N1725     0.87878      .   S
    H1761  N1726     0.87878      .   S
    H1762  N1727     0.87878      .   S
    N1726  C1175     1.38928      .   S
    N1725  C1174     1.38928      .   S
    N1727  C1176     1.38928      .   S
    C1019  C1054     1.38417      .   S
    C1020  C1055     1.38417      .   S
    C1018  C1053     1.38417      .   S
    H1830  N1795     0.87926      .   S
    H1832  N1797     0.87926      .   S
    H1831  N1796     0.87926      .   S
    N1795  C1522     1.36686      .   S
    N1796  C1523     1.36686      .   S
    N1797  C596      1.36686      .   S
    C1175  C1140     1.31386      .   S
    C1174  C1139     1.31386      .   S
    C1176  C1141     1.31386      .   S
    C1053  H362      0.95075      .   S
    C1053  C1104     1.43854      .   S
    C1055  H364      0.95075      .   S
    C1055  C1106     1.43854      .   S
    C1054  H363      0.95075      .   S
    C1054  C1105     1.43854      .   S
    C1140  C1105     1.38180      .   S
    C1140  C1280     1.41515      .   S
    C1139  C1104     1.38180      .   S
    C1139  C1279     1.41515      .   S
    C1141  C1106     1.38180      .   S
    C1141  C1281     1.41515      .   S
    C1522  C1279     1.41521      .   S
    C1522  C1454     1.33862      .   S
    C596   C1281     1.41521      .   S
    C596   C1456     1.33862      .   S
    C1523  C1280     1.41521      .   S
    C1523  C1455     1.33862      .   S
    C1106  N1552     1.44860      .   S
    C1105  N1551     1.44860      .   S
    C1104  N1550     1.44860      .   S
    H1489  C1454     0.94802      .   S
    H1491  C1456     0.94802      .   S
    H1490  C1455     0.94802      .   S
    C1280  C1315     1.43562      .   S
    C1279  C1314     1.43562      .   S
    C1281  C1316     1.43562      .   S
    C1456  C1421     1.37475      .   S
    C1455  C1420     1.37475      .   S
    C1454  C1419     1.37475      .   S
    O113   C1676     1.12166      .   S
    O112   C1675     1.12166      .   S
    O114   C1677     1.12166      .   S
    H1585  N1550     0.87778      .   S
    H1586  N1551     0.87778      .   S
    H1587  N1552     0.87778      .   S
    N1551  C1691     1.46454      .   S
    N1550  C1690     1.46454      .   S
    N1552  C1692     1.46454      .   S
    H1369  C1334     0.94808      .   S
    H1370  C1335     0.94808      .   S
    H1371  C1336     0.94808      .   S
    H1640  N1605     0.88301      .   S
    H1641  N1606     0.88301      .   S
    H1642  N1607     0.88301      .   S
    C1316  C1351     1.33681      .   S
    C1316  N1622     1.48041      .   S
    C1314  C1349     1.33681      .   S
    C1314  N1620     1.48041      .   S
    C1315  C1350     1.33681      .   S
    C1315  N1621     1.48041      .   S
    C1421  C1351     1.42566      .   S
    C1420  C1350     1.42566      .   S
    C1419  C1349     1.42566      .   S
    C1676  N1606     1.44487      .   S
    C1676  N1536     1.46454      .   S
    C1675  N1605     1.44487      .   S
    C1675  N1535     1.46454      .   S
    C1677  N1607     1.44487      .   S
    C1677  N1537     1.46454      .   S
    N1605  C1299     1.48041      .   S
    N1606  C1300     1.48041      .   S
    N1607  C1301     1.48041      .   S
    C1336  C1406     1.42566      .   S
    C1336  C1301     1.33681      .   S
    C1334  C1404     1.42566      .   S
    C1334  C1299     1.33681      .   S
    C1335  C1405     1.42566      .   S
    C1335  C1300     1.33681      .   S
    C1349  H1384     0.94808      .   S
    C1350  H1385     0.94808      .   S
    C1351  H1386     0.94808      .   S
    N1621  C1691     1.44487      .   S
    N1621  H1656     0.88301      .   S
    N1622  C1692     1.44487      .   S
    N1622  H1657     0.88301      .   S
    N1620  C1690     1.44487      .   S
    N1620  H1655     0.88301      .   S
    C1691  O128      1.12166      .   S
    C1690  O127      1.12166      .   S
    C1692  O129      1.12166      .   S
    C1404  C1439     1.37475      .   S
    C1406  C1441     1.37475      .   S
    C1405  C1440     1.37475      .   S
    C1300  C1265     1.43562      .   S
    C1299  C1264     1.43562      .   S
    C1301  C1266     1.43562      .   S
    N1535  H1570     0.87778      .   S
    N1535  C1089     1.44860      .   S
    N1536  H1571     0.87778      .   S
    N1536  C1090     1.44860      .   S
    N1537  H1572     0.87778      .   S
    N1537  C1091     1.44860      .   S
    C1439  H1474     0.94802      .   S
    C1439  C1507     1.33862      .   S
    C1440  H1475     0.94802      .   S
    C1440  C1508     1.33862      .   S
    C1441  H1476     0.94802      .   S
    C1441  C1509     1.33862      .   S
    C1266  C1509     1.41521      .   S
    C1266  C1126     1.41515      .   S
    C1264  C1507     1.41521      .   S
    C1264  C1124     1.41515      .   S
    C1265  C1508     1.41521      .   S
    C1265  C1125     1.41515      .   S
    C1091  C1126     1.38180      .   S
    C1091  C1040     1.43854      .   S
    C1089  C1124     1.38180      .   S
    C1089  C1038     1.43854      .   S
    C1090  C1125     1.38180      .   S
    C1090  C1039     1.43854      .   S
    C1508  N1781     1.36686      .   S
    C1509  N1782     1.36686      .   S
    C1507  N1780     1.36686      .   S
    H1076  C1040     0.95075      .   S
    H1075  C1039     0.95075      .   S
    H1074  C1038     0.95075      .   S
    C1126  C1161     1.31386      .   S
    C1125  C1160     1.31386      .   S
    C1124  C1159     1.31386      .   S
    C1039  C1004     1.38417      .   S
    C1038  C1003     1.38417      .   S
    C1040  C1005     1.38417      .   S
    C1161  N1712     1.38928      .   S
    C1161  C1196     1.44525      .   S
    C1159  N1710     1.38928      .   S
    C1159  C1194     1.44525      .   S
    C1160  N1711     1.38928      .   S
    C1160  C1195     1.44525      .   S
    N1780  H1815     0.87926      .   S
    N1780  C1848     1.46938      .   S
    N1781  H1816     0.87926      .   S
    N1781  C1849     1.46938      .   S
    N1782  H1817     0.87926      .   S
    N1782  C1850     1.46938      .   S
    C1005  C1196     1.32211      .   S
    C1004  C1195     1.32211      .   S
    C1003  C1194     1.32211      .   S
    N1712  H1747     0.87878      .   S
    N1712  C1850     1.49425      .   S
    N1711  H1746     0.87878      .   S
    N1711  C1849     1.49425      .   S
    N1710  H1745     0.87878      .   S
    N1710  C1848     1.49425      .   S
    C1195  H1230     0.94598      .   S
    C1196  H1231     0.94598      .   S
    C1194  H1229     0.94598      .   S
    C1850  O147      1.14833      .   S
    C1849  O146      1.14833      .   S
    C1848  O145      1.14833      .   S
    H626   C166      0.94937      .   S
    H625   C595      0.94937      .   S
    H624   C594      0.94937      .   S
    C342   C166      1.44574      .   S
    C342   C386      1.37472      .   S
    C340   C594      1.44574      .   S
    C340   C384      1.37472      .   S
    C341   C595      1.44574      .   S
    C341   C385      1.37472      .   S
    H420   C385      0.95051      .   S
    C595   C525      1.43040      .   S
    H421   C386      0.95051      .   S
    C166   C526      1.43040      .   S
    H419   C384      0.95051      .   S
    C594   C524      1.43040      .   S
    C385   C455      1.41715      .   S
    C386   C456      1.41715      .   S
    C384   C454      1.41715      .   S
    C524   H559      0.94698      .   S
    C524   C489      1.31172      .   S
    C525   H560      0.94698      .   S
    C525   C490      1.31172      .   S
    C526   H561      0.94698      .   S
    C526   C491      1.31172      .   S
    H304   N271      0.88080      .   S
    H302   N269      0.88080      .   S
    H303   N270      0.88080      .   S
    C454   C489      1.42467      .   S
    C454   N199      1.43139      .   S
    C456   C491      1.42467      .   S
    C456   N201      1.43139      .   S
    C455   C490      1.42467      .   S
    C455   N200      1.43139      .   S
    O74    C661      1.13307      .   S
    O72    C659      1.13307      .   S
    O73    C660      1.13307      .   S
    C661   N271      1.26439      .   S
    C661   N201      1.46906      .   S
    C659   N269      1.26439      .   S
    C659   N199      1.46906  1_565   S
    C660   N270      1.26439      .   S
    C660   N200      1.46906  1_455   S
    C489   C694      1.42151  1_545   S
    C490   C695      1.42151  1_655   S
    C491   C696      1.42151      .   S
    N270   C730      1.47250      .   S
    N271   C731      1.47250      .   S
    N269   C729      1.47250      .   S
    N200   H235      0.88291      .   S
    N199   H234      0.88291      .   S
    N201   H236      0.88291      .   S
    C696   C731      1.45249      .   S
    C696   C941      1.48748      .   S
    C694   C729      1.45249      .   S
    C694   C939      1.48748      .   S
    C695   C730      1.45249      .   S
    C695   C940      1.48748      .   S
    C729   C764      1.38515      .   S
    C730   C765      1.38515      .   S
    C731   C766      1.38515      .   S
    C766   H801      0.94932      .   S
    C766   C836      1.43713      .   S
    C765   H800      0.94932      .   S
    C765   C835      1.43713      .   S
    C764   H799      0.94932      .   S
    C764   C834      1.43713      .   S
    C939   H972      0.95056      .   S
    C939   C869      1.28209      .   S
    C940   H973      0.95056      .   S
    C940   C870      1.28209      .   S
    C941   H974      0.95056      .   S
    C941   C871      1.28209      .   S
    H899   C864      0.95170      .   S
    H898   C863      0.95170      .   S
    H900   C865      0.95170      .   S
    C836   C871      1.41245      .   S
    C835   C870      1.41245      .   S
    C834   C869      1.41245      .   S
    C871   H906      0.95170      .   S
    C870   H905      0.95170      .   S
    C869   H904      0.95170      .   S
    C865   C830      1.41245      .   S
    C865   C935      1.28209      .   S
    C864   C829      1.41245      .   S
    C864   C934      1.28209      .   S
    C863   C828      1.41245      .   S
    C863   C933      1.28209      .   S
    C830   C760      1.43713      .   S
    C829   C759      1.43713      .   S
    C828   C758      1.43713      .   S
    H967   C934      0.95056      .   S
    H968   C935      0.95056      .   S
    H966   C933      0.95056      .   S
    H793   C758      0.94932  1_455   S
    H794   C759      0.94932      .   S
    H795   C760      0.94932  1_565   S
    C933   C688      1.48748      .   S
    C934   C689      1.48748      .   S
    C935   C690      1.48748      .   S
    C758   C723      1.38515      .   S
    C759   C724      1.38515      .   S
    C760   C725      1.38515      .   S
    C723   C688      1.45249      .   S
    C723   N263      1.47250      .   S
    C724   C689      1.45249      .   S
    C724   N264      1.47250      .   S
    C725   C690      1.45249      .   S
    C725   N265      1.47250      .   S
    C690   C485      1.42151      .   S
    C689   C484      1.42151      .   S
    C688   C483      1.42151      .   S
    H228   N193      0.88291      .   S
    H229   N194      0.88291      .   S
    H230   N195      0.88291      .   S
    N195   C655      1.46906      .   S
    N195   C450      1.43139      .   S
    N194   C654      1.46906      .   S
    N194   C449      1.43139      .   S
    N193   C653      1.46906      .   S
    N193   C448      1.43139      .   S
    N265   C655      1.26439      .   S
    N265   H298      0.88080  1_545   S
    N264   C654      1.26439      .   S
    N264   H297      0.88080      .   S
    N263   C653      1.26439      .   S
    N263   H296      0.88080  1_655   S
    C485   C450      1.42467      .   S
    C485   C520      1.31172      .   S
    C483   C448      1.42467      .   S
    C483   C518      1.31172      .   S
    C484   C449      1.42467      .   S
    C484   C519      1.31172      .   S
    C654   O67       1.13307      .   S
    C655   O68       1.13307  1_545   S
    C653   O66       1.13307  1_655   S
    C448   C378      1.41715      .   S
    C449   C379      1.41715      .   S
    C450   C380      1.41715      .   S
    H555   C520      0.94698      .   S
    H554   C519      0.94698      .   S
    H553   C518      0.94698      .   S
    C520   C590      1.43040      .   S
    C519   C589      1.43040      .   S
    C518   C588      1.43040      .   S
    O151   C1854     1.14833      .   S
    O152   C1855     1.14833      .   S
    O153   C1856     1.14833      .   S
    C380   H415      0.95051      .   S
    C380   C336      1.37472      .   S
    C379   H414      0.95051      .   S
    C379   C335      1.37472      .   S
    C378   H413      0.95051      .   S
    C378   C334      1.37472      .   S
    H1235  C1200     0.94598      .   S
    H1237  C1202     0.94598      .   S
    H1236  C1201     0.94598      .   S
    C589   C335      1.44574      .   S
    C589   H619      0.94937      .   S
    C590   C336      1.44574      .   S
    C590   H620      0.94937      .   S
    C588   C334      1.44574      .   S
    C588   H618      0.94937      .   S
    C1854  N1716     1.49425      .   S
    C1854  N1786     1.46938      .   S
    C1855  N1717     1.49425      .   S
    C1855  N1787     1.46938      .   S
    C1856  N1718     1.49425      .   S
    C1856  N1788     1.46938      .   S
    C1202  C1011     1.32211      .   S
    C1202  C1167     1.44525      .   S
    C1201  C1010     1.32211      .   S
    C1201  C1166     1.44525      .   S
    C1200  C1009     1.32211      .   S
    C1200  C1165     1.44525      .   S
    H1753  N1718     0.87878      .   S
    H1752  N1717     0.87878      .   S
    H1751  N1716     0.87878      .   S
    N1716  C1165     1.38928      .   S
    N1717  C1166     1.38928      .   S
    N1718  C1167     1.38928      .   S
    C1009  C1044     1.38417      .   S
    C1010  C1045     1.38417      .   S
    C1011  C1046     1.38417      .   S
    H1822  N1787     0.87926      .   S
    H1823  N1788     0.87926      .   S
    H1821  N1786     0.87926      .   S
    N1786  C1513     1.36686      .   S
    N1787  C1514     1.36686      .   S
    N1788  C1515     1.36686      .   S
    C1165  C1130     1.31386      .   S
    C1166  C1131     1.31386      .   S
    C1167  C1132     1.31386      .   S
    C1046  H1082     0.95075      .   S
    C1046  C1097     1.43854      .   S
    C1045  H1081     0.95075      .   S
    C1045  C1096     1.43854      .   S
    C1044  H1080     0.95075      .   S
    C1044  C1095     1.43854      .   S
    C1132  C1097     1.38180      .   S
    C1132  C1272     1.41515      .   S
    C1130  C1095     1.38180      .   S
    C1130  C1270     1.41515      .   S
    C1131  C1096     1.38180      .   S
    C1131  C1271     1.41515      .   S
    C1513  C1270     1.41521      .   S
    C1513  C1445     1.33862      .   S
    C1514  C1271     1.41521      .   S
    C1514  C1446     1.33862      .   S
    C1515  C1272     1.41521      .   S
    C1515  C1447     1.33862      .   S
    C1095  N1541     1.44860      .   S
    C1096  N1542     1.44860      .   S
    C1097  N1543     1.44860      .   S
    H1480  C1445     0.94802      .   S
    H1481  C1446     0.94802      .   S
    H1482  C1447     0.94802      .   S
    C1270  C1305     1.43562      .   S
    C1271  C1306     1.43562      .   S
    C1272  C1307     1.43562      .   S
    C1447  C1412     1.37475      .   S
    C1445  C1410     1.37475      .   S
    C1446  C1411     1.37475      .   S
    O109   C1672     1.12166      .   S
    O110   C1673     1.12166      .   S
    O111   C1674     1.12166      .   S
    H1578  N1543     0.87778      .   S
    H1577  N1542     0.87778      .   S
    H1576  N1541     0.87778      .   S
    N1541  C1681     1.46454      .   S
    N1542  C1682     1.46454      .   S
    N1543  C1683     1.46454      .   S
    H1368  C1333     0.94808      .   S
    H1366  C1331     0.94808      .   S
    H1367  C1332     0.94808      .   S
    H1637  N1602     0.88301      .   S
    H1638  N1603     0.88301      .   S
    H1639  N1604     0.88301      .   S
    C1307  C1342     1.33681      .   S
    C1307  N1613     1.48041      .   S
    C1305  C1340     1.33681      .   S
    C1305  N1611     1.48041      .   S
    C1306  C1341     1.33681      .   S
    C1306  N1612     1.48041      .   S
    C1411  C1341     1.42566      .   S
    C1412  C1342     1.42566      .   S
    C1410  C1340     1.42566      .   S
    C1672  N1602     1.44487      .   S
    C1672  N1532     1.46454      .   S
    C1673  N1603     1.44487      .   S
    C1673  N1533     1.46454      .   S
    C1674  N1604     1.44487      .   S
    C1674  N1534     1.46454      .   S
    N1604  C1298     1.48041      .   S
    N1603  C1297     1.48041  1_565   S
    N1602  C1296     1.48041  1_455   S
    C1333  C1403     1.42566      .   S
    C1333  C1298     1.33681      .   S
    C1332  C1402     1.42566      .   S
    C1332  C1297     1.33681      .   S
    C1331  C1401     1.42566      .   S
    C1331  C1296     1.33681      .   S
    C1340  H1375     0.94808      .   S
    C1342  H1377     0.94808      .   S
    C1341  H1376     0.94808      .   S
    N1613  C1683     1.44487      .   S
    N1613  H1648     0.88301      .   S
    N1611  C1681     1.44487      .   S
    N1611  H1646     0.88301      .   S
    N1612  C1682     1.44487      .   S
    N1612  H1647     0.88301      .   S
    C1681  O118      1.12166      .   S
    C1682  O119      1.12166      .   S
    C1683  O120      1.12166      .   S
    C1402  C1437     1.37475      .   S
    C1403  C1438     1.37475      .   S
    C1401  C1436     1.37475      .   S
    C1298  C1263     1.43562      .   S
    C1297  C1262     1.43562      .   S
    C1296  C1261     1.43562      .   S
    N1534  H1569     0.87778      .   S
    N1534  C1088     1.44860      .   S
    N1532  H1567     0.87778      .   S
    N1532  C1086     1.44860      .   S
    N1533  H1568     0.87778      .   S
    N1533  C1087     1.44860      .   S
    C1438  H1473     0.94802      .   S
    C1438  C1506     1.33862      .   S
    C1437  H1472     0.94802      .   S
    C1437  C1505     1.33862      .   S
    C1436  H1471     0.94802      .   S
    C1436  C1504     1.33862      .   S
    C1261  C1504     1.41521      .   S
    C1261  C1121     1.41515  1_655   S
    C1262  C1505     1.41521      .   S
    C1262  C1122     1.41515  1_545   S
    C1263  C1506     1.41521      .   S
    C1263  C1123     1.41515      .   S
    C1087  C1122     1.38180      .   S
    C1087  C1036     1.43854      .   S
    C1088  C1123     1.38180      .   S
    C1088  C1037     1.43854      .   S
    C1086  C1121     1.38180      .   S
    C1086  C1035     1.43854      .   S
    C1504  N1777     1.36686      .   S
    C1506  N1779     1.36686      .   S
    C1505  N1778     1.36686      .   S
    H1073  C1037     0.95075      .   S
    H1072  C1036     0.95075      .   S
    H1071  C1035     0.95075      .   S
    C1121  C1156     1.31386      .   S
    C1122  C1157     1.31386      .   S
    C1123  C1158     1.31386      .   S
    C1037  C1002     1.38417      .   S
    C1036  C1001     1.38417      .   S
    C1035  C1000     1.38417      .   S
    C1158  N1709     1.38928      .   S
    C1158  C1193     1.44525      .   S
    C1157  N1708     1.38928  1_565   S
    C1157  C1192     1.44525      .   S
    C1156  N1707     1.38928  1_455   S
    C1156  C1191     1.44525      .   S
    N1778  H1813     0.87926      .   S
    N1778  C1846     1.46938      .   S
    N1779  H1814     0.87926      .   S
    N1779  C1847     1.46938      .   S
    N1777  H1812     0.87926      .   S
    N1777  C1845     1.46938      .   S
    C1000  C1191     1.32211      .   S
    C1001  C1192     1.32211      .   S
    C1002  C1193     1.32211      .   S
    N1707  H1742     0.87878      .   S
    N1707  C1845     1.49425      .   S
    N1709  H1744     0.87878      .   S
    N1709  C1847     1.49425      .   S
    N1708  H1743     0.87878      .   S
    N1708  C1846     1.49425      .   S
    C1191  H1226     0.94598      .   S
    C1192  H1227     0.94598      .   S
    C1193  H1228     0.94598      .   S
    C1845  O142      1.14833      .   S
    C1846  O143      1.14833      .   S
    C1847  O144      1.14833      .   S
    H609   C579      0.94937      .   S
    H610   C580      0.94937      .   S
    H611   C581      0.94937      .   S
    C325   C579      1.44574      .   S
    C325   C96       1.37472      .   S
    C326   C580      1.44574      .   S
    C326   C97       1.37472      .   S
    C327   C581      1.44574      .   S
    C327   C98       1.37472      .   S
    C580   C510      1.43040      .   S
    C579   C509      1.43040      .   S
    C581   C511      1.43040      .   S
    H405   C97       0.95051  1_455   S
    H404   C96       0.95051      .   S
    H406   C98       0.95051  1_565   S
    C96    C439      1.41715      .   S
    C98    C441      1.41715      .   S
    C97    C440      1.41715      .   S
    C511   H546      0.94698      .   S
    C511   C476      1.31172      .   S
    C510   H545      0.94698      .   S
    C510   C475      1.31172      .   S
    C509   H544      0.94698      .   S
    C509   C474      1.31172      .   S
    H289   N256      0.88080      .   S
    H287   N254      0.88080      .   S
    H288   N255      0.88080      .   S
    C441   C476      1.42467      .   S
    C441   N186      1.43139      .   S
    C440   C475      1.42467      .   S
    C440   N185      1.43139      .   S
    C439   C474      1.42467      .   S
    C439   N184      1.43139      .   S
    O59    C646      1.13307  1_565   S
    O58    C645      1.13307  1_455   S
    O57    C644      1.13307      .   S
    C646   N256      1.26439      .   S
    C646   N186      1.46906      .   S
    C644   N254      1.26439      .   S
    C644   N184      1.46906      .   S
    C645   N255      1.26439      .   S
    C645   N185      1.46906      .   S
    C476   C681      1.42151      .   S
    C475   C680      1.42151      .   S
    C474   C679      1.42151      .   S
    N254   C714      1.47250      .   S
    N256   C716      1.47250      .   S
    N255   C715      1.47250      .   S
    N184   H219      0.88291      .   S
    N185   H220      0.88291  1_655   S
    N186   H221      0.88291  1_545   S
    C679   C714      1.45249      .   S
    C679   C924      1.48748      .   S
    C680   C715      1.45249      .   S
    C680   C925      1.48748      .   S
    C681   C716      1.45249      .   S
    C681   C926      1.48748      .   S
    C714   C749      1.38515      .   S
    C715   C750      1.38515      .   S
    C716   C751      1.38515      .   S
    C749   H784      0.94932      .   S
    C749   C819      1.43713      .   S
    C750   H785      0.94932      .   S
    C750   C820      1.43713      .   S
    C751   H786      0.94932      .   S
    C751   C821      1.43713      .   S
    C924   H957      0.95056      .   S
    C924   C854      1.28209      .   S
    C926   H959      0.95056      .   S
    C926   C856      1.28209      .   S
    C925   H958      0.95056      .   S
    C925   C855      1.28209      .   S
    C820   C855      1.41245      .   S
    C821   C856      1.41245      .   S
    C819   C854      1.41245      .   S
