# CIF file generated by openbabel 2.4.90, see http://openbabel.sf.net
data_I
_chemical_name_common ''
_cell_length_a 24.4635
_cell_length_b 24.4635
_cell_length_c 112.996
_cell_angle_alpha 90
_cell_angle_beta 90
_cell_angle_gamma 120
_space_group_name_H-M_alt 'P 1'
_space_group_name_Hall 'P 1'
loop_
    _symmetry_equiv_pos_as_xyz
    x,y,z
loop_
    _atom_site_label
    _atom_site_type_symbol
    _atom_site_fract_x
    _atom_site_fract_y
    _atom_site_fract_z
    _atom_site_occupancy
    C0      C    0.08980   0.13260   0.54405   1.000
    C1      C    0.28930   0.52800   0.49590   1.000
    C2      C    0.39810   0.79930   0.46170   1.000
    C3      C    0.61100   0.19650   0.41291   1.000
    C4      C    0.86740   0.95720   0.54405   1.000
    C5      C    0.04280   0.91020   0.54405   1.000
    C6      C    0.13260   0.08980   0.95595   1.000
    C7      C    0.95720   0.86740   0.95595   1.000
    C8      C    0.91020   0.04280   0.95595   1.000
    C9      C    0.91020   0.86740   0.45595   1.000
    C10     C    0.13260   0.04280   0.45595   1.000
    C11     C    0.95720   0.08980   0.45595   1.000
    C12     C    0.86740   0.91020   0.04405   1.000
    C13     C    0.04280   0.13260   0.04405   1.000
    C14     C    0.08980   0.95720   0.04405   1.000
    C15     C    0.75647   0.46593   0.87738   1.000
    C16     C    0.53407   0.29053   0.87738   1.000
    C17     C    0.70947   0.24353   0.87738   1.000
    C18     C    0.79927   0.42313   0.28928   1.000
    C19     C    0.62387   0.20073   0.28928   1.000
    C20     C    0.57687   0.37613   0.28928   1.000
    C21     C    0.57687   0.20073   0.78928   1.000
    C22     C    0.79927   0.37613   0.78928   1.000
    C23     C    0.62387   0.42313   0.78928   1.000
    C24     C    0.53407   0.24353   0.37738   1.000
    C25     C    0.70947   0.46593   0.37738   1.000
    C26     C    0.75647   0.29053   0.37738   1.000
    C27     C    0.42313   0.79927   0.21072   1.000
    C28     C    0.20073   0.62387   0.21072   1.000
    C29     C    0.37613   0.57687   0.21072   1.000
    C30     C    0.46593   0.75647   0.62262   1.000
    C31     C    0.29053   0.53407   0.62262   1.000
    C32     C    0.24353   0.70947   0.62262   1.000
    C33     C    0.24353   0.53407   0.12262   1.000
    C34     C    0.46593   0.70947   0.12262   1.000
    C35     C    0.29053   0.75647   0.12262   1.000
    C36     C    0.20073   0.57687   0.71072   1.000
    C37     C    0.37613   0.79927   0.71072   1.000
    C38     C    0.42313   0.62387   0.71072   1.000
    C39     C    0.80350   0.41450   0.41291   1.000
    C40     C    0.58550   0.38900   0.41291   1.000
    C41     C    0.19650   0.61100   0.08709   1.000
    C42     C    0.41450   0.80350   0.08709   1.000
    C43     C    0.38900   0.58550   0.08709   1.000
    C44     C    0.38900   0.80350   0.58709   1.000
    C45     C    0.19650   0.58550   0.58709   1.000
    C46     C    0.41450   0.61100   0.58709   1.000
    C47     C    0.80350   0.38900   0.91291   1.000
    C48     C    0.58550   0.19650   0.91291   1.000
    C49     C    0.61100   0.41450   0.91291   1.000
    C50     C    0.27767   0.52983   0.74624   1.000
    C51     C    0.47017   0.74783   0.74624   1.000
    C52     C    0.25217   0.72233   0.74624   1.000
    C53     C    0.86317   0.94433   0.42042   1.000
    C54     C    0.08117   0.13683   0.42042   1.000
    C55     C    0.05567   0.91883   0.42042   1.000
    C56     C    0.47200   0.76130   0.49590   1.000
    C57     C    0.23870   0.71070   0.49590   1.000
    C58     C    0.20070   0.59880   0.46170   1.000
    C59     C    0.40120   0.60190   0.46170   1.000
    C60     C    0.52800   0.28930   0.00410   1.000
    C61     C    0.76130   0.47200   0.00410   1.000
    C62     C    0.71070   0.23870   0.00410   1.000
    C63     C    0.71070   0.47200   0.50410   1.000
    C64     C    0.52800   0.23870   0.50410   1.000
    C65     C    0.76130   0.28930   0.50410   1.000
    C66     C    0.47200   0.71070   0.99590   1.000
    C67     C    0.23870   0.52800   0.99590   1.000
    C68     C    0.28930   0.76130   0.99590   1.000
    C69     C    0.95597   0.86133   0.82923   1.000
    C70     C    0.13867   0.09463   0.82923   1.000
    C71     C    0.90537   0.04403   0.82923   1.000
    C72     C    0.19467   0.62263   0.33743   1.000
    C73     C    0.42797   0.80533   0.33743   1.000
    C74     C    0.37737   0.57203   0.33743   1.000
    C75     C    0.37737   0.80533   0.83743   1.000
    C76     C    0.19467   0.57203   0.83743   1.000
    C77     C    0.42797   0.62263   0.83743   1.000
    C78     C    0.13867   0.04403   0.32923   1.000
    C79     C    0.90537   0.86133   0.32923   1.000
    C80     C    0.95597   0.09463   0.32923   1.000
    C81     C    0.62263   0.19467   0.16257   1.000
    C82     C    0.80533   0.42797   0.16257   1.000
    C83     C    0.57203   0.37737   0.16257   1.000
    C84     C    0.86133   0.95597   0.67077   1.000
    C85     C    0.09463   0.13867   0.67077   1.000
    C86     C    0.04403   0.90537   0.67077   1.000
    C87     C    0.04403   0.13867   0.17077   1.000
    C88     C    0.86133   0.90537   0.17077   1.000
    C89     C    0.09463   0.95597   0.17077   1.000
    C90     C    0.80533   0.37737   0.66257   1.000
    C91     C    0.57203   0.19467   0.66257   1.000
    C92     C    0.62263   0.42797   0.66257   1.000
    C93     C    0.79930   0.39810   0.03830   1.000
    C94     C    0.59880   0.20070   0.03830   1.000
    C95     C    0.60190   0.40120   0.03830   1.000
    C96     C    0.60190   0.20070   0.53830   1.000
    C97     C    0.79930   0.40120   0.53830   1.000
    C98     C    0.59880   0.39810   0.53830   1.000
    C99     C    0.20070   0.60190   0.96170   1.000
    C100    C    0.40120   0.79930   0.96170   1.000
    C101    C    0.39810   0.59880   0.96170   1.000
    C102    C    0.06477   0.13263   0.79503   1.000
    C103    C    0.86737   0.93213   0.79503   1.000
    C104    C    0.06787   0.93523   0.79503   1.000
    C105    C    0.46597   0.73143   0.37163   1.000
    C106    C    0.26547   0.53403   0.37163   1.000
    C107    C    0.26857   0.73453   0.37163   1.000
    C108    C    0.26857   0.53403   0.87163   1.000
    C109    C    0.46597   0.73453   0.87163   1.000
    C110    C    0.26547   0.73143   0.87163   1.000
    C111    C    0.86737   0.93523   0.29503   1.000
    C112    C    0.06787   0.13263   0.29503   1.000
    C113    C    0.06477   0.93213   0.29503   1.000
    C114    C    0.73143   0.46597   0.12837   1.000
    C115    C    0.53403   0.26547   0.12837   1.000
    C116    C    0.73453   0.26857   0.12837   1.000
    C117    C    0.13263   0.06477   0.70497   1.000
    C118    C    0.93213   0.86737   0.70497   1.000
    C119    C    0.93523   0.06787   0.70497   1.000
    C120    C    0.93523   0.86737   0.20497   1.000
    C121    C    0.13263   0.06787   0.20497   1.000
    C122    C    0.93213   0.06477   0.20497   1.000
    C123    C    0.53403   0.26857   0.62837   1.000
    C124    C    0.73453   0.46597   0.62837   1.000
    C125    C    0.73143   0.26547   0.62837   1.000
    C126    C    0.05567   0.13683   0.92042   1.000
    C127    C    0.86317   0.91883   0.92042   1.000
    C128    C    0.08117   0.94433   0.92042   1.000
    C129    C    0.47017   0.72233   0.24624   1.000
    C130    C    0.25217   0.52983   0.24624   1.000
    C131    C    0.27767   0.74783   0.24624   1.000
    C132    C    0.94433   0.86317   0.07958   1.000
    C133    C    0.13683   0.08117   0.07958   1.000
    C134    C    0.91883   0.05567   0.07958   1.000
    C135    C    0.52983   0.27767   0.75376   1.000
    C136    C    0.74783   0.47017   0.75376   1.000
    C137    C    0.72233   0.25217   0.75376   1.000
    C138    C    0.72233   0.47017   0.25376   1.000
    C139    C    0.52983   0.25217   0.25376   1.000
    C140    C    0.74783   0.27767   0.25376   1.000
    C141    C    0.13683   0.05567   0.57958   1.000
    C142    C    0.91883   0.86317   0.57958   1.000
    C143    C    0.94433   0.08117   0.57958   1.000
