# CIF file generated by openbabel 2.4.90, see http://openbabel.sf.net
data_I
_chemical_name_common ''
_cell_length_a 24.4635
_cell_length_b 24.4635
_cell_length_c 112.996
_cell_angle_alpha 90
_cell_angle_beta 90
_cell_angle_gamma 120
_space_group_name_H-M_alt 'P 1'
_space_group_name_Hall 'P 1'
loop_
    _symmetry_equiv_pos_as_xyz
    x,y,z
loop_
    _atom_site_label
    _atom_site_type_symbol
    _atom_site_fract_x
    _atom_site_fract_y
    _atom_site_fract_z
    _atom_site_occupancy
    C0      C    0.00000   0.00000   0.57964   1.000
    C1      C    0.97026   0.05473   0.55658   1.000
    C2      C    0.24871   0.61158   0.48622   1.000
    C3      C    0.33330   0.66670   0.46351   1.000
    C4      C    0.00000   0.00000   0.56245   1.000
    C5      C    0.33330   0.66670   0.48022   1.000
    C6      C    0.11610   0.10290   0.54673   1.000
    C7      C    0.03630   0.12460   0.54896   1.000
    C8      C    0.37960   0.35030   0.52540   1.000
    C9      C    0.34250   0.55800   0.49357   1.000
    C10     C    0.23500   0.53890   0.49299   1.000
    C11     C    0.38880   0.74920   0.45698   1.000
    C12     C    0.38320   0.80530   0.47220   1.000
    C13     C    0.49130   0.88290   0.40631   1.000
    C14     C    0.51790   0.09670   0.47150   1.000
    C15     C    0.60870   0.19080   0.40243   1.000
    C16     C    0.63250   0.24990   0.41916   1.000
    C17     C    0.27500   0.28630   0.52236   1.000
    C18     C    0.28070   0.25930   0.51810   1.000
    C19     C    0.32140   0.39200   0.52280   1.000
    C20     C    0.34730   0.42660   0.52670   1.000
    C21     C    0.08980   0.13260   0.54405   1.000
    C22     C    0.12130   0.18990   0.53659   1.000
    C23     C    0.18160   0.20890   0.53280   1.000
    C24     C    0.20220   0.18570   0.53460   1.000
    C25     C    0.21140   0.26500   0.52598   1.000
    C26     C    0.18280   0.30240   0.52376   1.000
    C27     C    0.12580   0.28130   0.52800   1.000
    C28     C    0.10720   0.30660   0.52660   1.000
    C29     C    0.08860   0.22460   0.53460   1.000
    C30     C    0.04720   0.21120   0.53740   1.000
    C31     C    0.33190   0.34720   0.52478   1.000
    C32     C    0.20830   0.35730   0.51654   1.000
    C33     C    0.27590   0.39970   0.51548   1.000
    C34     C    0.30120   0.45290   0.50836   1.000
    C35     C    0.34540   0.48060   0.50770   1.000
    C36     C    0.25630   0.46350   0.50206   1.000
    C37     C    0.19120   0.41850   0.50200   1.000
    C38     C    0.16340   0.42700   0.49750   1.000
    C39     C    0.16820   0.36660   0.50780   1.000
    C40     C    0.12580   0.33420   0.50650   1.000
    C41     C    0.28930   0.52800   0.49590   1.000
    C42     C    0.39810   0.79930   0.46170   1.000
    C43     C    0.43150   0.86060   0.45471   1.000
    C44     C    0.45780   0.85740   0.44407   1.000
    C45     C    0.45420   0.81920   0.44120   1.000
    C46     C    0.49090   0.91570   0.43760   1.000
    C47     C    0.49300   0.97030   0.44147   1.000
    C48     C    0.46550   0.96860   0.45156   1.000
    C49     C    0.43180   0.91180   0.45855   1.000
    C50     C    0.41070   0.91130   0.46560   1.000
    C51     C    0.52360   0.02670   0.43478   1.000
    C52     C    0.52530   0.02510   0.42209   1.000
    C53     C    0.55140   0.07880   0.41588   1.000
    C54     C    0.54970   0.07670   0.40750   1.000
    C55     C    0.58180   0.13910   0.42148   1.000
    C56     C    0.58580   0.13980   0.43362   1.000
    C57     C    0.61070   0.17900   0.43750   1.000
    C58     C    0.55590   0.08710   0.44011   1.000
    C59     C    0.61100   0.19650   0.41291   1.000
    C60     C    0.51520   0.90930   0.42631   1.000
    C61     C    0.54530   0.89990   0.42700   1.000
    C62     C    0.49100   0.96920   0.41435   1.000
    C63     C    0.46250   0.96880   0.40950   1.000
    C64     C    0.50020   0.91530   0.41400   1.000
    C65     C    0.46180   0.01730   0.45712   1.000
    C66     C    0.42370   0.01210   0.45780   1.000
    C67     C    0.55830   0.09540   0.45210   1.000
    C68     C    0.59760   0.11830   0.45450   1.000
    C69     C    0.51420   0.07730   0.46210   1.000
    C70     C    0.00000   0.00000   0.92036   1.000
    C71     C    0.00000   0.00000   0.42036   1.000
    C72     C    0.00000   0.00000   0.07964   1.000
    C73     C    0.66667   0.33333   0.91297   1.000
    C74     C    0.66667   0.33333   0.25369   1.000
    C75     C    0.66667   0.33333   0.75369   1.000
    C76     C    0.66667   0.33333   0.41297   1.000
    C77     C    0.33333   0.66667   0.24631   1.000
    C78     C    0.33333   0.66667   0.58703   1.000
    C79     C    0.33333   0.66667   0.08703   1.000
    C80     C    0.33333   0.66667   0.74631   1.000
    C81     C    0.94527   0.91553   0.55658   1.000
    C82     C    0.08447   0.02974   0.55658   1.000
    C83     C    0.05473   0.97026   0.94342   1.000
    C84     C    0.91553   0.94527   0.94342   1.000
    C85     C    0.02974   0.08447   0.94342   1.000
    C86     C    0.02974   0.94527   0.44342   1.000
    C87     C    0.05473   0.08447   0.44342   1.000
    C88     C    0.91553   0.97026   0.44342   1.000
    C89     C    0.94527   0.02974   0.05658   1.000
    C90     C    0.08447   0.05473   0.05658   1.000
    C91     C    0.97026   0.91553   0.05658   1.000
    C92     C    0.63693   0.38806   0.88991   1.000
    C93     C    0.61194   0.24886   0.88991   1.000
    C94     C    0.75114   0.36307   0.88991   1.000
    C95     C    0.72140   0.30359   0.27675   1.000
    C96     C    0.58220   0.27860   0.27675   1.000
    C97     C    0.69641   0.41780   0.27675   1.000
    C98     C    0.69641   0.27860   0.77675   1.000
    C99     C    0.72140   0.41780   0.77675   1.000
    C100    C    0.58220   0.30359   0.77675   1.000
    C101    C    0.61194   0.36307   0.38991   1.000
    C102    C    0.75114   0.38806   0.38991   1.000
    C103    C    0.63693   0.24886   0.38991   1.000
    C104    C    0.30359   0.72140   0.22325   1.000
    C105    C    0.27860   0.58220   0.22325   1.000
    C106    C    0.41780   0.69641   0.22325   1.000
    C107    C    0.38806   0.63693   0.61009   1.000
    C108    C    0.24886   0.61194   0.61009   1.000
    C109    C    0.36307   0.75114   0.61009   1.000
    C110    C    0.36307   0.61194   0.11009   1.000
    C111    C    0.38806   0.75114   0.11009   1.000
    C112    C    0.24886   0.63693   0.11009   1.000
    C113    C    0.27860   0.69641   0.72325   1.000
    C114    C    0.41780   0.72140   0.72325   1.000
    C115    C    0.30359   0.58220   0.72325   1.000
    C116    C    0.38842   0.63713   0.48622   1.000
    C117    C    0.36287   0.75129   0.48622   1.000
    C118    C    0.61158   0.24871   0.01378   1.000
    C119    C    0.63713   0.38842   0.01378   1.000
    C120    C    0.75129   0.36287   0.01378   1.000
    C121    C    0.75129   0.38842   0.51378   1.000
    C122    C    0.61158   0.36287   0.51378   1.000
    C123    C    0.63713   0.24871   0.51378   1.000
    C124    C    0.38842   0.75129   0.98622   1.000
    C125    C    0.36287   0.61158   0.98622   1.000
    C126    C    0.24871   0.63713   0.98622   1.000
    C127    C    0.91538   0.94491   0.81955   1.000
    C128    C    0.05509   0.97046   0.81955   1.000
    C129    C    0.02954   0.08462   0.81955   1.000
    C130    C    0.27825   0.58204   0.34711   1.000
    C131    C    0.30380   0.72175   0.34711   1.000
    C132    C    0.41796   0.69620   0.34711   1.000
    C133    C    0.41796   0.72175   0.84711   1.000
    C134    C    0.27825   0.69620   0.84711   1.000
    C135    C    0.30380   0.58204   0.84711   1.000
    C136    C    0.05509   0.08462   0.31955   1.000
    C137    C    0.02954   0.94491   0.31955   1.000
    C138    C    0.91538   0.97046   0.31955   1.000
    C139    C    0.58204   0.27825   0.15289   1.000
    C140    C    0.72175   0.30380   0.15289   1.000
    C141    C    0.69620   0.41796   0.15289   1.000
    C142    C    0.94491   0.91538   0.68045   1.000
    C143    C    0.97046   0.05509   0.68045   1.000
    C144    C    0.08462   0.02954   0.68045   1.000
    C145    C    0.08462   0.05509   0.18045   1.000
    C146    C    0.94491   0.02954   0.18045   1.000
    C147    C    0.97046   0.91538   0.18045   1.000
    C148    C    0.72175   0.41796   0.65289   1.000
    C149    C    0.69620   0.27825   0.65289   1.000
    C150    C    0.58204   0.30380   0.65289   1.000
    C151    C    0.66670   0.33330   0.03649   1.000
    C152    C    0.66670   0.33330   0.53649   1.000
    C153    C    0.33330   0.66670   0.96351   1.000
    C154    C    0.99997   0.00003   0.79684   1.000
    C155    C    0.99997   0.99993   0.79684   1.000
    C156    C    0.00007   0.00003   0.79684   1.000
    C157    C    0.33337   0.66663   0.36982   1.000
    C158    C    0.33337   0.66663   0.86982   1.000
    C159    C    0.99997   0.00003   0.29684   1.000
    C160    C    0.00007   0.00003   0.29684   1.000
    C161    C    0.99997   0.99993   0.29684   1.000
    C162    C    0.66663   0.33337   0.13018   1.000
    C163    C    0.00003   0.99997   0.70316   1.000
    C164    C    0.99993   0.99997   0.70316   1.000
    C165    C    0.00003   0.00007   0.70316   1.000
    C166    C    0.00003   0.99997   0.20316   1.000
    C167    C    0.00003   0.00007   0.20316   1.000
    C168    C    0.99993   0.99997   0.20316   1.000
    C169    C    0.66663   0.33337   0.63018   1.000
    C170    C    0.00000   0.00000   0.93755   1.000
    C171    C    0.00000   0.00000   0.43755   1.000
    C172    C    0.00000   0.00000   0.06245   1.000
    C173    C    0.66667   0.33333   0.89578   1.000
    C174    C    0.66667   0.33333   0.27088   1.000
    C175    C    0.66667   0.33333   0.77088   1.000
    C176    C    0.66667   0.33333   0.39578   1.000
    C177    C    0.33333   0.66667   0.22912   1.000
    C178    C    0.33333   0.66667   0.60422   1.000
    C179    C    0.33333   0.66667   0.10422   1.000
    C180    C    0.33333   0.66667   0.72912   1.000
    C181    C    0.66670   0.33330   0.01978   1.000
    C182    C    0.66670   0.33330   0.51978   1.000
    C183    C    0.33330   0.66670   0.98022   1.000
    C184    C    0.99997   0.00003   0.81355   1.000
    C185    C    0.99997   0.99993   0.81355   1.000
    C186    C    0.00007   0.00003   0.81355   1.000
    C187    C    0.33337   0.66663   0.35311   1.000
    C188    C    0.33337   0.66663   0.85311   1.000
    C189    C    0.99997   0.00003   0.31355   1.000
    C190    C    0.00007   0.00003   0.31355   1.000
    C191    C    0.99997   0.99993   0.31355   1.000
    C192    C    0.66663   0.33337   0.14689   1.000
    C193    C    0.00003   0.99997   0.68645   1.000
    C194    C    0.99993   0.99997   0.68645   1.000
    C195    C    0.00003   0.00007   0.68645   1.000
    C196    C    0.00003   0.99997   0.18645   1.000
    C197    C    0.00003   0.00007   0.18645   1.000
    C198    C    0.99993   0.99997   0.18645   1.000
    C199    C    0.66663   0.33337   0.64689   1.000
    C200    C    0.89710   0.01320   0.54673   1.000
    C201    C    0.98680   0.88390   0.54673   1.000
    C202    C    0.10290   0.11610   0.95327   1.000
    C203    C    0.01320   0.89710   0.95327   1.000
    C204    C    0.88390   0.98680   0.95327   1.000
    C205    C    0.88390   0.89710   0.45327   1.000
    C206    C    0.10290   0.98680   0.45327   1.000
    C207    C    0.01320   0.11610   0.45327   1.000
    C208    C    0.89710   0.88390   0.04673   1.000
    C209    C    0.98680   0.10290   0.04673   1.000
    C210    C    0.11610   0.01320   0.04673   1.000
    C211    C    0.78277   0.43623   0.88006   1.000
    C212    C    0.56377   0.34653   0.88006   1.000
    C213    C    0.65347   0.21723   0.88006   1.000
    C214    C    0.76957   0.44943   0.28660   1.000
    C215    C    0.67987   0.23043   0.28660   1.000
    C216    C    0.55057   0.32013   0.28660   1.000
    C217    C    0.55057   0.23043   0.78660   1.000
    C218    C    0.76957   0.32013   0.78660   1.000
    C219    C    0.67987   0.44943   0.78660   1.000
    C220    C    0.56377   0.21723   0.38006   1.000
    C221    C    0.65347   0.43623   0.38006   1.000
    C222    C    0.78277   0.34653   0.38006   1.000
    C223    C    0.44943   0.76957   0.21340   1.000
    C224    C    0.23043   0.67987   0.21340   1.000
    C225    C    0.32013   0.55057   0.21340   1.000
    C226    C    0.43623   0.78277   0.61994   1.000
    C227    C    0.34653   0.56377   0.61994   1.000
    C228    C    0.21723   0.65347   0.61994   1.000
    C229    C    0.21723   0.56377   0.11994   1.000
    C230    C    0.43623   0.65347   0.11994   1.000
    C231    C    0.34653   0.78277   0.11994   1.000
    C232    C    0.23043   0.55057   0.71340   1.000
    C233    C    0.32013   0.76957   0.71340   1.000
    C234    C    0.44943   0.67987   0.71340   1.000
    C235    C    0.87540   0.91170   0.54896   1.000
    C236    C    0.08830   0.96370   0.54896   1.000
    C237    C    0.12460   0.03630   0.95104   1.000
    C238    C    0.91170   0.87540   0.95104   1.000
    C239    C    0.96370   0.08830   0.95104   1.000
    C240    C    0.96370   0.87540   0.45104   1.000
    C241    C    0.12460   0.08830   0.45104   1.000
    C242    C    0.91170   0.03630   0.45104   1.000
    C243    C    0.87540   0.96370   0.04896   1.000
    C244    C    0.08830   0.12460   0.04896   1.000
    C245    C    0.03630   0.91170   0.04896   1.000
    C246    C    0.70297   0.45793   0.88229   1.000
    C247    C    0.54207   0.24503   0.88229   1.000
    C248    C    0.75497   0.29703   0.88229   1.000
    C249    C    0.79127   0.36963   0.28437   1.000
    C250    C    0.57837   0.20873   0.28437   1.000
    C251    C    0.63037   0.42163   0.28437   1.000
    C252    C    0.63037   0.20873   0.78437   1.000
    C253    C    0.79127   0.42163   0.78437   1.000
    C254    C    0.57837   0.36963   0.78437   1.000
    C255    C    0.54207   0.29703   0.38229   1.000
    C256    C    0.75497   0.45793   0.38229   1.000
    C257    C    0.70297   0.24503   0.38229   1.000
    C258    C    0.36963   0.79127   0.21563   1.000
    C259    C    0.20873   0.57837   0.21563   1.000
    C260    C    0.42163   0.63037   0.21563   1.000
    C261    C    0.45793   0.70297   0.61771   1.000
    C262    C    0.24503   0.54207   0.61771   1.000
    C263    C    0.29703   0.75497   0.61771   1.000
    C264    C    0.29703   0.54207   0.11771   1.000
    C265    C    0.45793   0.75497   0.11771   1.000
    C266    C    0.24503   0.70297   0.11771   1.000
    C267    C    0.20873   0.63037   0.71563   1.000
    C268    C    0.42163   0.79127   0.71563   1.000
    C269    C    0.36963   0.57837   0.71563   1.000
    C270    C    0.64970   0.02930   0.52540   1.000
    C271    C    0.97070   0.62040   0.52540   1.000
    C272    C    0.35030   0.37960   0.97460   1.000
    C273    C    0.02930   0.64970   0.97460   1.000
    C274    C    0.62040   0.97070   0.97460   1.000
    C275    C    0.62040   0.64970   0.47460   1.000
    C276    C    0.35030   0.97070   0.47460   1.000
    C277    C    0.02930   0.37960   0.47460   1.000
    C278    C    0.64970   0.62040   0.02540   1.000
    C279    C    0.97070   0.35030   0.02540   1.000
    C280    C    0.37960   0.02930   0.02540   1.000
    C281    C    0.04627   0.68363   0.85873   1.000
    C282    C    0.31637   0.36263   0.85873   1.000
    C283    C    0.63737   0.95373   0.85873   1.000
    C284    C    0.01697   0.71293   0.30793   1.000
    C285    C    0.69597   0.98303   0.30793   1.000
    C286    C    0.28707   0.30403   0.30793   1.000
    C287    C    0.28707   0.98303   0.80793   1.000
    C288    C    0.01697   0.30403   0.80793   1.000
    C289    C    0.69597   0.71293   0.80793   1.000
    C290    C    0.31637   0.95373   0.35873   1.000
    C291    C    0.63737   0.68363   0.35873   1.000
    C292    C    0.04627   0.36263   0.35873   1.000
    C293    C    0.71293   0.01697   0.19207   1.000
    C294    C    0.98303   0.69597   0.19207   1.000
    C295    C    0.30403   0.28707   0.19207   1.000
    C296    C    0.68363   0.04627   0.64127   1.000
    C297    C    0.36263   0.31637   0.64127   1.000
    C298    C    0.95373   0.63737   0.64127   1.000
    C299    C    0.95373   0.31637   0.14127   1.000
    C300    C    0.68363   0.63737   0.14127   1.000
    C301    C    0.36263   0.04627   0.14127   1.000
    C302    C    0.98303   0.28707   0.69207   1.000
    C303    C    0.30403   0.01697   0.69207   1.000
    C304    C    0.71293   0.69597   0.69207   1.000
    C305    C    0.44200   0.78450   0.49357   1.000
    C306    C    0.21550   0.65750   0.49357   1.000
    C307    C    0.55800   0.34250   0.00643   1.000
    C308    C    0.78450   0.44200   0.00643   1.000
    C309    C    0.65750   0.21550   0.00643   1.000
    C310    C    0.65750   0.44200   0.50643   1.000
    C311    C    0.55800   0.21550   0.50643   1.000
    C312    C    0.78450   0.34250   0.50643   1.000
    C313    C    0.44200   0.65750   0.99357   1.000
    C314    C    0.21550   0.55800   0.99357   1.000
    C315    C    0.34250   0.78450   0.99357   1.000
    C316    C    0.00917   0.89133   0.82690   1.000
    C317    C    0.10867   0.11783   0.82690   1.000
    C318    C    0.88217   0.99083   0.82690   1.000
    C319    C    0.22467   0.67583   0.33976   1.000
    C320    C    0.45117   0.77533   0.33976   1.000
    C321    C    0.32417   0.54883   0.33976   1.000
    C322    C    0.32417   0.77533   0.83976   1.000
    C323    C    0.22467   0.54883   0.83976   1.000
    C324    C    0.45117   0.67583   0.83976   1.000
    C325    C    0.10867   0.99083   0.32690   1.000
    C326    C    0.88217   0.89133   0.32690   1.000
    C327    C    0.00917   0.11783   0.32690   1.000
    C328    C    0.67583   0.22467   0.16024   1.000
    C329    C    0.77533   0.45117   0.16024   1.000
    C330    C    0.54883   0.32417   0.16024   1.000
    C331    C    0.89133   0.00917   0.67310   1.000
    C332    C    0.11783   0.10867   0.67310   1.000
    C333    C    0.99083   0.88217   0.67310   1.000
    C334    C    0.99083   0.10867   0.17310   1.000
    C335    C    0.89133   0.88217   0.17310   1.000
    C336    C    0.11783   0.00917   0.17310   1.000
    C337    C    0.77533   0.32417   0.66024   1.000
    C338    C    0.54883   0.22467   0.66024   1.000
    C339    C    0.67583   0.45117   0.66024   1.000
    C340    C    0.46110   0.69610   0.49299   1.000
    C341    C    0.30390   0.76500   0.49299   1.000
    C342    C    0.53890   0.23500   0.00701   1.000
    C343    C    0.69610   0.46110   0.00701   1.000
    C344    C    0.76500   0.30390   0.00701   1.000
    C345    C    0.76500   0.46110   0.50701   1.000
    C346    C    0.53890   0.30390   0.50701   1.000
    C347    C    0.69610   0.23500   0.50701   1.000
    C348    C    0.46110   0.76500   0.99299   1.000
    C349    C    0.30390   0.53890   0.99299   1.000
    C350    C    0.23500   0.69610   0.99299   1.000
    C351    C    0.90167   0.87223   0.82632   1.000
    C352    C    0.12777   0.02943   0.82632   1.000
    C353    C    0.97057   0.09833   0.82632   1.000
    C354    C    0.20557   0.56833   0.34034   1.000
    C355    C    0.36277   0.79443   0.34034   1.000
    C356    C    0.43167   0.63723   0.34034   1.000
    C357    C    0.43167   0.79443   0.84034   1.000
    C358    C    0.20557   0.63723   0.84034   1.000
    C359    C    0.36277   0.56833   0.84034   1.000
    C360    C    0.12777   0.09833   0.32632   1.000
    C361    C    0.97057   0.87223   0.32632   1.000
    C362    C    0.90167   0.02943   0.32632   1.000
    C363    C    0.56833   0.20557   0.15966   1.000
    C364    C    0.79443   0.36277   0.15966   1.000
    C365    C    0.63723   0.43167   0.15966   1.000
    C366    C    0.87223   0.90167   0.67368   1.000
    C367    C    0.02943   0.12777   0.67368   1.000
    C368    C    0.09833   0.97057   0.67368   1.000
    C369    C    0.09833   0.12777   0.17368   1.000
    C370    C    0.87223   0.97057   0.17368   1.000
    C371    C    0.02943   0.90167   0.17368   1.000
    C372    C    0.79443   0.43167   0.65966   1.000
    C373    C    0.63723   0.20557   0.65966   1.000
    C374    C    0.56833   0.36277   0.65966   1.000
    C375    C    0.25080   0.63960   0.45698   1.000
    C376    C    0.36040   0.61120   0.45698   1.000
    C377    C    0.74920   0.38880   0.04302   1.000
    C378    C    0.63960   0.25080   0.04302   1.000
    C379    C    0.61120   0.36040   0.04302   1.000
    C380    C    0.61120   0.25080   0.54302   1.000
    C381    C    0.74920   0.36040   0.54302   1.000
    C382    C    0.63960   0.38880   0.54302   1.000
    C383    C    0.25080   0.61120   0.95698   1.000
    C384    C    0.36040   0.74920   0.95698   1.000
    C385    C    0.38880   0.63960   0.95698   1.000
    C386    C    0.05547   0.08253   0.79031   1.000
    C387    C    0.91747   0.97293   0.79031   1.000
    C388    C    0.02707   0.94453   0.79031   1.000
    C389    C    0.41587   0.72213   0.37635   1.000
    C390    C    0.30627   0.58413   0.37635   1.000
    C391    C    0.27787   0.69373   0.37635   1.000
    C392    C    0.27787   0.58413   0.87635   1.000
    C393    C    0.41587   0.69373   0.87635   1.000
    C394    C    0.30627   0.72213   0.87635   1.000
    C395    C    0.91747   0.94453   0.29031   1.000
    C396    C    0.02707   0.08253   0.29031   1.000
    C397    C    0.05547   0.97293   0.29031   1.000
    C398    C    0.72213   0.41587   0.12365   1.000
    C399    C    0.58413   0.30627   0.12365   1.000
    C400    C    0.69373   0.27787   0.12365   1.000
    C401    C    0.08253   0.05547   0.70969   1.000
    C402    C    0.97293   0.91747   0.70969   1.000
    C403    C    0.94453   0.02707   0.70969   1.000
    C404    C    0.94453   0.91747   0.20969   1.000
    C405    C    0.08253   0.02707   0.20969   1.000
    C406    C    0.97293   0.05547   0.20969   1.000
    C407    C    0.58413   0.27787   0.62365   1.000
    C408    C    0.69373   0.41587   0.62365   1.000
    C409    C    0.72213   0.30627   0.62365   1.000
    C410    C    0.19470   0.57790   0.47220   1.000
    C411    C    0.42210   0.61680   0.47220   1.000
    C412    C    0.80530   0.38320   0.02780   1.000
    C413    C    0.57790   0.19470   0.02780   1.000
    C414    C    0.61680   0.42210   0.02780   1.000
    C415    C    0.61680   0.19470   0.52780   1.000
    C416    C    0.80530   0.42210   0.52780   1.000
    C417    C    0.57790   0.38320   0.52780   1.000
    C418    C    0.19470   0.61680   0.97220   1.000
    C419    C    0.42210   0.80530   0.97220   1.000
    C420    C    0.38320   0.57790   0.97220   1.000
    C421    C    0.04987   0.13863   0.80553   1.000
    C422    C    0.86137   0.91123   0.80553   1.000
    C423    C    0.08877   0.95013   0.80553   1.000
    C424    C    0.47197   0.71653   0.36113   1.000
    C425    C    0.24457   0.52803   0.36113   1.000
    C426    C    0.28347   0.75543   0.36113   1.000
    C427    C    0.28347   0.52803   0.86113   1.000
    C428    C    0.47197   0.75543   0.86113   1.000
    C429    C    0.24457   0.71653   0.86113   1.000
    C430    C    0.86137   0.95013   0.30553   1.000
    C431    C    0.08877   0.13863   0.30553   1.000
    C432    C    0.04987   0.91123   0.30553   1.000
    C433    C    0.71653   0.47197   0.13887   1.000
    C434    C    0.52803   0.24457   0.13887   1.000
    C435    C    0.75543   0.28347   0.13887   1.000
    C436    C    0.13863   0.04987   0.69447   1.000
    C437    C    0.91123   0.86137   0.69447   1.000
    C438    C    0.95013   0.08877   0.69447   1.000
    C439    C    0.95013   0.86137   0.19447   1.000
    C440    C    0.13863   0.08877   0.19447   1.000
    C441    C    0.91123   0.04987   0.19447   1.000
    C442    C    0.52803   0.28347   0.63887   1.000
    C443    C    0.75543   0.47197   0.63887   1.000
    C444    C    0.71653   0.24457   0.63887   1.000
    C445    C    0.11710   0.60840   0.40631   1.000
    C446    C    0.39160   0.50870   0.40631   1.000
    C447    C    0.88290   0.49130   0.09369   1.000
    C448    C    0.60840   0.11710   0.09369   1.000
    C449    C    0.50870   0.39160   0.09369   1.000
    C450    C    0.50870   0.11710   0.59369   1.000
    C451    C    0.88290   0.39160   0.59369   1.000
    C452    C    0.60840   0.49130   0.59369   1.000
    C453    C    0.11710   0.50870   0.90631   1.000
    C454    C    0.39160   0.88290   0.90631   1.000
    C455    C    0.49130   0.60840   0.90631   1.000
    C456    C    0.15797   0.21623   0.73964   1.000
    C457    C    0.78377   0.94173   0.73964   1.000
    C458    C    0.05827   0.84203   0.73964   1.000
    C459    C    0.54957   0.82463   0.42702   1.000
    C460    C    0.27507   0.45043   0.42702   1.000
    C461    C    0.17537   0.72493   0.42702   1.000
    C462    C    0.17537   0.45043   0.92702   1.000
    C463    C    0.54957   0.72493   0.92702   1.000
    C464    C    0.27507   0.82463   0.92702   1.000
    C465    C    0.78377   0.84203   0.23964   1.000
    C466    C    0.05827   0.21623   0.23964   1.000
    C467    C    0.15797   0.94173   0.23964   1.000
    C468    C    0.82463   0.54957   0.07298   1.000
    C469    C    0.45043   0.27507   0.07298   1.000
    C470    C    0.72493   0.17537   0.07298   1.000
    C471    C    0.21623   0.15797   0.76036   1.000
    C472    C    0.94173   0.78377   0.76036   1.000
    C473    C    0.84203   0.05827   0.76036   1.000
    C474    C    0.84203   0.78377   0.26036   1.000
    C475    C    0.21623   0.05827   0.26036   1.000
    C476    C    0.94173   0.15797   0.26036   1.000
    C477    C    0.45043   0.17537   0.57298   1.000
    C478    C    0.72493   0.54957   0.57298   1.000
    C479    C    0.82463   0.27507   0.57298   1.000
    C480    C    0.90330   0.42120   0.47150   1.000
    C481    C    0.57880   0.48210   0.47150   1.000
    C482    C    0.09670   0.51790   0.02850   1.000
    C483    C    0.42120   0.90330   0.02850   1.000
    C484    C    0.48210   0.57880   0.02850   1.000
    C485    C    0.48210   0.90330   0.52850   1.000
    C486    C    0.09670   0.57880   0.52850   1.000
    C487    C    0.42120   0.51790   0.52850   1.000
    C488    C    0.90330   0.48210   0.97150   1.000
    C489    C    0.57880   0.09670   0.97150   1.000
    C490    C    0.51790   0.42120   0.97150   1.000
    C491    C    0.18457   0.43003   0.80483   1.000
    C492    C    0.56997   0.75453   0.80483   1.000
    C493    C    0.24547   0.81543   0.80483   1.000
    C494    C    0.76337   0.85123   0.36183   1.000
    C495    C    0.08787   0.23663   0.36183   1.000
    C496    C    0.14877   0.91213   0.36183   1.000
    C497    C    0.14877   0.23663   0.86183   1.000
    C498    C    0.76337   0.91213   0.86183   1.000
    C499    C    0.08787   0.85123   0.86183   1.000
    C500    C    0.56997   0.81543   0.30483   1.000
    C501    C    0.24547   0.43003   0.30483   1.000
    C502    C    0.18457   0.75453   0.30483   1.000
    C503    C    0.85123   0.76337   0.13817   1.000
    C504    C    0.23663   0.08787   0.13817   1.000
    C505    C    0.91213   0.14877   0.13817   1.000
    C506    C    0.43003   0.18457   0.69517   1.000
    C507    C    0.75453   0.56997   0.69517   1.000
    C508    C    0.81543   0.24547   0.69517   1.000
    C509    C    0.81543   0.56997   0.19517   1.000
    C510    C    0.43003   0.24547   0.19517   1.000
    C511    C    0.75453   0.18457   0.19517   1.000
    C512    C    0.23663   0.14877   0.63817   1.000
    C513    C    0.91213   0.76337   0.63817   1.000
    C514    C    0.85123   0.08787   0.63817   1.000
    C515    C    0.80920   0.41790   0.40243   1.000
    C516    C    0.58210   0.39130   0.40243   1.000
    C517    C    0.19080   0.60870   0.09757   1.000
    C518    C    0.41790   0.80920   0.09757   1.000
    C519    C    0.39130   0.58210   0.09757   1.000
    C520    C    0.39130   0.80920   0.59757   1.000
    C521    C    0.19080   0.58210   0.59757   1.000
    C522    C    0.41790   0.60870   0.59757   1.000
    C523    C    0.80920   0.39130   0.90243   1.000
    C524    C    0.58210   0.19080   0.90243   1.000
    C525    C    0.60870   0.41790   0.90243   1.000
    C526    C    0.27537   0.52413   0.73576   1.000
    C527    C    0.47587   0.75123   0.73576   1.000
    C528    C    0.24877   0.72463   0.73576   1.000
    C529    C    0.85747   0.94203   0.43090   1.000
    C530    C    0.08457   0.14253   0.43090   1.000
    C531    C    0.05797   0.91543   0.43090   1.000
    C532    C    0.05797   0.14253   0.93090   1.000
    C533    C    0.85747   0.91543   0.93090   1.000
    C534    C    0.08457   0.94203   0.93090   1.000
    C535    C    0.47587   0.72463   0.23576   1.000
    C536    C    0.24877   0.52413   0.23576   1.000
    C537    C    0.27537   0.75123   0.23576   1.000
    C538    C    0.94203   0.85747   0.06910   1.000
    C539    C    0.14253   0.08457   0.06910   1.000
    C540    C    0.91543   0.05797   0.06910   1.000
    C541    C    0.52413   0.27537   0.76424   1.000
    C542    C    0.75123   0.47587   0.76424   1.000
    C543    C    0.72463   0.24877   0.76424   1.000
    C544    C    0.72463   0.47587   0.26424   1.000
    C545    C    0.52413   0.24877   0.26424   1.000
    C546    C    0.75123   0.27537   0.26424   1.000
    C547    C    0.14253   0.05797   0.56910   1.000
    C548    C    0.91543   0.85747   0.56910   1.000
    C549    C    0.94203   0.08457   0.56910   1.000
    C550    C    0.75010   0.38260   0.41916   1.000
    C551    C    0.61740   0.36750   0.41916   1.000
    C552    C    0.24990   0.63250   0.08084   1.000
    C553    C    0.38260   0.75010   0.08084   1.000
    C554    C    0.36750   0.61740   0.08084   1.000
    C555    C    0.36750   0.75010   0.58084   1.000
    C556    C    0.24990   0.61740   0.58084   1.000
    C557    C    0.38260   0.63250   0.58084   1.000
    C558    C    0.75010   0.36750   0.91916   1.000
    C559    C    0.61740   0.24990   0.91916   1.000
    C560    C    0.63250   0.38260   0.91916   1.000
    C561    C    0.29917   0.58323   0.75249   1.000
    C562    C    0.41677   0.71593   0.75249   1.000
    C563    C    0.28407   0.70083   0.75249   1.000
    C564    C    0.91657   0.96583   0.41417   1.000
    C565    C    0.04927   0.08343   0.41417   1.000
    C566    C    0.03417   0.95073   0.41417   1.000
    C567    C    0.03417   0.08343   0.91417   1.000
    C568    C    0.91657   0.95073   0.91417   1.000
    C569    C    0.04927   0.96583   0.91417   1.000
    C570    C    0.41677   0.70083   0.25249   1.000
    C571    C    0.28407   0.58323   0.25249   1.000
    C572    C    0.29917   0.71593   0.25249   1.000
    C573    C    0.96583   0.91657   0.08583   1.000
    C574    C    0.08343   0.04927   0.08583   1.000
    C575    C    0.95073   0.03417   0.08583   1.000
    C576    C    0.58323   0.29917   0.74751   1.000
    C577    C    0.71593   0.41677   0.74751   1.000
    C578    C    0.70083   0.28407   0.74751   1.000
    C579    C    0.70083   0.41677   0.24751   1.000
    C580    C    0.58323   0.28407   0.24751   1.000
    C581    C    0.71593   0.29917   0.24751   1.000
    C582    C    0.08343   0.03417   0.58583   1.000
    C583    C    0.95073   0.91657   0.58583   1.000
    C584    C    0.96583   0.04927   0.58583   1.000
    C585    C    0.71370   0.98870   0.52236   1.000
    C586    C    0.01130   0.72500   0.52236   1.000
    C587    C    0.28630   0.27500   0.97764   1.000
    C588    C    0.98870   0.71370   0.97764   1.000
    C589    C    0.72500   0.01130   0.97764   1.000
    C590    C    0.72500   0.71370   0.47764   1.000
    C591    C    0.28630   0.01130   0.47764   1.000
    C592    C    0.98870   0.27500   0.47764   1.000
    C593    C    0.71370   0.72500   0.02236   1.000
    C594    C    0.01130   0.28630   0.02236   1.000
    C595    C    0.27500   0.98870   0.02236   1.000
    C596    C    0.94167   0.61963   0.85569   1.000
    C597    C    0.38037   0.32203   0.85569   1.000
    C598    C    0.67797   0.05833   0.85569   1.000
    C599    C    0.95297   0.60833   0.31097   1.000
    C600    C    0.65537   0.04703   0.31097   1.000
    C601    C    0.39167   0.34463   0.31097   1.000
    C602    C    0.39167   0.04703   0.81097   1.000
    C603    C    0.95297   0.34463   0.81097   1.000
    C604    C    0.65537   0.60833   0.81097   1.000
    C605    C    0.38037   0.05833   0.35569   1.000
    C606    C    0.67797   0.61963   0.35569   1.000
    C607    C    0.94167   0.32203   0.35569   1.000
    C608    C    0.60833   0.95297   0.18903   1.000
    C609    C    0.04703   0.65537   0.18903   1.000
    C610    C    0.34463   0.39167   0.18903   1.000
    C611    C    0.61963   0.94167   0.64431   1.000
    C612    C    0.32203   0.38037   0.64431   1.000
    C613    C    0.05833   0.67797   0.64431   1.000
    C614    C    0.05833   0.38037   0.14431   1.000
    C615    C    0.61963   0.67797   0.14431   1.000
    C616    C    0.32203   0.94167   0.14431   1.000
    C617    C    0.04703   0.39167   0.68903   1.000
    C618    C    0.34463   0.95297   0.68903   1.000
    C619    C    0.60833   0.65537   0.68903   1.000
    C620    C    0.74070   0.02140   0.51810   1.000
    C621    C    0.97860   0.71930   0.51810   1.000
    C622    C    0.25930   0.28070   0.98190   1.000
    C623    C    0.02140   0.74070   0.98190   1.000
    C624    C    0.71930   0.97860   0.98190   1.000
    C625    C    0.71930   0.74070   0.48190   1.000
    C626    C    0.25930   0.97860   0.48190   1.000
    C627    C    0.02140   0.28070   0.48190   1.000
    C628    C    0.74070   0.71930   0.01810   1.000
    C629    C    0.97860   0.25930   0.01810   1.000
    C630    C    0.28070   0.02140   0.01810   1.000
    C631    C    0.94737   0.59263   0.85143   1.000
    C632    C    0.40737   0.35473   0.85143   1.000
    C633    C    0.64527   0.05263   0.85143   1.000
    C634    C    0.92597   0.61403   0.31523   1.000
    C635    C    0.68807   0.07403   0.31523   1.000
    C636    C    0.38597   0.31193   0.31523   1.000
    C637    C    0.38597   0.07403   0.81523   1.000
    C638    C    0.92597   0.31193   0.81523   1.000
    C639    C    0.68807   0.61403   0.81523   1.000
    C640    C    0.40737   0.05263   0.35143   1.000
    C641    C    0.64527   0.59263   0.35143   1.000
    C642    C    0.94737   0.35473   0.35143   1.000
    C643    C    0.61403   0.92597   0.18477   1.000
    C644    C    0.07403   0.68807   0.18477   1.000
    C645    C    0.31193   0.38597   0.18477   1.000
    C646    C    0.59263   0.94737   0.64857   1.000
    C647    C    0.35473   0.40737   0.64857   1.000
    C648    C    0.05263   0.64527   0.64857   1.000
    C649    C    0.05263   0.40737   0.14857   1.000
    C650    C    0.59263   0.64527   0.14857   1.000
    C651    C    0.35473   0.94737   0.14857   1.000
    C652    C    0.07403   0.38597   0.68477   1.000
    C653    C    0.31193   0.92597   0.68477   1.000
    C654    C    0.61403   0.68807   0.68477   1.000
    C655    C    0.60800   0.92940   0.52280   1.000
    C656    C    0.07060   0.67860   0.52280   1.000
    C657    C    0.39200   0.32140   0.97720   1.000
    C658    C    0.92940   0.60800   0.97720   1.000
    C659    C    0.67860   0.07060   0.97720   1.000
    C660    C    0.67860   0.60800   0.47720   1.000
    C661    C    0.39200   0.07060   0.47720   1.000
    C662    C    0.92940   0.32140   0.47720   1.000
    C663    C    0.60800   0.67860   0.02280   1.000
    C664    C    0.07060   0.39200   0.02280   1.000
    C665    C    0.32140   0.92940   0.02280   1.000
    C666    C    0.98807   0.72533   0.85613   1.000
    C667    C    0.27467   0.26273   0.85613   1.000
    C668    C    0.73727   0.01193   0.85613   1.000
    C669    C    0.05867   0.65473   0.31053   1.000
    C670    C    0.59607   0.94133   0.31053   1.000
    C671    C    0.34527   0.40393   0.31053   1.000
    C672    C    0.34527   0.94133   0.81053   1.000
    C673    C    0.05867   0.40393   0.81053   1.000
    C674    C    0.59607   0.65473   0.81053   1.000
    C675    C    0.27467   0.01193   0.35613   1.000
    C676    C    0.73727   0.72533   0.35613   1.000
    C677    C    0.98807   0.26273   0.35613   1.000
    C678    C    0.65473   0.05867   0.18947   1.000
    C679    C    0.94133   0.59607   0.18947   1.000
    C680    C    0.40393   0.34527   0.18947   1.000
    C681    C    0.72533   0.98807   0.64387   1.000
    C682    C    0.26273   0.27467   0.64387   1.000
    C683    C    0.01193   0.73727   0.64387   1.000
    C684    C    0.01193   0.27467   0.14387   1.000
    C685    C    0.72533   0.73727   0.14387   1.000
    C686    C    0.26273   0.98807   0.14387   1.000
    C687    C    0.94133   0.34527   0.68947   1.000
    C688    C    0.40393   0.05867   0.68947   1.000
    C689    C    0.65473   0.59607   0.68947   1.000
    C690    C    0.57340   0.92070   0.52670   1.000
    C691    C    0.07930   0.65270   0.52670   1.000
    C692    C    0.42660   0.34730   0.97330   1.000
    C693    C    0.92070   0.57340   0.97330   1.000
    C694    C    0.65270   0.07930   0.97330   1.000
    C695    C    0.65270   0.57340   0.47330   1.000
    C696    C    0.42660   0.07930   0.47330   1.000
    C697    C    0.92070   0.34730   0.47330   1.000
    C698    C    0.57340   0.65270   0.02670   1.000
    C699    C    0.07930   0.42660   0.02670   1.000
    C700    C    0.34730   0.92070   0.02670   1.000
    C701    C    0.01397   0.75993   0.86003   1.000
    C702    C    0.24007   0.25403   0.86003   1.000
    C703    C    0.74597   0.98603   0.86003   1.000
    C704    C    0.09327   0.68063   0.30663   1.000
    C705    C    0.58737   0.90673   0.30663   1.000
    C706    C    0.31937   0.41263   0.30663   1.000
    C707    C    0.31937   0.90673   0.80663   1.000
    C708    C    0.09327   0.41263   0.80663   1.000
    C709    C    0.58737   0.68063   0.80663   1.000
    C710    C    0.24007   0.98603   0.36003   1.000
    C711    C    0.74597   0.75993   0.36003   1.000
    C712    C    0.01397   0.25403   0.36003   1.000
    C713    C    0.68063   0.09327   0.19337   1.000
    C714    C    0.90673   0.58737   0.19337   1.000
    C715    C    0.41263   0.31937   0.19337   1.000
    C716    C    0.75993   0.01397   0.63997   1.000
    C717    C    0.25403   0.24007   0.63997   1.000
    C718    C    0.98603   0.74597   0.63997   1.000
    C719    C    0.98603   0.24007   0.13997   1.000
    C720    C    0.75993   0.74597   0.13997   1.000
    C721    C    0.25403   0.01397   0.13997   1.000
    C722    C    0.90673   0.31937   0.69337   1.000
    C723    C    0.41263   0.09327   0.69337   1.000
    C724    C    0.68063   0.58737   0.69337   1.000
    C725    C    0.86740   0.95720   0.54405   1.000
    C726    C    0.04280   0.91020   0.54405   1.000
    C727    C    0.13260   0.08980   0.95595   1.000
    C728    C    0.95720   0.86740   0.95595   1.000
    C729    C    0.91020   0.04280   0.95595   1.000
    C730    C    0.91020   0.86740   0.45595   1.000
    C731    C    0.13260   0.04280   0.45595   1.000
    C732    C    0.95720   0.08980   0.45595   1.000
    C733    C    0.86740   0.91020   0.04405   1.000
    C734    C    0.04280   0.13260   0.04405   1.000
    C735    C    0.08980   0.95720   0.04405   1.000
    C736    C    0.75647   0.46593   0.87738   1.000
    C737    C    0.53407   0.29053   0.87738   1.000
    C738    C    0.70947   0.24353   0.87738   1.000
    C739    C    0.79927   0.42313   0.28928   1.000
    C740    C    0.62387   0.20073   0.28928   1.000
    C741    C    0.57687   0.37613   0.28928   1.000
    C742    C    0.57687   0.20073   0.78928   1.000
    C743    C    0.79927   0.37613   0.78928   1.000
    C744    C    0.62387   0.42313   0.78928   1.000
    C745    C    0.53407   0.24353   0.37738   1.000
    C746    C    0.70947   0.46593   0.37738   1.000
    C747    C    0.75647   0.29053   0.37738   1.000
    C748    C    0.42313   0.79927   0.21072   1.000
    C749    C    0.20073   0.62387   0.21072   1.000
    C750    C    0.37613   0.57687   0.21072   1.000
    C751    C    0.46593   0.75647   0.62262   1.000
    C752    C    0.29053   0.53407   0.62262   1.000
    C753    C    0.24353   0.70947   0.62262   1.000
    C754    C    0.24353   0.53407   0.12262   1.000
    C755    C    0.46593   0.70947   0.12262   1.000
    C756    C    0.29053   0.75647   0.12262   1.000
    C757    C    0.20073   0.57687   0.71072   1.000
    C758    C    0.37613   0.79927   0.71072   1.000
    C759    C    0.42313   0.62387   0.71072   1.000
    C760    C    0.81010   0.93140   0.53659   1.000
    C761    C    0.06860   0.87870   0.53659   1.000
    C762    C    0.18990   0.12130   0.96341   1.000
    C763    C    0.93140   0.81010   0.96341   1.000
    C764    C    0.87870   0.06860   0.96341   1.000
    C765    C    0.87870   0.81010   0.46341   1.000
    C766    C    0.18990   0.06860   0.46341   1.000
    C767    C    0.93140   0.12130   0.46341   1.000
    C768    C    0.81010   0.87870   0.03659   1.000
    C769    C    0.06860   0.18990   0.03659   1.000
    C770    C    0.12130   0.93140   0.03659   1.000
    C771    C    0.78797   0.52323   0.86992   1.000
    C772    C    0.47677   0.26473   0.86992   1.000
    C773    C    0.73527   0.21203   0.86992   1.000
    C774    C    0.85657   0.45463   0.29674   1.000
    C775    C    0.59807   0.14343   0.29674   1.000
    C776    C    0.54537   0.40193   0.29674   1.000
    C777    C    0.54537   0.14343   0.79674   1.000
    C778    C    0.85657   0.40193   0.79674   1.000
    C779    C    0.59807   0.45463   0.79674   1.000
    C780    C    0.47677   0.21203   0.36992   1.000
    C781    C    0.73527   0.52323   0.36992   1.000
    C782    C    0.78797   0.26473   0.36992   1.000
    C783    C    0.45463   0.85657   0.20326   1.000
    C784    C    0.14343   0.59807   0.20326   1.000
    C785    C    0.40193   0.54537   0.20326   1.000
    C786    C    0.52323   0.78797   0.63008   1.000
    C787    C    0.26473   0.47677   0.63008   1.000
    C788    C    0.21203   0.73527   0.63008   1.000
    C789    C    0.21203   0.47677   0.13008   1.000
    C790    C    0.52323   0.73527   0.13008   1.000
    C791    C    0.26473   0.78797   0.13008   1.000
    C792    C    0.14343   0.54537   0.70326   1.000
    C793    C    0.40193   0.85657   0.70326   1.000
    C794    C    0.45463   0.59807   0.70326   1.000
    C795    C    0.79110   0.97270   0.53280   1.000
    C796    C    0.02730   0.81840   0.53280   1.000
    C797    C    0.20890   0.18160   0.96720   1.000
    C798    C    0.97270   0.79110   0.96720   1.000
    C799    C    0.81840   0.02730   0.96720   1.000
    C800    C    0.81840   0.79110   0.46720   1.000
    C801    C    0.20890   0.02730   0.46720   1.000
    C802    C    0.97270   0.18160   0.46720   1.000
    C803    C    0.79110   0.81840   0.03280   1.000
    C804    C    0.02730   0.20890   0.03280   1.000
    C805    C    0.18160   0.97270   0.03280   1.000
    C806    C    0.84827   0.54223   0.86613   1.000
    C807    C    0.45777   0.30603   0.86613   1.000
    C808    C    0.69397   0.15173   0.86613   1.000
    C809    C    0.87557   0.51493   0.30053   1.000
    C810    C    0.63937   0.12443   0.30053   1.000
    C811    C    0.48507   0.36063   0.30053   1.000
    C812    C    0.48507   0.12443   0.80053   1.000
    C813    C    0.87557   0.36063   0.80053   1.000
    C814    C    0.63937   0.51493   0.80053   1.000
    C815    C    0.45777   0.15173   0.36613   1.000
    C816    C    0.69397   0.54223   0.36613   1.000
    C817    C    0.84827   0.30603   0.36613   1.000
    C818    C    0.51493   0.87557   0.19947   1.000
    C819    C    0.12443   0.63937   0.19947   1.000
    C820    C    0.36063   0.48507   0.19947   1.000
    C821    C    0.54223   0.84827   0.63387   1.000
    C822    C    0.30603   0.45777   0.63387   1.000
    C823    C    0.15173   0.69397   0.63387   1.000
    C824    C    0.15173   0.45777   0.13387   1.000
    C825    C    0.54223   0.69397   0.13387   1.000
    C826    C    0.30603   0.84827   0.13387   1.000
    C827    C    0.12443   0.48507   0.69947   1.000
    C828    C    0.36063   0.87557   0.69947   1.000
    C829    C    0.51493   0.63937   0.69947   1.000
    C830    C    0.81430   0.01650   0.53460   1.000
    C831    C    0.98350   0.79780   0.53460   1.000
    C832    C    0.18570   0.20220   0.96540   1.000
    C833    C    0.01650   0.81430   0.96540   1.000
    C834    C    0.79780   0.98350   0.96540   1.000
    C835    C    0.79780   0.81430   0.46540   1.000
    C836    C    0.18570   0.98350   0.46540   1.000
    C837    C    0.01650   0.20220   0.46540   1.000
    C838    C    0.81430   0.79780   0.03460   1.000
    C839    C    0.98350   0.18570   0.03460   1.000
    C840    C    0.20220   0.01650   0.03460   1.000
    C841    C    0.86887   0.51903   0.86793   1.000
    C842    C    0.48097   0.34983   0.86793   1.000
    C843    C    0.65017   0.13113   0.86793   1.000
    C844    C    0.85237   0.53553   0.29873   1.000
    C845    C    0.68317   0.14763   0.29873   1.000
    C846    C    0.46447   0.31683   0.29873   1.000
    C847    C    0.46447   0.14763   0.79873   1.000
    C848    C    0.85237   0.31683   0.79873   1.000
    C849    C    0.68317   0.53553   0.79873   1.000
    C850    C    0.48097   0.13113   0.36793   1.000
    C851    C    0.65017   0.51903   0.36793   1.000
    C852    C    0.86887   0.34983   0.36793   1.000
    C853    C    0.53553   0.85237   0.20127   1.000
    C854    C    0.14763   0.68317   0.20127   1.000
    C855    C    0.31683   0.46447   0.20127   1.000
    C856    C    0.51903   0.86887   0.63207   1.000
    C857    C    0.34983   0.48097   0.63207   1.000
    C858    C    0.13113   0.65017   0.63207   1.000
    C859    C    0.13113   0.48097   0.13207   1.000
    C860    C    0.51903   0.65017   0.13207   1.000
    C861    C    0.34983   0.86887   0.13207   1.000
    C862    C    0.14763   0.46447   0.70127   1.000
    C863    C    0.31683   0.85237   0.70127   1.000
    C864    C    0.53553   0.68317   0.70127   1.000
    C865    C    0.73500   0.94640   0.52598   1.000
    C866    C    0.05360   0.78860   0.52598   1.000
    C867    C    0.26500   0.21140   0.97402   1.000
    C868    C    0.94640   0.73500   0.97402   1.000
    C869    C    0.78860   0.05360   0.97402   1.000
    C870    C    0.78860   0.73500   0.47402   1.000
    C871    C    0.26500   0.05360   0.47402   1.000
    C872    C    0.94640   0.21140   0.47402   1.000
    C873    C    0.73500   0.78860   0.02598   1.000
    C874    C    0.05360   0.26500   0.02598   1.000
    C875    C    0.21140   0.94640   0.02598   1.000
    C876    C    0.87807   0.59833   0.85931   1.000
    C877    C    0.40167   0.27973   0.85931   1.000
    C878    C    0.72027   0.12193   0.85931   1.000
    C879    C    0.93167   0.54473   0.30735   1.000
    C880    C    0.61307   0.06833   0.30735   1.000
    C881    C    0.45527   0.38693   0.30735   1.000
    C882    C    0.45527   0.06833   0.80735   1.000
    C883    C    0.93167   0.38693   0.80735   1.000
    C884    C    0.61307   0.54473   0.80735   1.000
    C885    C    0.40167   0.12193   0.35931   1.000
    C886    C    0.72027   0.59833   0.35931   1.000
    C887    C    0.87807   0.27973   0.35931   1.000
    C888    C    0.54473   0.93167   0.19265   1.000
    C889    C    0.06833   0.61307   0.19265   1.000
    C890    C    0.38693   0.45527   0.19265   1.000
    C891    C    0.59833   0.87807   0.64069   1.000
    C892    C    0.27973   0.40167   0.64069   1.000
    C893    C    0.12193   0.72027   0.64069   1.000
    C894    C    0.12193   0.40167   0.14069   1.000
    C895    C    0.59833   0.72027   0.14069   1.000
    C896    C    0.27973   0.87807   0.14069   1.000
    C897    C    0.06833   0.45527   0.69265   1.000
    C898    C    0.38693   0.93167   0.69265   1.000
    C899    C    0.54473   0.61307   0.69265   1.000
    C900    C    0.69760   0.88040   0.52376   1.000
    C901    C    0.11960   0.81720   0.52376   1.000
    C902    C    0.30240   0.18280   0.97624   1.000
    C903    C    0.88040   0.69760   0.97624   1.000
    C904    C    0.81720   0.11960   0.97624   1.000
    C905    C    0.81720   0.69760   0.47624   1.000
    C906    C    0.30240   0.11960   0.47624   1.000
    C907    C    0.88040   0.18280   0.47624   1.000
    C908    C    0.69760   0.81720   0.02376   1.000
    C909    C    0.11960   0.30240   0.02376   1.000
    C910    C    0.18280   0.88040   0.02376   1.000
    C911    C    0.84947   0.63573   0.85709   1.000
    C912    C    0.36427   0.21373   0.85709   1.000
    C913    C    0.78627   0.15053   0.85709   1.000
    C914    C    0.96907   0.51613   0.30957   1.000
    C915    C    0.54707   0.03093   0.30957   1.000
    C916    C    0.48387   0.45293   0.30957   1.000
    C917    C    0.48387   0.03093   0.80957   1.000
    C918    C    0.96907   0.45293   0.80957   1.000
    C919    C    0.54707   0.51613   0.80957   1.000
    C920    C    0.36427   0.15053   0.35709   1.000
    C921    C    0.78627   0.63573   0.35709   1.000
    C922    C    0.84947   0.21373   0.35709   1.000
    C923    C    0.51613   0.96907   0.19043   1.000
    C924    C    0.03093   0.54707   0.19043   1.000
    C925    C    0.45293   0.48387   0.19043   1.000
    C926    C    0.63573   0.84947   0.64291   1.000
    C927    C    0.21373   0.36427   0.64291   1.000
    C928    C    0.15053   0.78627   0.64291   1.000
    C929    C    0.15053   0.36427   0.14291   1.000
    C930    C    0.63573   0.78627   0.14291   1.000
    C931    C    0.21373   0.84947   0.14291   1.000
    C932    C    0.03093   0.48387   0.69043   1.000
    C933    C    0.45293   0.96907   0.69043   1.000
    C934    C    0.51613   0.54707   0.69043   1.000
    C935    C    0.71870   0.84450   0.52800   1.000
    C936    C    0.15550   0.87420   0.52800   1.000
    C937    C    0.28130   0.12580   0.97200   1.000
    C938    C    0.84450   0.71870   0.97200   1.000
    C939    C    0.87420   0.15550   0.97200   1.000
    C940    C    0.87420   0.71870   0.47200   1.000
    C941    C    0.28130   0.15550   0.47200   1.000
    C942    C    0.84450   0.12580   0.47200   1.000
    C943    C    0.71870   0.87420   0.02800   1.000
    C944    C    0.15550   0.28130   0.02800   1.000
    C945    C    0.12580   0.84450   0.02800   1.000
    C946    C    0.79247   0.61463   0.86133   1.000
    C947    C    0.38537   0.17783   0.86133   1.000
    C948    C    0.82217   0.20753   0.86133   1.000
    C949    C    0.94797   0.45913   0.30533   1.000
    C950    C    0.51117   0.05203   0.30533   1.000
    C951    C    0.54087   0.48883   0.30533   1.000
    C952    C    0.54087   0.05203   0.80533   1.000
    C953    C    0.94797   0.48883   0.80533   1.000
    C954    C    0.51117   0.45913   0.80533   1.000
    C955    C    0.38537   0.20753   0.36133   1.000
    C956    C    0.82217   0.61463   0.36133   1.000
    C957    C    0.79247   0.17783   0.36133   1.000
    C958    C    0.45913   0.94797   0.19467   1.000
    C959    C    0.05203   0.51117   0.19467   1.000
    C960    C    0.48883   0.54087   0.19467   1.000
    C961    C    0.61463   0.79247   0.63867   1.000
    C962    C    0.17783   0.38537   0.63867   1.000
    C963    C    0.20753   0.82217   0.63867   1.000
    C964    C    0.20753   0.38537   0.13867   1.000
    C965    C    0.61463   0.82217   0.13867   1.000
    C966    C    0.17783   0.79247   0.13867   1.000
    C967    C    0.05203   0.54087   0.69467   1.000
    C968    C    0.48883   0.94797   0.69467   1.000
    C969    C    0.45913   0.51117   0.69467   1.000
    C970    C    0.69340   0.80060   0.52660   1.000
    C971    C    0.19940   0.89280   0.52660   1.000
    C972    C    0.30660   0.10720   0.97340   1.000
    C973    C    0.80060   0.69340   0.97340   1.000
    C974    C    0.89280   0.19940   0.97340   1.000
    C975    C    0.89280   0.69340   0.47340   1.000
    C976    C    0.30660   0.19940   0.47340   1.000
    C977    C    0.80060   0.10720   0.47340   1.000
    C978    C    0.69340   0.89280   0.02660   1.000
    C979    C    0.19940   0.30660   0.02660   1.000
    C980    C    0.10720   0.80060   0.02660   1.000
    C981    C    0.77387   0.63993   0.85993   1.000
    C982    C    0.36007   0.13393   0.85993   1.000
    C983    C    0.86607   0.22613   0.85993   1.000
    C984    C    0.97327   0.44053   0.30673   1.000
    C985    C    0.46727   0.02673   0.30673   1.000
    C986    C    0.55947   0.53273   0.30673   1.000
    C987    C    0.55947   0.02673   0.80673   1.000
    C988    C    0.97327   0.53273   0.80673   1.000
    C989    C    0.46727   0.44053   0.80673   1.000
    C990    C    0.36007   0.22613   0.35993   1.000
    C991    C    0.86607   0.63993   0.35993   1.000
    C992    C    0.77387   0.13393   0.35993   1.000
    C993    C    0.44053   0.97327   0.19327   1.000
    C994    C    0.02673   0.46727   0.19327   1.000
    C995    C    0.53273   0.55947   0.19327   1.000
    C996    C    0.63993   0.77387   0.64007   1.000
    C997    C    0.13393   0.36007   0.64007   1.000
    C998    C    0.22613   0.86607   0.64007   1.000
    C999    C    0.22613   0.36007   0.14007   1.000
    C1000   C    0.63993   0.86607   0.14007   1.000
    C1001   C    0.13393   0.77387   0.14007   1.000
    C1002   C    0.02673   0.55947   0.69327   1.000
    C1003   C    0.53273   0.97327   0.69327   1.000
    C1004   C    0.44053   0.46727   0.69327   1.000
    C1005   C    0.77540   0.86400   0.53460   1.000
    C1006   C    0.13600   0.91140   0.53460   1.000
    C1007   C    0.22460   0.08860   0.96540   1.000
    C1008   C    0.86400   0.77540   0.96540   1.000
    C1009   C    0.91140   0.13600   0.96540   1.000
    C1010   C    0.91140   0.77540   0.46540   1.000
    C1011   C    0.22460   0.13600   0.46540   1.000
    C1012   C    0.86400   0.08860   0.46540   1.000
    C1013   C    0.77540   0.91140   0.03460   1.000
    C1014   C    0.13600   0.22460   0.03460   1.000
    C1015   C    0.08860   0.86400   0.03460   1.000
    C1016   C    0.75527   0.55793   0.86793   1.000
    C1017   C    0.44207   0.19733   0.86793   1.000
    C1018   C    0.80267   0.24473   0.86793   1.000
    C1019   C    0.89127   0.42193   0.29873   1.000
    C1020   C    0.53067   0.10873   0.29873   1.000
    C1021   C    0.57807   0.46933   0.29873   1.000
    C1022   C    0.57807   0.10873   0.79873   1.000
    C1023   C    0.89127   0.46933   0.79873   1.000
    C1024   C    0.53067   0.42193   0.79873   1.000
    C1025   C    0.44207   0.24473   0.36793   1.000
    C1026   C    0.80267   0.55793   0.36793   1.000
    C1027   C    0.75527   0.19733   0.36793   1.000
    C1028   C    0.42193   0.89127   0.20127   1.000
    C1029   C    0.10873   0.53067   0.20127   1.000
    C1030   C    0.46933   0.57807   0.20127   1.000
    C1031   C    0.55793   0.75527   0.63207   1.000
    C1032   C    0.19733   0.44207   0.63207   1.000
    C1033   C    0.24473   0.80267   0.63207   1.000
    C1034   C    0.24473   0.44207   0.13207   1.000
    C1035   C    0.55793   0.80267   0.13207   1.000
    C1036   C    0.19733   0.75527   0.13207   1.000
    C1037   C    0.10873   0.57807   0.70127   1.000
    C1038   C    0.46933   0.89127   0.70127   1.000
    C1039   C    0.42193   0.53067   0.70127   1.000
    C1040   C    0.78880   0.83600   0.53740   1.000
    C1041   C    0.16400   0.95280   0.53740   1.000
    C1042   C    0.21120   0.04720   0.96260   1.000
    C1043   C    0.83600   0.78880   0.96260   1.000
    C1044   C    0.95280   0.16400   0.96260   1.000
    C1045   C    0.95280   0.78880   0.46260   1.000
    C1046   C    0.21120   0.16400   0.46260   1.000
    C1047   C    0.83600   0.04720   0.46260   1.000
    C1048   C    0.78880   0.95280   0.03740   1.000
    C1049   C    0.16400   0.21120   0.03740   1.000
    C1050   C    0.04720   0.83600   0.03740   1.000
    C1051   C    0.71387   0.54453   0.87073   1.000
    C1052   C    0.45547   0.16933   0.87073   1.000
    C1053   C    0.83067   0.28613   0.87073   1.000
    C1054   C    0.87787   0.38053   0.29593   1.000
    C1055   C    0.50267   0.12213   0.29593   1.000
    C1056   C    0.61947   0.49733   0.29593   1.000
    C1057   C    0.61947   0.12213   0.79593   1.000
    C1058   C    0.87787   0.49733   0.79593   1.000
    C1059   C    0.50267   0.38053   0.79593   1.000
    C1060   C    0.45547   0.28613   0.37073   1.000
    C1061   C    0.83067   0.54453   0.37073   1.000
    C1062   C    0.71387   0.16933   0.37073   1.000
    C1063   C    0.38053   0.87787   0.20407   1.000
    C1064   C    0.12213   0.50267   0.20407   1.000
    C1065   C    0.49733   0.61947   0.20407   1.000
    C1066   C    0.54453   0.71387   0.62927   1.000
    C1067   C    0.16933   0.45547   0.62927   1.000
    C1068   C    0.28613   0.83067   0.62927   1.000
    C1069   C    0.28613   0.45547   0.12927   1.000
    C1070   C    0.54453   0.83067   0.12927   1.000
    C1071   C    0.16933   0.71387   0.12927   1.000
    C1072   C    0.12213   0.61947   0.70407   1.000
    C1073   C    0.49733   0.87787   0.70407   1.000
    C1074   C    0.38053   0.50267   0.70407   1.000
    C1075   C    0.65280   0.98470   0.52478   1.000
    C1076   C    0.01530   0.66810   0.52478   1.000
    C1077   C    0.34720   0.33190   0.97522   1.000
    C1078   C    0.98470   0.65280   0.97522   1.000
    C1079   C    0.66810   0.01530   0.97522   1.000
    C1080   C    0.66810   0.65280   0.47522   1.000
    C1081   C    0.34720   0.01530   0.47522   1.000
    C1082   C    0.98470   0.33190   0.47522   1.000
    C1083   C    0.65280   0.66810   0.02478   1.000
    C1084   C    0.01530   0.34720   0.02478   1.000
    C1085   C    0.33190   0.98470   0.02478   1.000
    C1086   C    0.99857   0.68053   0.85811   1.000
    C1087   C    0.31947   0.31803   0.85811   1.000
    C1088   C    0.68197   0.00143   0.85811   1.000
    C1089   C    0.01387   0.66523   0.30855   1.000
    C1090   C    0.65137   0.98613   0.30855   1.000
    C1091   C    0.33477   0.34863   0.30855   1.000
    C1092   C    0.33477   0.98613   0.80855   1.000
    C1093   C    0.01387   0.34863   0.80855   1.000
    C1094   C    0.65137   0.66523   0.80855   1.000
    C1095   C    0.31947   0.00143   0.35811   1.000
    C1096   C    0.68197   0.68053   0.35811   1.000
    C1097   C    0.99857   0.31803   0.35811   1.000
    C1098   C    0.66523   0.01387   0.19145   1.000
    C1099   C    0.98613   0.65137   0.19145   1.000
    C1100   C    0.34863   0.33477   0.19145   1.000
    C1101   C    0.68053   0.99857   0.64189   1.000
    C1102   C    0.31803   0.31947   0.64189   1.000
    C1103   C    0.00143   0.68197   0.64189   1.000
    C1104   C    0.00143   0.31947   0.14189   1.000
    C1105   C    0.68053   0.68197   0.14189   1.000
    C1106   C    0.31803   0.99857   0.14189   1.000
    C1107   C    0.98613   0.33477   0.69145   1.000
    C1108   C    0.34863   0.01387   0.69145   1.000
    C1109   C    0.66523   0.65137   0.69145   1.000
    C1110   C    0.64270   0.85100   0.51654   1.000
    C1111   C    0.14900   0.79170   0.51654   1.000
    C1112   C    0.35730   0.20830   0.98346   1.000
    C1113   C    0.85100   0.64270   0.98346   1.000
    C1114   C    0.79170   0.14900   0.98346   1.000
    C1115   C    0.79170   0.64270   0.48346   1.000
    C1116   C    0.35730   0.14900   0.48346   1.000
    C1117   C    0.85100   0.20830   0.48346   1.000
    C1118   C    0.64270   0.79170   0.01654   1.000
    C1119   C    0.14900   0.35730   0.01654   1.000
    C1120   C    0.20830   0.85100   0.01654   1.000
    C1121   C    0.87497   0.69063   0.84987   1.000
    C1122   C    0.30937   0.18433   0.84987   1.000
    C1123   C    0.81567   0.12503   0.84987   1.000
    C1124   C    0.02397   0.54163   0.31679   1.000
    C1125   C    0.51767   0.97603   0.31679   1.000
    C1126   C    0.45837   0.48233   0.31679   1.000
    C1127   C    0.45837   0.97603   0.81679   1.000
    C1128   C    0.02397   0.48233   0.81679   1.000
    C1129   C    0.51767   0.54163   0.81679   1.000
    C1130   C    0.30937   0.12503   0.34987   1.000
    C1131   C    0.81567   0.69063   0.34987   1.000
    C1132   C    0.87497   0.18433   0.34987   1.000
    C1133   C    0.54163   0.02397   0.18321   1.000
    C1134   C    0.97603   0.51767   0.18321   1.000
    C1135   C    0.48233   0.45837   0.18321   1.000
    C1136   C    0.69063   0.87497   0.65013   1.000
    C1137   C    0.18433   0.30937   0.65013   1.000
    C1138   C    0.12503   0.81567   0.65013   1.000
    C1139   C    0.12503   0.30937   0.15013   1.000
    C1140   C    0.69063   0.81567   0.15013   1.000
    C1141   C    0.18433   0.87497   0.15013   1.000
    C1142   C    0.97603   0.45837   0.68321   1.000
    C1143   C    0.48233   0.02397   0.68321   1.000
    C1144   C    0.54163   0.51767   0.68321   1.000
    C1145   C    0.60030   0.87620   0.51548   1.000
    C1146   C    0.12380   0.72410   0.51548   1.000
    C1147   C    0.39970   0.27590   0.98452   1.000
    C1148   C    0.87620   0.60030   0.98452   1.000
    C1149   C    0.72410   0.12380   0.98452   1.000
    C1150   C    0.72410   0.60030   0.48452   1.000
    C1151   C    0.39970   0.12380   0.48452   1.000
    C1152   C    0.87620   0.27590   0.48452   1.000
    C1153   C    0.60030   0.72410   0.01548   1.000
    C1154   C    0.12380   0.39970   0.01548   1.000
    C1155   C    0.27590   0.87620   0.01548   1.000
    C1156   C    0.94257   0.73303   0.84881   1.000
    C1157   C    0.26697   0.20953   0.84881   1.000
    C1158   C    0.79047   0.05743   0.84881   1.000
    C1159   C    0.06637   0.60923   0.31785   1.000
    C1160   C    0.54287   0.93363   0.31785   1.000
    C1161   C    0.39077   0.45713   0.31785   1.000
    C1162   C    0.39077   0.93363   0.81785   1.000
    C1163   C    0.06637   0.45713   0.81785   1.000
    C1164   C    0.54287   0.60923   0.81785   1.000
    C1165   C    0.26697   0.05743   0.34881   1.000
    C1166   C    0.79047   0.73303   0.34881   1.000
    C1167   C    0.94257   0.20953   0.34881   1.000
    C1168   C    0.60923   0.06637   0.18215   1.000
    C1169   C    0.93363   0.54287   0.18215   1.000
    C1170   C    0.45713   0.39077   0.18215   1.000
    C1171   C    0.73303   0.94257   0.65119   1.000
    C1172   C    0.20953   0.26697   0.65119   1.000
    C1173   C    0.05743   0.79047   0.65119   1.000
    C1174   C    0.05743   0.26697   0.15119   1.000
    C1175   C    0.73303   0.79047   0.15119   1.000
    C1176   C    0.20953   0.94257   0.15119   1.000
    C1177   C    0.93363   0.39077   0.68215   1.000
    C1178   C    0.45713   0.06637   0.68215   1.000
    C1179   C    0.60923   0.54287   0.68215   1.000
    C1180   C    0.54710   0.84830   0.50836   1.000
    C1181   C    0.15170   0.69880   0.50836   1.000
    C1182   C    0.45290   0.30120   0.99164   1.000
    C1183   C    0.84830   0.54710   0.99164   1.000
    C1184   C    0.69880   0.15170   0.99164   1.000
    C1185   C    0.69880   0.54710   0.49164   1.000
    C1186   C    0.45290   0.15170   0.49164   1.000
    C1187   C    0.84830   0.30120   0.49164   1.000
    C1188   C    0.54710   0.69880   0.00836   1.000
    C1189   C    0.15170   0.45290   0.00836   1.000
    C1190   C    0.30120   0.84830   0.00836   1.000
    C1191   C    0.96787   0.78623   0.84169   1.000
    C1192   C    0.21377   0.18163   0.84169   1.000
    C1193   C    0.81837   0.03213   0.84169   1.000
    C1194   C    0.11957   0.63453   0.32497   1.000
    C1195   C    0.51497   0.88043   0.32497   1.000
    C1196   C    0.36547   0.48503   0.32497   1.000
    C1197   C    0.36547   0.88043   0.82497   1.000
    C1198   C    0.11957   0.48503   0.82497   1.000
    C1199   C    0.51497   0.63453   0.82497   1.000
    C1200   C    0.21377   0.03213   0.34169   1.000
    C1201   C    0.81837   0.78623   0.34169   1.000
    C1202   C    0.96787   0.18163   0.34169   1.000
    C1203   C    0.63453   0.11957   0.17503   1.000
    C1204   C    0.88043   0.51497   0.17503   1.000
    C1205   C    0.48503   0.36547   0.17503   1.000
    C1206   C    0.78623   0.96787   0.65831   1.000
    C1207   C    0.18163   0.21377   0.65831   1.000
    C1208   C    0.03213   0.81837   0.65831   1.000
    C1209   C    0.03213   0.21377   0.15831   1.000
    C1210   C    0.78623   0.81837   0.15831   1.000
    C1211   C    0.18163   0.96787   0.15831   1.000
    C1212   C    0.88043   0.36547   0.67503   1.000
    C1213   C    0.48503   0.11957   0.67503   1.000
    C1214   C    0.63453   0.51497   0.67503   1.000
    C1215   C    0.51940   0.86480   0.50770   1.000
    C1216   C    0.13520   0.65460   0.50770   1.000
    C1217   C    0.48060   0.34540   0.99230   1.000
    C1218   C    0.86480   0.51940   0.99230   1.000
    C1219   C    0.65460   0.13520   0.99230   1.000
    C1220   C    0.65460   0.51940   0.49230   1.000
    C1221   C    0.48060   0.13520   0.49230   1.000
    C1222   C    0.86480   0.34540   0.49230   1.000
    C1223   C    0.51940   0.65460   0.00770   1.000
    C1224   C    0.13520   0.48060   0.00770   1.000
    C1225   C    0.34540   0.86480   0.00770   1.000
    C1226   C    0.01207   0.81393   0.84103   1.000
    C1227   C    0.18607   0.19813   0.84103   1.000
    C1228   C    0.80187   0.98793   0.84103   1.000
    C1229   C    0.14727   0.67873   0.32563   1.000
    C1230   C    0.53147   0.85273   0.32563   1.000
    C1231   C    0.32127   0.46853   0.32563   1.000
    C1232   C    0.32127   0.85273   0.82563   1.000
    C1233   C    0.14727   0.46853   0.82563   1.000
    C1234   C    0.53147   0.67873   0.82563   1.000
    C1235   C    0.18607   0.98793   0.34103   1.000
    C1236   C    0.80187   0.81393   0.34103   1.000
    C1237   C    0.01207   0.19813   0.34103   1.000
    C1238   C    0.67873   0.14727   0.17437   1.000
    C1239   C    0.85273   0.53147   0.17437   1.000
    C1240   C    0.46853   0.32127   0.17437   1.000
    C1241   C    0.81393   0.01207   0.65897   1.000
    C1242   C    0.19813   0.18607   0.65897   1.000
    C1243   C    0.98793   0.80187   0.65897   1.000
    C1244   C    0.98793   0.18607   0.15897   1.000
    C1245   C    0.81393   0.80187   0.15897   1.000
    C1246   C    0.19813   0.01207   0.15897   1.000
    C1247   C    0.85273   0.32127   0.67437   1.000
    C1248   C    0.46853   0.14727   0.67437   1.000
    C1249   C    0.67873   0.53147   0.67437   1.000
    C1250   C    0.53650   0.79280   0.50206   1.000
    C1251   C    0.20720   0.74370   0.50206   1.000
    C1252   C    0.46350   0.25630   0.99794   1.000
    C1253   C    0.79280   0.53650   0.99794   1.000
    C1254   C    0.74370   0.20720   0.99794   1.000
    C1255   C    0.74370   0.53650   0.49794   1.000
    C1256   C    0.46350   0.20720   0.49794   1.000
    C1257   C    0.79280   0.25630   0.49794   1.000
    C1258   C    0.53650   0.74370   0.00206   1.000
    C1259   C    0.20720   0.46350   0.00206   1.000
    C1260   C    0.25630   0.79280   0.00206   1.000
    C1261   C    0.92297   0.79683   0.83539   1.000
    C1262   C    0.20317   0.12613   0.83539   1.000
    C1263   C    0.87387   0.07703   0.83539   1.000
    C1264   C    0.13017   0.58963   0.33127   1.000
    C1265   C    0.45947   0.86983   0.33127   1.000
    C1266   C    0.41037   0.54053   0.33127   1.000
    C1267   C    0.41037   0.86983   0.83127   1.000
    C1268   C    0.13017   0.54053   0.83127   1.000
    C1269   C    0.45947   0.58963   0.83127   1.000
    C1270   C    0.20317   0.07703   0.33539   1.000
    C1271   C    0.87387   0.79683   0.33539   1.000
    C1272   C    0.92297   0.12613   0.33539   1.000
    C1273   C    0.58963   0.13017   0.16873   1.000
    C1274   C    0.86983   0.45947   0.16873   1.000
    C1275   C    0.54053   0.41037   0.16873   1.000
    C1276   C    0.79683   0.92297   0.66461   1.000
    C1277   C    0.12613   0.20317   0.66461   1.000
    C1278   C    0.07703   0.87387   0.66461   1.000
    C1279   C    0.07703   0.20317   0.16461   1.000
    C1280   C    0.79683   0.87387   0.16461   1.000
    C1281   C    0.12613   0.92297   0.16461   1.000
    C1282   C    0.86983   0.41037   0.66873   1.000
    C1283   C    0.54053   0.13017   0.66873   1.000
    C1284   C    0.58963   0.45947   0.66873   1.000
    C1285   C    0.58150   0.77270   0.50200   1.000
    C1286   C    0.22730   0.80880   0.50200   1.000
    C1287   C    0.41850   0.19120   0.99800   1.000
    C1288   C    0.77270   0.58150   0.99800   1.000
    C1289   C    0.80880   0.22730   0.99800   1.000
    C1290   C    0.80880   0.58150   0.49800   1.000
    C1291   C    0.41850   0.22730   0.49800   1.000
    C1292   C    0.77270   0.19120   0.49800   1.000
    C1293   C    0.58150   0.80880   0.00200   1.000
    C1294   C    0.22730   0.41850   0.00200   1.000
    C1295   C    0.19120   0.77270   0.00200   1.000
    C1296   C    0.85787   0.75183   0.83533   1.000
    C1297   C    0.24817   0.10603   0.83533   1.000
    C1298   C    0.89397   0.14213   0.83533   1.000
    C1299   C    0.08517   0.52453   0.33133   1.000
    C1300   C    0.43937   0.91483   0.33133   1.000
    C1301   C    0.47547   0.56063   0.33133   1.000
    C1302   C    0.47547   0.91483   0.83133   1.000
    C1303   C    0.08517   0.56063   0.83133   1.000
    C1304   C    0.43937   0.52453   0.83133   1.000
    C1305   C    0.24817   0.14213   0.33533   1.000
    C1306   C    0.89397   0.75183   0.33533   1.000
    C1307   C    0.85787   0.10603   0.33533   1.000
    C1308   C    0.52453   0.08517   0.16867   1.000
    C1309   C    0.91483   0.43937   0.16867   1.000
    C1310   C    0.56063   0.47547   0.16867   1.000
    C1311   C    0.75183   0.85787   0.66467   1.000
    C1312   C    0.10603   0.24817   0.66467   1.000
    C1313   C    0.14213   0.89397   0.66467   1.000
    C1314   C    0.14213   0.24817   0.16467   1.000
    C1315   C    0.75183   0.89397   0.16467   1.000
    C1316   C    0.10603   0.85787   0.16467   1.000
    C1317   C    0.91483   0.47547   0.66867   1.000
    C1318   C    0.56063   0.08517   0.66867   1.000
    C1319   C    0.52453   0.43937   0.66867   1.000
    C1320   C    0.57300   0.73640   0.49750   1.000
    C1321   C    0.26360   0.83660   0.49750   1.000
    C1322   C    0.42700   0.16340   0.00250   1.000
    C1323   C    0.73640   0.57300   0.00250   1.000
    C1324   C    0.83660   0.26360   0.00250   1.000
    C1325   C    0.83660   0.57300   0.50250   1.000
    C1326   C    0.42700   0.26360   0.50250   1.000
    C1327   C    0.73640   0.16340   0.50250   1.000
    C1328   C    0.57300   0.83660   0.99750   1.000
    C1329   C    0.26360   0.42700   0.99750   1.000
    C1330   C    0.16340   0.73640   0.99750   1.000
    C1331   C    0.83007   0.76033   0.83083   1.000
    C1332   C    0.23967   0.06973   0.83083   1.000
    C1333   C    0.93027   0.16993   0.83083   1.000
    C1334   C    0.09367   0.49673   0.33583   1.000
    C1335   C    0.40307   0.90633   0.33583   1.000
    C1336   C    0.50327   0.59693   0.33583   1.000
    C1337   C    0.50327   0.90633   0.83583   1.000
    C1338   C    0.09367   0.59693   0.83583   1.000
    C1339   C    0.40307   0.49673   0.83583   1.000
    C1340   C    0.23967   0.16993   0.33083   1.000
    C1341   C    0.93027   0.76033   0.33083   1.000
    C1342   C    0.83007   0.06973   0.33083   1.000
    C1343   C    0.49673   0.09367   0.16417   1.000
    C1344   C    0.90633   0.40307   0.16417   1.000
    C1345   C    0.59693   0.50327   0.16417   1.000
    C1346   C    0.76033   0.83007   0.66917   1.000
    C1347   C    0.06973   0.23967   0.66917   1.000
    C1348   C    0.16993   0.93027   0.66917   1.000
    C1349   C    0.16993   0.23967   0.16917   1.000
    C1350   C    0.76033   0.93027   0.16917   1.000
    C1351   C    0.06973   0.83007   0.16917   1.000
    C1352   C    0.90633   0.50327   0.66417   1.000
    C1353   C    0.59693   0.09367   0.66417   1.000
    C1354   C    0.49673   0.40307   0.66417   1.000
    C1355   C    0.63340   0.80160   0.50780   1.000
    C1356   C    0.19840   0.83180   0.50780   1.000
    C1357   C    0.36660   0.16820   0.99220   1.000
    C1358   C    0.80160   0.63340   0.99220   1.000
    C1359   C    0.83180   0.19840   0.99220   1.000
    C1360   C    0.83180   0.63340   0.49220   1.000
    C1361   C    0.36660   0.19840   0.49220   1.000
    C1362   C    0.80160   0.16820   0.49220   1.000
    C1363   C    0.63340   0.83180   0.00780   1.000
    C1364   C    0.19840   0.36660   0.00780   1.000
    C1365   C    0.16820   0.80160   0.00780   1.000
    C1366   C    0.83487   0.69993   0.84113   1.000
    C1367   C    0.30007   0.13493   0.84113   1.000
    C1368   C    0.86507   0.16513   0.84113   1.000
    C1369   C    0.03327   0.50153   0.32553   1.000
    C1370   C    0.46827   0.96673   0.32553   1.000
    C1371   C    0.49847   0.53173   0.32553   1.000
    C1372   C    0.49847   0.96673   0.82553   1.000
    C1373   C    0.03327   0.53173   0.82553   1.000
    C1374   C    0.46827   0.50153   0.82553   1.000
    C1375   C    0.30007   0.16513   0.34113   1.000
    C1376   C    0.86507   0.69993   0.34113   1.000
    C1377   C    0.83487   0.13493   0.34113   1.000
    C1378   C    0.50153   0.03327   0.17447   1.000
    C1379   C    0.96673   0.46827   0.17447   1.000
    C1380   C    0.53173   0.49847   0.17447   1.000
    C1381   C    0.69993   0.83487   0.65887   1.000
    C1382   C    0.13493   0.30007   0.65887   1.000
    C1383   C    0.16513   0.86507   0.65887   1.000
    C1384   C    0.16513   0.30007   0.15887   1.000
    C1385   C    0.69993   0.86507   0.15887   1.000
    C1386   C    0.13493   0.83487   0.15887   1.000
    C1387   C    0.96673   0.49847   0.67447   1.000
    C1388   C    0.53173   0.03327   0.67447   1.000
    C1389   C    0.50153   0.46827   0.67447   1.000
    C1390   C    0.66580   0.79160   0.50650   1.000
    C1391   C    0.20840   0.87420   0.50650   1.000
    C1392   C    0.33420   0.12580   0.99350   1.000
    C1393   C    0.79160   0.66580   0.99350   1.000
    C1394   C    0.87420   0.20840   0.99350   1.000
    C1395   C    0.87420   0.66580   0.49350   1.000
    C1396   C    0.33420   0.20840   0.49350   1.000
    C1397   C    0.79160   0.12580   0.49350   1.000
    C1398   C    0.66580   0.87420   0.00650   1.000
    C1399   C    0.20840   0.33420   0.00650   1.000
    C1400   C    0.12580   0.79160   0.00650   1.000
    C1401   C    0.79247   0.66753   0.83983   1.000
    C1402   C    0.33247   0.12493   0.83983   1.000
    C1403   C    0.87507   0.20753   0.83983   1.000
    C1404   C    0.00087   0.45913   0.32683   1.000
    C1405   C    0.45827   0.99913   0.32683   1.000
    C1406   C    0.54087   0.54173   0.32683   1.000
    C1407   C    0.54087   0.99913   0.82683   1.000
    C1408   C    0.00087   0.54173   0.82683   1.000
    C1409   C    0.45827   0.45913   0.82683   1.000
    C1410   C    0.33247   0.20753   0.33983   1.000
    C1411   C    0.87507   0.66753   0.33983   1.000
    C1412   C    0.79247   0.12493   0.33983   1.000
    C1413   C    0.45913   0.00087   0.17317   1.000
    C1414   C    0.99913   0.45827   0.17317   1.000
    C1415   C    0.54173   0.54087   0.17317   1.000
    C1416   C    0.66753   0.79247   0.66017   1.000
    C1417   C    0.12493   0.33247   0.66017   1.000
    C1418   C    0.20753   0.87507   0.66017   1.000
    C1419   C    0.20753   0.33247   0.16017   1.000
    C1420   C    0.66753   0.87507   0.16017   1.000
    C1421   C    0.12493   0.79247   0.16017   1.000
    C1422   C    0.99913   0.54087   0.67317   1.000
    C1423   C    0.54173   0.00087   0.67317   1.000
    C1424   C    0.45913   0.45827   0.67317   1.000
    C1425   C    0.47200   0.76130   0.49590   1.000
    C1426   C    0.23870   0.71070   0.49590   1.000
    C1427   C    0.52800   0.28930   0.00410   1.000
    C1428   C    0.76130   0.47200   0.00410   1.000
    C1429   C    0.71070   0.23870   0.00410   1.000
    C1430   C    0.71070   0.47200   0.50410   1.000
    C1431   C    0.52800   0.23870   0.50410   1.000
    C1432   C    0.76130   0.28930   0.50410   1.000
    C1433   C    0.47200   0.71070   0.99590   1.000
    C1434   C    0.23870   0.52800   0.99590   1.000
    C1435   C    0.28930   0.76130   0.99590   1.000
    C1436   C    0.95597   0.86133   0.82923   1.000
    C1437   C    0.13867   0.09463   0.82923   1.000
    C1438   C    0.90537   0.04403   0.82923   1.000
    C1439   C    0.19467   0.62263   0.33743   1.000
    C1440   C    0.42797   0.80533   0.33743   1.000
    C1441   C    0.37737   0.57203   0.33743   1.000
    C1442   C    0.37737   0.80533   0.83743   1.000
    C1443   C    0.19467   0.57203   0.83743   1.000
    C1444   C    0.42797   0.62263   0.83743   1.000
    C1445   C    0.13867   0.04403   0.32923   1.000
    C1446   C    0.90537   0.86133   0.32923   1.000
    C1447   C    0.95597   0.09463   0.32923   1.000
    C1448   C    0.62263   0.19467   0.16257   1.000
    C1449   C    0.80533   0.42797   0.16257   1.000
    C1450   C    0.57203   0.37737   0.16257   1.000
    C1451   C    0.86133   0.95597   0.67077   1.000
    C1452   C    0.09463   0.13867   0.67077   1.000
    C1453   C    0.04403   0.90537   0.67077   1.000
    C1454   C    0.04403   0.13867   0.17077   1.000
    C1455   C    0.86133   0.90537   0.17077   1.000
    C1456   C    0.09463   0.95597   0.17077   1.000
    C1457   C    0.80533   0.37737   0.66257   1.000
    C1458   C    0.57203   0.19467   0.66257   1.000
    C1459   C    0.62263   0.42797   0.66257   1.000
    C1460   C    0.20070   0.59880   0.46170   1.000
    C1461   C    0.40120   0.60190   0.46170   1.000
    C1462   C    0.79930   0.39810   0.03830   1.000
    C1463   C    0.59880   0.20070   0.03830   1.000
    C1464   C    0.60190   0.40120   0.03830   1.000
    C1465   C    0.60190   0.20070   0.53830   1.000
    C1466   C    0.79930   0.40120   0.53830   1.000
    C1467   C    0.59880   0.39810   0.53830   1.000
    C1468   C    0.20070   0.60190   0.96170   1.000
    C1469   C    0.40120   0.79930   0.96170   1.000
    C1470   C    0.39810   0.59880   0.96170   1.000
    C1471   C    0.06477   0.13263   0.79503   1.000
    C1472   C    0.86737   0.93213   0.79503   1.000
    C1473   C    0.06787   0.93523   0.79503   1.000
    C1474   C    0.46597   0.73143   0.37163   1.000
    C1475   C    0.26547   0.53403   0.37163   1.000
    C1476   C    0.26857   0.73453   0.37163   1.000
    C1477   C    0.26857   0.53403   0.87163   1.000
    C1478   C    0.46597   0.73453   0.87163   1.000
    C1479   C    0.26547   0.73143   0.87163   1.000
    C1480   C    0.86737   0.93523   0.29503   1.000
    C1481   C    0.06787   0.13263   0.29503   1.000
    C1482   C    0.06477   0.93213   0.29503   1.000
    C1483   C    0.73143   0.46597   0.12837   1.000
    C1484   C    0.53403   0.26547   0.12837   1.000
    C1485   C    0.73453   0.26857   0.12837   1.000
    C1486   C    0.13263   0.06477   0.70497   1.000
    C1487   C    0.93213   0.86737   0.70497   1.000
    C1488   C    0.93523   0.06787   0.70497   1.000
    C1489   C    0.93523   0.86737   0.20497   1.000
    C1490   C    0.13263   0.06787   0.20497   1.000
    C1491   C    0.93213   0.06477   0.20497   1.000
    C1492   C    0.53403   0.26857   0.62837   1.000
    C1493   C    0.73453   0.46597   0.62837   1.000
    C1494   C    0.73143   0.26547   0.62837   1.000
    C1495   C    0.13940   0.57090   0.45471   1.000
    C1496   C    0.42910   0.56850   0.45471   1.000
    C1497   C    0.86060   0.43150   0.04529   1.000
    C1498   C    0.57090   0.13940   0.04529   1.000
    C1499   C    0.56850   0.42910   0.04529   1.000
    C1500   C    0.56850   0.13940   0.54529   1.000
    C1501   C    0.86060   0.42910   0.54529   1.000
    C1502   C    0.57090   0.43150   0.54529   1.000
    C1503   C    0.13940   0.56850   0.95471   1.000
    C1504   C    0.42910   0.86060   0.95471   1.000
    C1505   C    0.43150   0.57090   0.95471   1.000
    C1506   C    0.09817   0.19393   0.78804   1.000
    C1507   C    0.80607   0.90423   0.78804   1.000
    C1508   C    0.09577   0.90183   0.78804   1.000
    C1509   C    0.52727   0.76483   0.37862   1.000
    C1510   C    0.23757   0.47273   0.37862   1.000
    C1511   C    0.23517   0.76243   0.37862   1.000
    C1512   C    0.23517   0.47273   0.87862   1.000
    C1513   C    0.52727   0.76243   0.87862   1.000
    C1514   C    0.23757   0.76483   0.87862   1.000
    C1515   C    0.80607   0.90183   0.28804   1.000
    C1516   C    0.09577   0.19393   0.28804   1.000
    C1517   C    0.09817   0.90423   0.28804   1.000
    C1518   C    0.76483   0.52727   0.12138   1.000
    C1519   C    0.47273   0.23757   0.12138   1.000
    C1520   C    0.76243   0.23517   0.12138   1.000
    C1521   C    0.19393   0.09817   0.71196   1.000
    C1522   C    0.90423   0.80607   0.71196   1.000
    C1523   C    0.90183   0.09577   0.71196   1.000
    C1524   C    0.90183   0.80607   0.21196   1.000
    C1525   C    0.19393   0.09577   0.21196   1.000
    C1526   C    0.90423   0.09817   0.21196   1.000
    C1527   C    0.47273   0.23517   0.62138   1.000
    C1528   C    0.76243   0.52727   0.62138   1.000
    C1529   C    0.76483   0.23757   0.62138   1.000
    C1530   C    0.14260   0.60040   0.44407   1.000
    C1531   C    0.39960   0.54220   0.44407   1.000
    C1532   C    0.85740   0.45780   0.05593   1.000
    C1533   C    0.60040   0.14260   0.05593   1.000
    C1534   C    0.54220   0.39960   0.05593   1.000
    C1535   C    0.54220   0.14260   0.55593   1.000
    C1536   C    0.85740   0.39960   0.55593   1.000
    C1537   C    0.60040   0.45780   0.55593   1.000
    C1538   C    0.14260   0.54220   0.94407   1.000
    C1539   C    0.39960   0.85740   0.94407   1.000
    C1540   C    0.45780   0.60040   0.94407   1.000
    C1541   C    0.12447   0.19073   0.77740   1.000
    C1542   C    0.80927   0.93373   0.77740   1.000
    C1543   C    0.06627   0.87553   0.77740   1.000
    C1544   C    0.52407   0.79113   0.38926   1.000
    C1545   C    0.26707   0.47593   0.38926   1.000
    C1546   C    0.20887   0.73293   0.38926   1.000
    C1547   C    0.20887   0.47593   0.88926   1.000
    C1548   C    0.52407   0.73293   0.88926   1.000
    C1549   C    0.26707   0.79113   0.88926   1.000
    C1550   C    0.80927   0.87553   0.27740   1.000
    C1551   C    0.06627   0.19073   0.27740   1.000
    C1552   C    0.12447   0.93373   0.27740   1.000
    C1553   C    0.79113   0.52407   0.11074   1.000
    C1554   C    0.47593   0.26707   0.11074   1.000
    C1555   C    0.73293   0.20887   0.11074   1.000
    C1556   C    0.19073   0.12447   0.72260   1.000
    C1557   C    0.93373   0.80927   0.72260   1.000
    C1558   C    0.87553   0.06627   0.72260   1.000
    C1559   C    0.87553   0.80927   0.22260   1.000
    C1560   C    0.19073   0.06627   0.22260   1.000
    C1561   C    0.93373   0.12447   0.22260   1.000
    C1562   C    0.47593   0.20887   0.61074   1.000
    C1563   C    0.73293   0.52407   0.61074   1.000
    C1564   C    0.79113   0.26707   0.61074   1.000
    C1565   C    0.18080   0.63500   0.44120   1.000
    C1566   C    0.36500   0.54580   0.44120   1.000
    C1567   C    0.81920   0.45420   0.05880   1.000
    C1568   C    0.63500   0.18080   0.05880   1.000
    C1569   C    0.54580   0.36500   0.05880   1.000
    C1570   C    0.54580   0.18080   0.55880   1.000
    C1571   C    0.81920   0.36500   0.55880   1.000
    C1572   C    0.63500   0.45420   0.55880   1.000
    C1573   C    0.18080   0.54580   0.94120   1.000
    C1574   C    0.36500   0.81920   0.94120   1.000
    C1575   C    0.45420   0.63500   0.94120   1.000
    C1576   C    0.12087   0.15253   0.77453   1.000
    C1577   C    0.84747   0.96833   0.77453   1.000
    C1578   C    0.03167   0.87913   0.77453   1.000
    C1579   C    0.48587   0.78753   0.39213   1.000
    C1580   C    0.30167   0.51413   0.39213   1.000
    C1581   C    0.21247   0.69833   0.39213   1.000
    C1582   C    0.21247   0.51413   0.89213   1.000
    C1583   C    0.48587   0.69833   0.89213   1.000
    C1584   C    0.30167   0.78753   0.89213   1.000
    C1585   C    0.84747   0.87913   0.27453   1.000
    C1586   C    0.03167   0.15253   0.27453   1.000
    C1587   C    0.12087   0.96833   0.27453   1.000
    C1588   C    0.78753   0.48587   0.10787   1.000
    C1589   C    0.51413   0.30167   0.10787   1.000
    C1590   C    0.69833   0.21247   0.10787   1.000
    C1591   C    0.15253   0.12087   0.72547   1.000
    C1592   C    0.96833   0.84747   0.72547   1.000
    C1593   C    0.87913   0.03167   0.72547   1.000
    C1594   C    0.87913   0.84747   0.22547   1.000
    C1595   C    0.15253   0.03167   0.22547   1.000
    C1596   C    0.96833   0.12087   0.22547   1.000
    C1597   C    0.51413   0.21247   0.60787   1.000
    C1598   C    0.69833   0.48587   0.60787   1.000
    C1599   C    0.78753   0.30167   0.60787   1.000
    C1600   C    0.08430   0.57520   0.43760   1.000
    C1601   C    0.42480   0.50910   0.43760   1.000
    C1602   C    0.91570   0.49090   0.06240   1.000
    C1603   C    0.57520   0.08430   0.06240   1.000
    C1604   C    0.50910   0.42480   0.06240   1.000
    C1605   C    0.50910   0.08430   0.56240   1.000
    C1606   C    0.91570   0.42480   0.56240   1.000
    C1607   C    0.57520   0.49090   0.56240   1.000
    C1608   C    0.08430   0.50910   0.93760   1.000
    C1609   C    0.42480   0.91570   0.93760   1.000
    C1610   C    0.49090   0.57520   0.93760   1.000
    C1611   C    0.15757   0.24903   0.77093   1.000
    C1612   C    0.75097   0.90853   0.77093   1.000
    C1613   C    0.09147   0.84243   0.77093   1.000
    C1614   C    0.58237   0.82423   0.39573   1.000
    C1615   C    0.24187   0.41763   0.39573   1.000
    C1616   C    0.17577   0.75813   0.39573   1.000
    C1617   C    0.17577   0.41763   0.89573   1.000
    C1618   C    0.58237   0.75813   0.89573   1.000
    C1619   C    0.24187   0.82423   0.89573   1.000
    C1620   C    0.75097   0.84243   0.27093   1.000
    C1621   C    0.09147   0.24903   0.27093   1.000
    C1622   C    0.15757   0.90853   0.27093   1.000
    C1623   C    0.82423   0.58237   0.10427   1.000
    C1624   C    0.41763   0.24187   0.10427   1.000
    C1625   C    0.75813   0.17577   0.10427   1.000
    C1626   C    0.24903   0.15757   0.72907   1.000
    C1627   C    0.90853   0.75097   0.72907   1.000
    C1628   C    0.84243   0.09147   0.72907   1.000
    C1629   C    0.84243   0.75097   0.22907   1.000
    C1630   C    0.24903   0.09147   0.22907   1.000
    C1631   C    0.90853   0.15757   0.22907   1.000
    C1632   C    0.41763   0.17577   0.60427   1.000
    C1633   C    0.75813   0.58237   0.60427   1.000
    C1634   C    0.82423   0.24187   0.60427   1.000
    C1635   C    0.02970   0.52270   0.44147   1.000
    C1636   C    0.47730   0.50700   0.44147   1.000
    C1637   C    0.97030   0.49300   0.05853   1.000
    C1638   C    0.52270   0.02970   0.05853   1.000
    C1639   C    0.50700   0.47730   0.05853   1.000
    C1640   C    0.50700   0.02970   0.55853   1.000
    C1641   C    0.97030   0.47730   0.55853   1.000
    C1642   C    0.52270   0.49300   0.55853   1.000
    C1643   C    0.02970   0.50700   0.94147   1.000
    C1644   C    0.47730   0.97030   0.94147   1.000
    C1645   C    0.49300   0.52270   0.94147   1.000
    C1646   C    0.15967   0.30363   0.77480   1.000
    C1647   C    0.69637   0.85603   0.77480   1.000
    C1648   C    0.14397   0.84033   0.77480   1.000
    C1649   C    0.63697   0.82633   0.39186   1.000
    C1650   C    0.18937   0.36303   0.39186   1.000
    C1651   C    0.17367   0.81063   0.39186   1.000
    C1652   C    0.17367   0.36303   0.89186   1.000
    C1653   C    0.63697   0.81063   0.89186   1.000
    C1654   C    0.18937   0.82633   0.89186   1.000
    C1655   C    0.69637   0.84033   0.27480   1.000
    C1656   C    0.14397   0.30363   0.27480   1.000
    C1657   C    0.15967   0.85603   0.27480   1.000
    C1658   C    0.82633   0.63697   0.10814   1.000
    C1659   C    0.36303   0.18937   0.10814   1.000
    C1660   C    0.81063   0.17367   0.10814   1.000
    C1661   C    0.30363   0.15967   0.72520   1.000
    C1662   C    0.85603   0.69637   0.72520   1.000
    C1663   C    0.84033   0.14397   0.72520   1.000
    C1664   C    0.84033   0.69637   0.22520   1.000
    C1665   C    0.30363   0.14397   0.22520   1.000
    C1666   C    0.85603   0.15967   0.22520   1.000
    C1667   C    0.36303   0.17367   0.60814   1.000
    C1668   C    0.81063   0.63697   0.60814   1.000
    C1669   C    0.82633   0.18937   0.60814   1.000
    C1670   C    0.03140   0.49690   0.45156   1.000
    C1671   C    0.50310   0.53450   0.45156   1.000
    C1672   C    0.96860   0.46550   0.04844   1.000
    C1673   C    0.49690   0.03140   0.04844   1.000
    C1674   C    0.53450   0.50310   0.04844   1.000
    C1675   C    0.53450   0.03140   0.54844   1.000
    C1676   C    0.96860   0.50310   0.54844   1.000
    C1677   C    0.49690   0.46550   0.54844   1.000
    C1678   C    0.03140   0.53450   0.95156   1.000
    C1679   C    0.50310   0.96860   0.95156   1.000
    C1680   C    0.46550   0.49690   0.95156   1.000
    C1681   C    0.13217   0.30193   0.78489   1.000
    C1682   C    0.69807   0.83023   0.78489   1.000
    C1683   C    0.16977   0.86783   0.78489   1.000
    C1684   C    0.63527   0.79883   0.38177   1.000
    C1685   C    0.16357   0.36473   0.38177   1.000
    C1686   C    0.20117   0.83643   0.38177   1.000
    C1687   C    0.20117   0.36473   0.88177   1.000
    C1688   C    0.63527   0.83643   0.88177   1.000
    C1689   C    0.16357   0.79883   0.88177   1.000
    C1690   C    0.69807   0.86783   0.28489   1.000
    C1691   C    0.16977   0.30193   0.28489   1.000
    C1692   C    0.13217   0.83023   0.28489   1.000
    C1693   C    0.79883   0.63527   0.11823   1.000
    C1694   C    0.36473   0.16357   0.11823   1.000
    C1695   C    0.83643   0.20117   0.11823   1.000
    C1696   C    0.30193   0.13217   0.71511   1.000
    C1697   C    0.83023   0.69807   0.71511   1.000
    C1698   C    0.86783   0.16977   0.71511   1.000
    C1699   C    0.86783   0.69807   0.21511   1.000
    C1700   C    0.30193   0.16977   0.21511   1.000
    C1701   C    0.83023   0.13217   0.21511   1.000
    C1702   C    0.36473   0.20117   0.61823   1.000
    C1703   C    0.83643   0.63527   0.61823   1.000
    C1704   C    0.79883   0.16357   0.61823   1.000
    C1705   C    0.08820   0.52000   0.45855   1.000
    C1706   C    0.48000   0.56820   0.45855   1.000
    C1707   C    0.91180   0.43180   0.04145   1.000
    C1708   C    0.52000   0.08820   0.04145   1.000
    C1709   C    0.56820   0.48000   0.04145   1.000
    C1710   C    0.56820   0.08820   0.54145   1.000
    C1711   C    0.91180   0.48000   0.54145   1.000
    C1712   C    0.52000   0.43180   0.54145   1.000
    C1713   C    0.08820   0.56820   0.95855   1.000
    C1714   C    0.48000   0.91180   0.95855   1.000
    C1715   C    0.43180   0.52000   0.95855   1.000
    C1716   C    0.09847   0.24513   0.79188   1.000
    C1717   C    0.75487   0.85333   0.79188   1.000
    C1718   C    0.14667   0.90153   0.79188   1.000
    C1719   C    0.57847   0.76513   0.37478   1.000
    C1720   C    0.18667   0.42153   0.37478   1.000
    C1721   C    0.23487   0.81333   0.37478   1.000
    C1722   C    0.23487   0.42153   0.87478   1.000
    C1723   C    0.57847   0.81333   0.87478   1.000
    C1724   C    0.18667   0.76513   0.87478   1.000
    C1725   C    0.75487   0.90153   0.29188   1.000
    C1726   C    0.14667   0.24513   0.29188   1.000
    C1727   C    0.09847   0.85333   0.29188   1.000
    C1728   C    0.76513   0.57847   0.12522   1.000
    C1729   C    0.42153   0.18667   0.12522   1.000
    C1730   C    0.81333   0.23487   0.12522   1.000
    C1731   C    0.24513   0.09847   0.70812   1.000
    C1732   C    0.85333   0.75487   0.70812   1.000
    C1733   C    0.90153   0.14667   0.70812   1.000
    C1734   C    0.90153   0.75487   0.20812   1.000
    C1735   C    0.24513   0.14667   0.20812   1.000
    C1736   C    0.85333   0.09847   0.20812   1.000
    C1737   C    0.42153   0.23487   0.62522   1.000
    C1738   C    0.81333   0.57847   0.62522   1.000
    C1739   C    0.76513   0.18667   0.62522   1.000
    C1740   C    0.08870   0.49940   0.46560   1.000
    C1741   C    0.50060   0.58930   0.46560   1.000
    C1742   C    0.91130   0.41070   0.03440   1.000
    C1743   C    0.49940   0.08870   0.03440   1.000
    C1744   C    0.58930   0.50060   0.03440   1.000
    C1745   C    0.58930   0.08870   0.53440   1.000
    C1746   C    0.91130   0.50060   0.53440   1.000
    C1747   C    0.49940   0.41070   0.53440   1.000
    C1748   C    0.08870   0.58930   0.96560   1.000
    C1749   C    0.50060   0.91130   0.96560   1.000
    C1750   C    0.41070   0.49940   0.96560   1.000
    C1751   C    0.07737   0.24463   0.79893   1.000
    C1752   C    0.75537   0.83273   0.79893   1.000
    C1753   C    0.16727   0.92263   0.79893   1.000
    C1754   C    0.57797   0.74403   0.36773   1.000
    C1755   C    0.16607   0.42203   0.36773   1.000
    C1756   C    0.25597   0.83393   0.36773   1.000
    C1757   C    0.25597   0.42203   0.86773   1.000
    C1758   C    0.57797   0.83393   0.86773   1.000
    C1759   C    0.16607   0.74403   0.86773   1.000
    C1760   C    0.75537   0.92263   0.29893   1.000
    C1761   C    0.16727   0.24463   0.29893   1.000
    C1762   C    0.07737   0.83273   0.29893   1.000
    C1763   C    0.74403   0.57797   0.13227   1.000
    C1764   C    0.42203   0.16607   0.13227   1.000
    C1765   C    0.83393   0.25597   0.13227   1.000
    C1766   C    0.24463   0.07737   0.70107   1.000
    C1767   C    0.83273   0.75537   0.70107   1.000
    C1768   C    0.92263   0.16727   0.70107   1.000
    C1769   C    0.92263   0.75537   0.20107   1.000
    C1770   C    0.24463   0.16727   0.20107   1.000
    C1771   C    0.83273   0.07737   0.20107   1.000
    C1772   C    0.42203   0.25597   0.63227   1.000
    C1773   C    0.83393   0.57797   0.63227   1.000
    C1774   C    0.74403   0.16607   0.63227   1.000
    C1775   C    0.97330   0.49690   0.43478   1.000
    C1776   C    0.50310   0.47640   0.43478   1.000
    C1777   C    0.02670   0.52360   0.06522   1.000
    C1778   C    0.49690   0.97330   0.06522   1.000
    C1779   C    0.47640   0.50310   0.06522   1.000
    C1780   C    0.47640   0.97330   0.56522   1.000
    C1781   C    0.02670   0.50310   0.56522   1.000
    C1782   C    0.49690   0.52360   0.56522   1.000
    C1783   C    0.97330   0.47640   0.93478   1.000
    C1784   C    0.50310   0.02670   0.93478   1.000
    C1785   C    0.52360   0.49690   0.93478   1.000
    C1786   C    0.19027   0.36003   0.76811   1.000
    C1787   C    0.63997   0.83023   0.76811   1.000
    C1788   C    0.16977   0.80973   0.76811   1.000
    C1789   C    0.69337   0.85693   0.39855   1.000
    C1790   C    0.16357   0.30663   0.39855   1.000
    C1791   C    0.14307   0.83643   0.39855   1.000
    C1792   C    0.14307   0.30663   0.89855   1.000
    C1793   C    0.69337   0.83643   0.89855   1.000
    C1794   C    0.16357   0.85693   0.89855   1.000
    C1795   C    0.63997   0.80973   0.26811   1.000
    C1796   C    0.16977   0.36003   0.26811   1.000
    C1797   C    0.19027   0.83023   0.26811   1.000
    C1798   C    0.85693   0.69337   0.10145   1.000
    C1799   C    0.30663   0.16357   0.10145   1.000
    C1800   C    0.83643   0.14307   0.10145   1.000
    C1801   C    0.36003   0.19027   0.73189   1.000
    C1802   C    0.83023   0.63997   0.73189   1.000
    C1803   C    0.80973   0.16977   0.73189   1.000
    C1804   C    0.80973   0.63997   0.23189   1.000
    C1805   C    0.36003   0.16977   0.23189   1.000
    C1806   C    0.83023   0.19027   0.23189   1.000
    C1807   C    0.30663   0.14307   0.60145   1.000
    C1808   C    0.83643   0.69337   0.60145   1.000
    C1809   C    0.85693   0.16357   0.60145   1.000
    C1810   C    0.97490   0.50020   0.42209   1.000
    C1811   C    0.49980   0.47470   0.42209   1.000
    C1812   C    0.02510   0.52530   0.07791   1.000
    C1813   C    0.50020   0.97490   0.07791   1.000
    C1814   C    0.47470   0.49980   0.07791   1.000
    C1815   C    0.47470   0.97490   0.57791   1.000
    C1816   C    0.02510   0.49980   0.57791   1.000
    C1817   C    0.50020   0.52530   0.57791   1.000
    C1818   C    0.97490   0.47470   0.92209   1.000
    C1819   C    0.49980   0.02510   0.92209   1.000
    C1820   C    0.52530   0.50020   0.92209   1.000
    C1821   C    0.19197   0.35843   0.75542   1.000
    C1822   C    0.64157   0.83353   0.75542   1.000
    C1823   C    0.16647   0.80803   0.75542   1.000
    C1824   C    0.69177   0.85863   0.41124   1.000
    C1825   C    0.16687   0.30823   0.41124   1.000
    C1826   C    0.14137   0.83313   0.41124   1.000
    C1827   C    0.14137   0.30823   0.91124   1.000
    C1828   C    0.69177   0.83313   0.91124   1.000
    C1829   C    0.16687   0.85863   0.91124   1.000
    C1830   C    0.64157   0.80803   0.25542   1.000
    C1831   C    0.16647   0.35843   0.25542   1.000
    C1832   C    0.19197   0.83353   0.25542   1.000
    C1833   C    0.85863   0.69177   0.08876   1.000
    C1834   C    0.30823   0.16687   0.08876   1.000
    C1835   C    0.83313   0.14137   0.08876   1.000
    C1836   C    0.35843   0.19197   0.74458   1.000
    C1837   C    0.83353   0.64157   0.74458   1.000
    C1838   C    0.80803   0.16647   0.74458   1.000
    C1839   C    0.80803   0.64157   0.24458   1.000
    C1840   C    0.35843   0.16647   0.24458   1.000
    C1841   C    0.83353   0.19197   0.24458   1.000
    C1842   C    0.30823   0.14137   0.58876   1.000
    C1843   C    0.83313   0.69177   0.58876   1.000
    C1844   C    0.85863   0.16687   0.58876   1.000
    C1845   C    0.92120   0.47260   0.41588   1.000
    C1846   C    0.52740   0.44860   0.41588   1.000
    C1847   C    0.07880   0.55140   0.08412   1.000
    C1848   C    0.47260   0.92120   0.08412   1.000
    C1849   C    0.44860   0.52740   0.08412   1.000
    C1850   C    0.44860   0.92120   0.58412   1.000
    C1851   C    0.07880   0.52740   0.58412   1.000
    C1852   C    0.47260   0.55140   0.58412   1.000
    C1853   C    0.92120   0.44860   0.91588   1.000
    C1854   C    0.52740   0.07880   0.91588   1.000
    C1855   C    0.55140   0.47260   0.91588   1.000
    C1856   C    0.21807   0.41213   0.74921   1.000
    C1857   C    0.58787   0.80593   0.74921   1.000
    C1858   C    0.19407   0.78193   0.74921   1.000
    C1859   C    0.74547   0.88473   0.41745   1.000
    C1860   C    0.13927   0.25453   0.41745   1.000
    C1861   C    0.11527   0.86073   0.41745   1.000
    C1862   C    0.11527   0.25453   0.91745   1.000
    C1863   C    0.74547   0.86073   0.91745   1.000
    C1864   C    0.13927   0.88473   0.91745   1.000
    C1865   C    0.58787   0.78193   0.24921   1.000
    C1866   C    0.19407   0.41213   0.24921   1.000
    C1867   C    0.21807   0.80593   0.24921   1.000
    C1868   C    0.88473   0.74547   0.08255   1.000
    C1869   C    0.25453   0.13927   0.08255   1.000
    C1870   C    0.86073   0.11527   0.08255   1.000
    C1871   C    0.41213   0.21807   0.75079   1.000
    C1872   C    0.80593   0.58787   0.75079   1.000
    C1873   C    0.78193   0.19407   0.75079   1.000
    C1874   C    0.78193   0.58787   0.25079   1.000
    C1875   C    0.41213   0.19407   0.25079   1.000
    C1876   C    0.80593   0.21807   0.25079   1.000
    C1877   C    0.25453   0.11527   0.58255   1.000
    C1878   C    0.86073   0.74547   0.58255   1.000
    C1879   C    0.88473   0.13927   0.58255   1.000
    C1880   C    0.92330   0.47300   0.40750   1.000
    C1881   C    0.52700   0.45030   0.40750   1.000
    C1882   C    0.07670   0.54970   0.09250   1.000
    C1883   C    0.47300   0.92330   0.09250   1.000
    C1884   C    0.45030   0.52700   0.09250   1.000
    C1885   C    0.45030   0.92330   0.59250   1.000
    C1886   C    0.07670   0.52700   0.59250   1.000
    C1887   C    0.47300   0.54970   0.59250   1.000
    C1888   C    0.92330   0.45030   0.90750   1.000
    C1889   C    0.52700   0.07670   0.90750   1.000
    C1890   C    0.54970   0.47300   0.90750   1.000
    C1891   C    0.21637   0.41003   0.74083   1.000
    C1892   C    0.58997   0.80633   0.74083   1.000
    C1893   C    0.19367   0.78363   0.74083   1.000
    C1894   C    0.74337   0.88303   0.42583   1.000
    C1895   C    0.13967   0.25663   0.42583   1.000
    C1896   C    0.11697   0.86033   0.42583   1.000
    C1897   C    0.11697   0.25663   0.92583   1.000
    C1898   C    0.74337   0.86033   0.92583   1.000
    C1899   C    0.13967   0.88303   0.92583   1.000
    C1900   C    0.58997   0.78363   0.24083   1.000
    C1901   C    0.19367   0.41003   0.24083   1.000
    C1902   C    0.21637   0.80633   0.24083   1.000
    C1903   C    0.88303   0.74337   0.07417   1.000
    C1904   C    0.25663   0.13967   0.07417   1.000
    C1905   C    0.86033   0.11697   0.07417   1.000
    C1906   C    0.41003   0.21637   0.75917   1.000
    C1907   C    0.80633   0.58997   0.75917   1.000
    C1908   C    0.78363   0.19367   0.75917   1.000
    C1909   C    0.78363   0.58997   0.25917   1.000
    C1910   C    0.41003   0.19367   0.25917   1.000
    C1911   C    0.80633   0.21637   0.25917   1.000
    C1912   C    0.25663   0.11697   0.57417   1.000
    C1913   C    0.86033   0.74337   0.57417   1.000
    C1914   C    0.88303   0.13967   0.57417   1.000
    C1915   C    0.86090   0.44270   0.42148   1.000
    C1916   C    0.55730   0.41820   0.42148   1.000
    C1917   C    0.13910   0.58180   0.07852   1.000
    C1918   C    0.44270   0.86090   0.07852   1.000
    C1919   C    0.41820   0.55730   0.07852   1.000
    C1920   C    0.41820   0.86090   0.57852   1.000
    C1921   C    0.13910   0.55730   0.57852   1.000
    C1922   C    0.44270   0.58180   0.57852   1.000
    C1923   C    0.86090   0.41820   0.92148   1.000
    C1924   C    0.55730   0.13910   0.92148   1.000
    C1925   C    0.58180   0.44270   0.92148   1.000
    C1926   C    0.24847   0.47243   0.75481   1.000
    C1927   C    0.52757   0.77603   0.75481   1.000
    C1928   C    0.22397   0.75153   0.75481   1.000
    C1929   C    0.80577   0.91513   0.41185   1.000
    C1930   C    0.10937   0.19423   0.41185   1.000
    C1931   C    0.08487   0.89063   0.41185   1.000
    C1932   C    0.08487   0.19423   0.91185   1.000
    C1933   C    0.80577   0.89063   0.91185   1.000
    C1934   C    0.10937   0.91513   0.91185   1.000
    C1935   C    0.52757   0.75153   0.25481   1.000
    C1936   C    0.22397   0.47243   0.25481   1.000
    C1937   C    0.24847   0.77603   0.25481   1.000
    C1938   C    0.91513   0.80577   0.08815   1.000
    C1939   C    0.19423   0.10937   0.08815   1.000
    C1940   C    0.89063   0.08487   0.08815   1.000
    C1941   C    0.47243   0.24847   0.74519   1.000
    C1942   C    0.77603   0.52757   0.74519   1.000
    C1943   C    0.75153   0.22397   0.74519   1.000
    C1944   C    0.75153   0.52757   0.24519   1.000
    C1945   C    0.47243   0.22397   0.24519   1.000
    C1946   C    0.77603   0.24847   0.24519   1.000
    C1947   C    0.19423   0.08487   0.58815   1.000
    C1948   C    0.89063   0.80577   0.58815   1.000
    C1949   C    0.91513   0.10937   0.58815   1.000
    C1950   C    0.86020   0.44600   0.43362   1.000
    C1951   C    0.55400   0.41420   0.43362   1.000
    C1952   C    0.13980   0.58580   0.06638   1.000
    C1953   C    0.44600   0.86020   0.06638   1.000
    C1954   C    0.41420   0.55400   0.06638   1.000
    C1955   C    0.41420   0.86020   0.56638   1.000
    C1956   C    0.13980   0.55400   0.56638   1.000
    C1957   C    0.44600   0.58580   0.56638   1.000
    C1958   C    0.86020   0.41420   0.93362   1.000
    C1959   C    0.55400   0.13980   0.93362   1.000
    C1960   C    0.58580   0.44600   0.93362   1.000
    C1961   C    0.25247   0.47313   0.76695   1.000
    C1962   C    0.52687   0.77933   0.76695   1.000
    C1963   C    0.22067   0.74753   0.76695   1.000
    C1964   C    0.80647   0.91913   0.39971   1.000
    C1965   C    0.11267   0.19353   0.39971   1.000
    C1966   C    0.08087   0.88733   0.39971   1.000
    C1967   C    0.08087   0.19353   0.89971   1.000
    C1968   C    0.80647   0.88733   0.89971   1.000
    C1969   C    0.11267   0.91913   0.89971   1.000
    C1970   C    0.52687   0.74753   0.26695   1.000
    C1971   C    0.22067   0.47313   0.26695   1.000
    C1972   C    0.25247   0.77933   0.26695   1.000
    C1973   C    0.91913   0.80647   0.10029   1.000
    C1974   C    0.19353   0.11267   0.10029   1.000
    C1975   C    0.88733   0.08087   0.10029   1.000
    C1976   C    0.47313   0.25247   0.73305   1.000
    C1977   C    0.77933   0.52687   0.73305   1.000
    C1978   C    0.74753   0.22067   0.73305   1.000
    C1979   C    0.74753   0.52687   0.23305   1.000
    C1980   C    0.47313   0.22067   0.23305   1.000
    C1981   C    0.77933   0.25247   0.23305   1.000
    C1982   C    0.19353   0.08087   0.60029   1.000
    C1983   C    0.88733   0.80647   0.60029   1.000
    C1984   C    0.91913   0.11267   0.60029   1.000
    C1985   C    0.82100   0.43170   0.43750   1.000
    C1986   C    0.56830   0.38930   0.43750   1.000
    C1987   C    0.17900   0.61070   0.06250   1.000
    C1988   C    0.43170   0.82100   0.06250   1.000
    C1989   C    0.38930   0.56830   0.06250   1.000
    C1990   C    0.38930   0.82100   0.56250   1.000
    C1991   C    0.17900   0.56830   0.56250   1.000
    C1992   C    0.43170   0.61070   0.56250   1.000
    C1993   C    0.82100   0.38930   0.93750   1.000
    C1994   C    0.56830   0.17900   0.93750   1.000
    C1995   C    0.61070   0.43170   0.93750   1.000
    C1996   C    0.27737   0.51233   0.77083   1.000
    C1997   C    0.48767   0.76503   0.77083   1.000
    C1998   C    0.23497   0.72263   0.77083   1.000
    C1999   C    0.84567   0.94403   0.39583   1.000
    C2000   C    0.09837   0.15433   0.39583   1.000
    C2001   C    0.05597   0.90163   0.39583   1.000
    C2002   C    0.05597   0.15433   0.89583   1.000
    C2003   C    0.84567   0.90163   0.89583   1.000
    C2004   C    0.09837   0.94403   0.89583   1.000
    C2005   C    0.48767   0.72263   0.27083   1.000
    C2006   C    0.23497   0.51233   0.27083   1.000
    C2007   C    0.27737   0.76503   0.27083   1.000
    C2008   C    0.94403   0.84567   0.10417   1.000
    C2009   C    0.15433   0.09837   0.10417   1.000
    C2010   C    0.90163   0.05597   0.10417   1.000
    C2011   C    0.51233   0.27737   0.72917   1.000
    C2012   C    0.76503   0.48767   0.72917   1.000
    C2013   C    0.72263   0.23497   0.72917   1.000
    C2014   C    0.72263   0.48767   0.22917   1.000
    C2015   C    0.51233   0.23497   0.22917   1.000
    C2016   C    0.76503   0.27737   0.22917   1.000
    C2017   C    0.15433   0.05597   0.60417   1.000
    C2018   C    0.90163   0.84567   0.60417   1.000
    C2019   C    0.94403   0.09837   0.60417   1.000
    C2020   C    0.91290   0.46880   0.44011   1.000
    C2021   C    0.53120   0.44410   0.44011   1.000
    C2022   C    0.08710   0.55590   0.05989   1.000
    C2023   C    0.46880   0.91290   0.05989   1.000
    C2024   C    0.44410   0.53120   0.05989   1.000
    C2025   C    0.44410   0.91290   0.55989   1.000
    C2026   C    0.08710   0.53120   0.55989   1.000
    C2027   C    0.46880   0.55590   0.55989   1.000
    C2028   C    0.91290   0.44410   0.94011   1.000
    C2029   C    0.53120   0.08710   0.94011   1.000
    C2030   C    0.55590   0.46880   0.94011   1.000
    C2031   C    0.22257   0.42043   0.77344   1.000
    C2032   C    0.57957   0.80213   0.77344   1.000
    C2033   C    0.19787   0.77743   0.77344   1.000
    C2034   C    0.75377   0.88923   0.39322   1.000
    C2035   C    0.13547   0.24623   0.39322   1.000
    C2036   C    0.11077   0.86453   0.39322   1.000
    C2037   C    0.11077   0.24623   0.89322   1.000
    C2038   C    0.75377   0.86453   0.89322   1.000
    C2039   C    0.13547   0.88923   0.89322   1.000
    C2040   C    0.57957   0.77743   0.27344   1.000
    C2041   C    0.19787   0.42043   0.27344   1.000
    C2042   C    0.22257   0.80213   0.27344   1.000
    C2043   C    0.88923   0.75377   0.10678   1.000
    C2044   C    0.24623   0.13547   0.10678   1.000
    C2045   C    0.86453   0.11077   0.10678   1.000
    C2046   C    0.42043   0.22257   0.72656   1.000
    C2047   C    0.80213   0.57957   0.72656   1.000
    C2048   C    0.77743   0.19787   0.72656   1.000
    C2049   C    0.77743   0.57957   0.22656   1.000
    C2050   C    0.42043   0.19787   0.22656   1.000
    C2051   C    0.80213   0.22257   0.22656   1.000
    C2052   C    0.24623   0.11077   0.60678   1.000
    C2053   C    0.86453   0.75377   0.60678   1.000
    C2054   C    0.88923   0.13547   0.60678   1.000
    C2055   C    0.80350   0.41450   0.41291   1.000
    C2056   C    0.58550   0.38900   0.41291   1.000
    C2057   C    0.19650   0.61100   0.08709   1.000
    C2058   C    0.41450   0.80350   0.08709   1.000
    C2059   C    0.38900   0.58550   0.08709   1.000
    C2060   C    0.38900   0.80350   0.58709   1.000
    C2061   C    0.19650   0.58550   0.58709   1.000
    C2062   C    0.41450   0.61100   0.58709   1.000
    C2063   C    0.80350   0.38900   0.91291   1.000
    C2064   C    0.58550   0.19650   0.91291   1.000
    C2065   C    0.61100   0.41450   0.91291   1.000
    C2066   C    0.27767   0.52983   0.74624   1.000
    C2067   C    0.47017   0.74783   0.74624   1.000
    C2068   C    0.25217   0.72233   0.74624   1.000
    C2069   C    0.86317   0.94433   0.42042   1.000
    C2070   C    0.08117   0.13683   0.42042   1.000
    C2071   C    0.05567   0.91883   0.42042   1.000
    C2072   C    0.05567   0.13683   0.92042   1.000
    C2073   C    0.86317   0.91883   0.92042   1.000
    C2074   C    0.08117   0.94433   0.92042   1.000
    C2075   C    0.47017   0.72233   0.24624   1.000
    C2076   C    0.25217   0.52983   0.24624   1.000
    C2077   C    0.27767   0.74783   0.24624   1.000
    C2078   C    0.94433   0.86317   0.07958   1.000
    C2079   C    0.13683   0.08117   0.07958   1.000
    C2080   C    0.91883   0.05567   0.07958   1.000
    C2081   C    0.52983   0.27767   0.75376   1.000
    C2082   C    0.74783   0.47017   0.75376   1.000
    C2083   C    0.72233   0.25217   0.75376   1.000
    C2084   C    0.72233   0.47017   0.25376   1.000
    C2085   C    0.52983   0.25217   0.25376   1.000
    C2086   C    0.74783   0.27767   0.25376   1.000
    C2087   C    0.13683   0.05567   0.57958   1.000
    C2088   C    0.91883   0.86317   0.57958   1.000
    C2089   C    0.94433   0.08117   0.57958   1.000
    C2090   C    0.09070   0.60590   0.42631   1.000
    C2091   C    0.39410   0.48480   0.42631   1.000
    C2092   C    0.90930   0.51520   0.07369   1.000
    C2093   C    0.60590   0.09070   0.07369   1.000
    C2094   C    0.48480   0.39410   0.07369   1.000
    C2095   C    0.48480   0.09070   0.57369   1.000
    C2096   C    0.90930   0.39410   0.57369   1.000
    C2097   C    0.60590   0.51520   0.57369   1.000
    C2098   C    0.09070   0.48480   0.92631   1.000
    C2099   C    0.39410   0.90930   0.92631   1.000
    C2100   C    0.51520   0.60590   0.92631   1.000
    C2101   C    0.18187   0.24263   0.75964   1.000
    C2102   C    0.75737   0.93923   0.75964   1.000
    C2103   C    0.06077   0.81813   0.75964   1.000
    C2104   C    0.57597   0.84853   0.40702   1.000
    C2105   C    0.27257   0.42403   0.40702   1.000
    C2106   C    0.15147   0.72743   0.40702   1.000
    C2107   C    0.15147   0.42403   0.90702   1.000
    C2108   C    0.57597   0.72743   0.90702   1.000
    C2109   C    0.27257   0.84853   0.90702   1.000
    C2110   C    0.75737   0.81813   0.25964   1.000
    C2111   C    0.06077   0.24263   0.25964   1.000
    C2112   C    0.18187   0.93923   0.25964   1.000
    C2113   C    0.84853   0.57597   0.09298   1.000
    C2114   C    0.42403   0.27257   0.09298   1.000
    C2115   C    0.72743   0.15147   0.09298   1.000
    C2116   C    0.24263   0.18187   0.74036   1.000
    C2117   C    0.93923   0.75737   0.74036   1.000
    C2118   C    0.81813   0.06077   0.74036   1.000
    C2119   C    0.81813   0.75737   0.24036   1.000
    C2120   C    0.24263   0.06077   0.24036   1.000
    C2121   C    0.93923   0.18187   0.24036   1.000
    C2122   C    0.42403   0.15147   0.59298   1.000
    C2123   C    0.72743   0.57597   0.59298   1.000
    C2124   C    0.84853   0.27257   0.59298   1.000
    C2125   C    0.10010   0.64540   0.42700   1.000
    C2126   C    0.35460   0.45470   0.42700   1.000
    C2127   C    0.89990   0.54530   0.07300   1.000
    C2128   C    0.64540   0.10010   0.07300   1.000
    C2129   C    0.45470   0.35460   0.07300   1.000
    C2130   C    0.45470   0.10010   0.57300   1.000
    C2131   C    0.89990   0.35460   0.57300   1.000
    C2132   C    0.64540   0.54530   0.57300   1.000
    C2133   C    0.10010   0.45470   0.92700   1.000
    C2134   C    0.35460   0.89990   0.92700   1.000
    C2135   C    0.54530   0.64540   0.92700   1.000
    C2136   C    0.21197   0.23323   0.76033   1.000
    C2137   C    0.76677   0.97873   0.76033   1.000
    C2138   C    0.02127   0.78803   0.76033   1.000
    C2139   C    0.56657   0.87863   0.40633   1.000
    C2140   C    0.31207   0.43343   0.40633   1.000
    C2141   C    0.12137   0.68793   0.40633   1.000
    C2142   C    0.12137   0.43343   0.90633   1.000
    C2143   C    0.56657   0.68793   0.90633   1.000
    C2144   C    0.31207   0.87863   0.90633   1.000
    C2145   C    0.76677   0.78803   0.26033   1.000
    C2146   C    0.02127   0.23323   0.26033   1.000
    C2147   C    0.21197   0.97873   0.26033   1.000
    C2148   C    0.87863   0.56657   0.09367   1.000
    C2149   C    0.43343   0.31207   0.09367   1.000
    C2150   C    0.68793   0.12137   0.09367   1.000
    C2151   C    0.23323   0.21197   0.73967   1.000
    C2152   C    0.97873   0.76677   0.73967   1.000
    C2153   C    0.78803   0.02127   0.73967   1.000
    C2154   C    0.78803   0.76677   0.23967   1.000
    C2155   C    0.23323   0.02127   0.23967   1.000
    C2156   C    0.97873   0.21197   0.23967   1.000
    C2157   C    0.43343   0.12137   0.59367   1.000
    C2158   C    0.68793   0.56657   0.59367   1.000
    C2159   C    0.87863   0.31207   0.59367   1.000
    C2160   C    0.03080   0.52180   0.41435   1.000
    C2161   C    0.47820   0.50900   0.41435   1.000
    C2162   C    0.96920   0.49100   0.08565   1.000
    C2163   C    0.52180   0.03080   0.08565   1.000
    C2164   C    0.50900   0.47820   0.08565   1.000
    C2165   C    0.50900   0.03080   0.58565   1.000
    C2166   C    0.96920   0.47820   0.58565   1.000
    C2167   C    0.52180   0.49100   0.58565   1.000
    C2168   C    0.03080   0.50900   0.91435   1.000
    C2169   C    0.47820   0.96920   0.91435   1.000
    C2170   C    0.49100   0.52180   0.91435   1.000
    C2171   C    0.15767   0.30253   0.74768   1.000
    C2172   C    0.69747   0.85513   0.74768   1.000
    C2173   C    0.14487   0.84233   0.74768   1.000
    C2174   C    0.63587   0.82433   0.41898   1.000
    C2175   C    0.18847   0.36413   0.41898   1.000
    C2176   C    0.17567   0.81153   0.41898   1.000
    C2177   C    0.17567   0.36413   0.91898   1.000
    C2178   C    0.63587   0.81153   0.91898   1.000
    C2179   C    0.18847   0.82433   0.91898   1.000
    C2180   C    0.69747   0.84233   0.24768   1.000
    C2181   C    0.14487   0.30253   0.24768   1.000
    C2182   C    0.15767   0.85513   0.24768   1.000
    C2183   C    0.82433   0.63587   0.08102   1.000
    C2184   C    0.36413   0.18847   0.08102   1.000
    C2185   C    0.81153   0.17567   0.08102   1.000
    C2186   C    0.30253   0.15767   0.75232   1.000
    C2187   C    0.85513   0.69747   0.75232   1.000
    C2188   C    0.84233   0.14487   0.75232   1.000
    C2189   C    0.84233   0.69747   0.25232   1.000
    C2190   C    0.30253   0.14487   0.25232   1.000
    C2191   C    0.85513   0.15767   0.25232   1.000
    C2192   C    0.36413   0.17567   0.58102   1.000
    C2193   C    0.81153   0.63587   0.58102   1.000
    C2194   C    0.82433   0.18847   0.58102   1.000
    C2195   C    0.03120   0.49370   0.40950   1.000
    C2196   C    0.50630   0.53750   0.40950   1.000
    C2197   C    0.96880   0.46250   0.09050   1.000
    C2198   C    0.49370   0.03120   0.09050   1.000
    C2199   C    0.53750   0.50630   0.09050   1.000
    C2200   C    0.53750   0.03120   0.59050   1.000
    C2201   C    0.96880   0.50630   0.59050   1.000
    C2202   C    0.49370   0.46250   0.59050   1.000
    C2203   C    0.03120   0.53750   0.90950   1.000
    C2204   C    0.50630   0.96880   0.90950   1.000
    C2205   C    0.46250   0.49370   0.90950   1.000
    C2206   C    0.12917   0.30213   0.74283   1.000
    C2207   C    0.69787   0.82703   0.74283   1.000
    C2208   C    0.17297   0.87083   0.74283   1.000
    C2209   C    0.63547   0.79583   0.42383   1.000
    C2210   C    0.16037   0.36453   0.42383   1.000
    C2211   C    0.20417   0.83963   0.42383   1.000
    C2212   C    0.20417   0.36453   0.92383   1.000
    C2213   C    0.63547   0.83963   0.92383   1.000
    C2214   C    0.16037   0.79583   0.92383   1.000
    C2215   C    0.69787   0.87083   0.24283   1.000
    C2216   C    0.17297   0.30213   0.24283   1.000
    C2217   C    0.12917   0.82703   0.24283   1.000
    C2218   C    0.79583   0.63547   0.07617   1.000
    C2219   C    0.36453   0.16037   0.07617   1.000
    C2220   C    0.83963   0.20417   0.07617   1.000
    C2221   C    0.30213   0.12917   0.75717   1.000
    C2222   C    0.82703   0.69787   0.75717   1.000
    C2223   C    0.87083   0.17297   0.75717   1.000
    C2224   C    0.87083   0.69787   0.25717   1.000
    C2225   C    0.30213   0.17297   0.25717   1.000
    C2226   C    0.82703   0.12917   0.25717   1.000
    C2227   C    0.36453   0.20417   0.57617   1.000
    C2228   C    0.83963   0.63547   0.57617   1.000
    C2229   C    0.79583   0.16037   0.57617   1.000
    C2230   C    0.08470   0.58490   0.41400   1.000
    C2231   C    0.41510   0.49980   0.41400   1.000
    C2232   C    0.91530   0.50020   0.08600   1.000
    C2233   C    0.58490   0.08470   0.08600   1.000
    C2234   C    0.49980   0.41510   0.08600   1.000
    C2235   C    0.49980   0.08470   0.58600   1.000
    C2236   C    0.91530   0.41510   0.58600   1.000
    C2237   C    0.58490   0.50020   0.58600   1.000
    C2238   C    0.08470   0.49980   0.91400   1.000
    C2239   C    0.41510   0.91530   0.91400   1.000
    C2240   C    0.50020   0.58490   0.91400   1.000
    C2241   C    0.16687   0.24863   0.74733   1.000
    C2242   C    0.75137   0.91823   0.74733   1.000
    C2243   C    0.08177   0.83313   0.74733   1.000
    C2244   C    0.58197   0.83353   0.41933   1.000
    C2245   C    0.25157   0.41803   0.41933   1.000
    C2246   C    0.16647   0.74843   0.41933   1.000
    C2247   C    0.16647   0.41803   0.91933   1.000
    C2248   C    0.58197   0.74843   0.91933   1.000
    C2249   C    0.25157   0.83353   0.91933   1.000
    C2250   C    0.75137   0.83313   0.24733   1.000
    C2251   C    0.08177   0.24863   0.24733   1.000
    C2252   C    0.16687   0.91823   0.24733   1.000
    C2253   C    0.83353   0.58197   0.08067   1.000
    C2254   C    0.41803   0.25157   0.08067   1.000
    C2255   C    0.74843   0.16647   0.08067   1.000
    C2256   C    0.24863   0.16687   0.75267   1.000
    C2257   C    0.91823   0.75137   0.75267   1.000
    C2258   C    0.83313   0.08177   0.75267   1.000
    C2259   C    0.83313   0.75137   0.25267   1.000
    C2260   C    0.24863   0.08177   0.25267   1.000
    C2261   C    0.91823   0.16687   0.25267   1.000
    C2262   C    0.41803   0.16647   0.58067   1.000
    C2263   C    0.74843   0.58197   0.58067   1.000
    C2264   C    0.83353   0.25157   0.58067   1.000
    C2265   C    0.98270   0.44450   0.45712   1.000
    C2266   C    0.55550   0.53820   0.45712   1.000
    C2267   C    0.01730   0.46180   0.04288   1.000
    C2268   C    0.44450   0.98270   0.04288   1.000
    C2269   C    0.53820   0.55550   0.04288   1.000
    C2270   C    0.53820   0.98270   0.54288   1.000
    C2271   C    0.01730   0.55550   0.54288   1.000
    C2272   C    0.44450   0.46180   0.54288   1.000
    C2273   C    0.98270   0.53820   0.95712   1.000
    C2274   C    0.55550   0.01730   0.95712   1.000
    C2275   C    0.46180   0.44450   0.95712   1.000
    C2276   C    0.12847   0.35063   0.79045   1.000
    C2277   C    0.64937   0.77783   0.79045   1.000
    C2278   C    0.22217   0.87153   0.79045   1.000
    C2279   C    0.68397   0.79513   0.37621   1.000
    C2280   C    0.11117   0.31603   0.37621   1.000
    C2281   C    0.20487   0.88883   0.37621   1.000
    C2282   C    0.20487   0.31603   0.87621   1.000
    C2283   C    0.68397   0.88883   0.87621   1.000
    C2284   C    0.11117   0.79513   0.87621   1.000
    C2285   C    0.64937   0.87153   0.29045   1.000
    C2286   C    0.22217   0.35063   0.29045   1.000
    C2287   C    0.12847   0.77783   0.29045   1.000
    C2288   C    0.79513   0.68397   0.12379   1.000
    C2289   C    0.31603   0.11117   0.12379   1.000
    C2290   C    0.88883   0.20487   0.12379   1.000
    C2291   C    0.35063   0.12847   0.70955   1.000
    C2292   C    0.77783   0.64937   0.70955   1.000
    C2293   C    0.87153   0.22217   0.70955   1.000
    C2294   C    0.87153   0.64937   0.20955   1.000
    C2295   C    0.35063   0.22217   0.20955   1.000
    C2296   C    0.77783   0.12847   0.20955   1.000
    C2297   C    0.31603   0.20487   0.62379   1.000
    C2298   C    0.88883   0.68397   0.62379   1.000
    C2299   C    0.79513   0.11117   0.62379   1.000
    C2300   C    0.98790   0.41160   0.45780   1.000
    C2301   C    0.58840   0.57630   0.45780   1.000
    C2302   C    0.01210   0.42370   0.04220   1.000
    C2303   C    0.41160   0.98790   0.04220   1.000
    C2304   C    0.57630   0.58840   0.04220   1.000
    C2305   C    0.57630   0.98790   0.54220   1.000
    C2306   C    0.01210   0.58840   0.54220   1.000
    C2307   C    0.41160   0.42370   0.54220   1.000
    C2308   C    0.98790   0.57630   0.95780   1.000
    C2309   C    0.58840   0.01210   0.95780   1.000
    C2310   C    0.42370   0.41160   0.95780   1.000
    C2311   C    0.09037   0.34543   0.79113   1.000
    C2312   C    0.65457   0.74493   0.79113   1.000
    C2313   C    0.25507   0.90963   0.79113   1.000
    C2314   C    0.67877   0.75703   0.37553   1.000
    C2315   C    0.07827   0.32123   0.37553   1.000
    C2316   C    0.24297   0.92173   0.37553   1.000
    C2317   C    0.24297   0.32123   0.87553   1.000
    C2318   C    0.67877   0.92173   0.87553   1.000
    C2319   C    0.07827   0.75703   0.87553   1.000
    C2320   C    0.65457   0.90963   0.29113   1.000
    C2321   C    0.25507   0.34543   0.29113   1.000
    C2322   C    0.09037   0.74493   0.29113   1.000
    C2323   C    0.75703   0.67877   0.12447   1.000
    C2324   C    0.32123   0.07827   0.12447   1.000
    C2325   C    0.92173   0.24297   0.12447   1.000
    C2326   C    0.34543   0.09037   0.70887   1.000
    C2327   C    0.74493   0.65457   0.70887   1.000
    C2328   C    0.90963   0.25507   0.70887   1.000
    C2329   C    0.90963   0.65457   0.20887   1.000
    C2330   C    0.34543   0.25507   0.20887   1.000
    C2331   C    0.74493   0.09037   0.20887   1.000
    C2332   C    0.32123   0.24297   0.62447   1.000
    C2333   C    0.92173   0.67877   0.62447   1.000
    C2334   C    0.75703   0.07827   0.62447   1.000
    C2335   C    0.90460   0.46290   0.45210   1.000
    C2336   C    0.53710   0.44170   0.45210   1.000
    C2337   C    0.09540   0.55830   0.04790   1.000
    C2338   C    0.46290   0.90460   0.04790   1.000
    C2339   C    0.44170   0.53710   0.04790   1.000
    C2340   C    0.44170   0.90460   0.54790   1.000
    C2341   C    0.09540   0.53710   0.54790   1.000
    C2342   C    0.46290   0.55830   0.54790   1.000
    C2343   C    0.90460   0.44170   0.95210   1.000
    C2344   C    0.53710   0.09540   0.95210   1.000
    C2345   C    0.55830   0.46290   0.95210   1.000
    C2346   C    0.22497   0.42873   0.78543   1.000
    C2347   C    0.57127   0.79623   0.78543   1.000
    C2348   C    0.20377   0.77503   0.78543   1.000
    C2349   C    0.76207   0.89163   0.38123   1.000
    C2350   C    0.12957   0.23793   0.38123   1.000
    C2351   C    0.10837   0.87043   0.38123   1.000
    C2352   C    0.10837   0.23793   0.88123   1.000
    C2353   C    0.76207   0.87043   0.88123   1.000
    C2354   C    0.12957   0.89163   0.88123   1.000
    C2355   C    0.57127   0.77503   0.28543   1.000
    C2356   C    0.20377   0.42873   0.28543   1.000
    C2357   C    0.22497   0.79623   0.28543   1.000
    C2358   C    0.89163   0.76207   0.11877   1.000
    C2359   C    0.23793   0.12957   0.11877   1.000
    C2360   C    0.87043   0.10837   0.11877   1.000
    C2361   C    0.42873   0.22497   0.71457   1.000
    C2362   C    0.79623   0.57127   0.71457   1.000
    C2363   C    0.77503   0.20377   0.71457   1.000
    C2364   C    0.77503   0.57127   0.21457   1.000
    C2365   C    0.42873   0.20377   0.21457   1.000
    C2366   C    0.79623   0.22497   0.21457   1.000
    C2367   C    0.23793   0.10837   0.61877   1.000
    C2368   C    0.87043   0.76207   0.61877   1.000
    C2369   C    0.89163   0.12957   0.61877   1.000
    C2370   C    0.88170   0.47930   0.45450   1.000
    C2371   C    0.52070   0.40240   0.45450   1.000
    C2372   C    0.11830   0.59760   0.04550   1.000
    C2373   C    0.47930   0.88170   0.04550   1.000
    C2374   C    0.40240   0.52070   0.04550   1.000
    C2375   C    0.40240   0.88170   0.54550   1.000
    C2376   C    0.11830   0.52070   0.54550   1.000
    C2377   C    0.47930   0.59760   0.54550   1.000
    C2378   C    0.88170   0.40240   0.95450   1.000
    C2379   C    0.52070   0.11830   0.95450   1.000
    C2380   C    0.59760   0.47930   0.95450   1.000
    C2381   C    0.26427   0.45163   0.78783   1.000
    C2382   C    0.54837   0.81263   0.78783   1.000
    C2383   C    0.18737   0.73573   0.78783   1.000
    C2384   C    0.78497   0.93093   0.37883   1.000
    C2385   C    0.14597   0.21503   0.37883   1.000
    C2386   C    0.06907   0.85403   0.37883   1.000
    C2387   C    0.06907   0.21503   0.87883   1.000
    C2388   C    0.78497   0.85403   0.87883   1.000
    C2389   C    0.14597   0.93093   0.87883   1.000
    C2390   C    0.54837   0.73573   0.28783   1.000
    C2391   C    0.18737   0.45163   0.28783   1.000
    C2392   C    0.26427   0.81263   0.28783   1.000
    C2393   C    0.93093   0.78497   0.12117   1.000
    C2394   C    0.21503   0.14597   0.12117   1.000
    C2395   C    0.85403   0.06907   0.12117   1.000
    C2396   C    0.45163   0.26427   0.71217   1.000
    C2397   C    0.81263   0.54837   0.71217   1.000
    C2398   C    0.73573   0.18737   0.71217   1.000
    C2399   C    0.73573   0.54837   0.21217   1.000
    C2400   C    0.45163   0.18737   0.21217   1.000
    C2401   C    0.81263   0.26427   0.21217   1.000
    C2402   C    0.21503   0.06907   0.62117   1.000
    C2403   C    0.85403   0.78497   0.62117   1.000
    C2404   C    0.93093   0.14597   0.62117   1.000
    C2405   C    0.92270   0.43690   0.46210   1.000
    C2406   C    0.56310   0.48580   0.46210   1.000
    C2407   C    0.07730   0.51420   0.03790   1.000
    C2408   C    0.43690   0.92270   0.03790   1.000
    C2409   C    0.48580   0.56310   0.03790   1.000
    C2410   C    0.48580   0.92270   0.53790   1.000
    C2411   C    0.07730   0.56310   0.53790   1.000
    C2412   C    0.43690   0.51420   0.53790   1.000
    C2413   C    0.92270   0.48580   0.96210   1.000
    C2414   C    0.56310   0.07730   0.96210   1.000
    C2415   C    0.51420   0.43690   0.96210   1.000
    C2416   C    0.18087   0.41063   0.79543   1.000
    C2417   C    0.58937   0.77023   0.79543   1.000
    C2418   C    0.22977   0.81913   0.79543   1.000
    C2419   C    0.74397   0.84753   0.37123   1.000
    C2420   C    0.10357   0.25603   0.37123   1.000
    C2421   C    0.15247   0.89643   0.37123   1.000
    C2422   C    0.15247   0.25603   0.87123   1.000
    C2423   C    0.74397   0.89643   0.87123   1.000
    C2424   C    0.10357   0.84753   0.87123   1.000
    C2425   C    0.58937   0.81913   0.29543   1.000
    C2426   C    0.22977   0.41063   0.29543   1.000
    C2427   C    0.18087   0.77023   0.29543   1.000
    C2428   C    0.84753   0.74397   0.12877   1.000
    C2429   C    0.25603   0.10357   0.12877   1.000
    C2430   C    0.89643   0.15247   0.12877   1.000
    C2431   C    0.41063   0.18087   0.70457   1.000
    C2432   C    0.77023   0.58937   0.70457   1.000
    C2433   C    0.81913   0.22977   0.70457   1.000
    C2434   C    0.81913   0.58937   0.20457   1.000
    C2435   C    0.41063   0.22977   0.20457   1.000
    C2436   C    0.77023   0.18087   0.20457   1.000
    C2437   C    0.25603   0.15247   0.62877   1.000
    C2438   C    0.89643   0.74397   0.62877   1.000
    C2439   C    0.84753   0.10357   0.62877   1.000
    O2440   O    0.22375   0.78275   0.00203   1.000
    O2441   O    0.17970   0.78715   0.00490   1.000
    O2442   O    0.17730   0.75455   0.99975   1.000
    O2443   O    0.21725   0.44100   0.00203   1.000
    O2444   O    0.21285   0.39255   0.00490   1.000
    O2445   O    0.24545   0.42275   0.99975   1.000
    O2446   O    0.55900   0.77625   0.00203   1.000
    O2447   O    0.60745   0.82030   0.00490   1.000
    O2448   O    0.57725   0.82270   0.99975   1.000
    O2449   O    0.54180   0.72125   0.00521   1.000
    O2450   O    0.50425   0.72720   0.99898   1.000
    O2451   O    0.27875   0.82055   0.00521   1.000
    O2452   O    0.27280   0.77705   0.99898   1.000
    O2453   O    0.17945   0.45820   0.00521   1.000
    O2454   O    0.22295   0.49575   0.99898   1.000
    O2455   O    0.42275   0.17730   0.00025   1.000
    O2456   O    0.75455   0.57725   0.00025   1.000
    O2457   O    0.82270   0.24545   0.00025   1.000
    O2458   O    0.54300   0.31590   0.00526   1.000
    O2459   O    0.53345   0.26215   0.00555   1.000
    O2460   O    0.49575   0.27280   0.00102   1.000
    O2461   O    0.68410   0.22710   0.00526   1.000
    O2462   O    0.73785   0.27130   0.00555   1.000
    O2463   O    0.72720   0.22295   0.00102   1.000
    O2464   O    0.77290   0.45700   0.00526   1.000
    O2465   O    0.72870   0.46655   0.00555   1.000
    O2466   O    0.77705   0.50425   0.00102   1.000
    O2467   O    0.76789   0.40244   0.01010   1.000
    O2468   O    0.63454   0.23211   0.01010   1.000
    O2469   O    0.59756   0.36546   0.01010   1.000
    O2470   O    0.14700   0.79660   0.00715   1.000
    O2471   O    0.20340   0.35040   0.00715   1.000
    O2472   O    0.64960   0.85300   0.00715   1.000
    O2473   O    0.57524   0.24185   0.01040   1.000
    O2474   O    0.66661   0.42476   0.01040   1.000
    O2475   O    0.75815   0.33338   0.01040   1.000
    O2476   O    0.53325   0.67670   0.00803   1.000
    O2477   O    0.14345   0.46675   0.00803   1.000
    O2478   O    0.32330   0.85655   0.00803   1.000
    O2479   O    0.63805   0.81175   0.01217   1.000
    O2480   O    0.18825   0.82630   0.01217   1.000
    O2481   O    0.17370   0.36195   0.01217   1.000
    O2482   O    0.28855   0.86225   0.01192   1.000
    O2483   O    0.13775   0.42630   0.01192   1.000
    O2484   O    0.57370   0.71145   0.01192   1.000
    O2485   O    0.59474   0.22170   0.02079   1.000
    O2486   O    0.62696   0.40526   0.02079   1.000
    O2487   O    0.70900   0.34809   0.01678   1.000
    O2488   O    0.77829   0.37304   0.02079   1.000
    O2489   O    0.13640   0.37850   0.01601   1.000
    O2490   O    0.09720   0.39585   0.01914   1.000
    O2491   O    0.62150   0.75790   0.01601   1.000
    O2492   O    0.60415   0.70135   0.01914   1.000
    O2493   O    0.24210   0.86360   0.01601   1.000
    O2494   O    0.29865   0.90280   0.01914   1.000
    O2495   O    0.13430   0.32985   0.02015   1.000
    O2496   O    0.67015   0.80445   0.02015   1.000
    O2497   O    0.19555   0.86570   0.02015   1.000
    O2498   O    0.27785   0.00505   0.02023   1.000
    O2499   O    0.99495   0.27280   0.02023   1.000
    O2500   O    0.72720   0.72215   0.02023   1.000
    O2501   O    0.66670   0.33330   0.02813   1.000
    O2502   O    0.01330   0.31675   0.02357   1.000
    O2503   O    0.03245   0.27565   0.02417   1.000
    O2504   O    0.30345   0.98670   0.02357   1.000
    O2505   O    0.24320   0.96755   0.02417   1.000
    O2506   O    0.68325   0.69655   0.02357   1.000
    O2507   O    0.72435   0.75680   0.02417   1.000
    O2508   O    0.63040   0.67335   0.02379   1.000
    O2509   O    0.59070   0.66565   0.02475   1.000
    O2510   O    0.04295   0.36960   0.02379   1.000
    O2511   O    0.07495   0.40930   0.02475   1.000
    O2512   O    0.32665   0.95705   0.02379   1.000
    O2513   O    0.33435   0.92505   0.02475   1.000
    O2514   O    0.08660   0.28370   0.02487   1.000
    O2515   O    0.13755   0.29185   0.02588   1.000
    O2516   O    0.19710   0.91340   0.02487   1.000
    O2517   O    0.15430   0.86245   0.02588   1.000
    O2518   O    0.71630   0.80290   0.02487   1.000
    O2519   O    0.70815   0.84570   0.02588   1.000
    O2520   O    0.65125   0.64425   0.02509   1.000
    O2521   O    0.99300   0.34875   0.02509   1.000
    O2522   O    0.35575   0.00700   0.02509   1.000
    O2523   O    0.76305   0.80350   0.02939   1.000
    O2524   O    0.19650   0.95955   0.02939   1.000
    O2525   O    0.04045   0.23695   0.02939   1.000
    O2526   O    0.17745   0.29395   0.02730   1.000
    O2527   O    0.70605   0.88350   0.02730   1.000
    O2528   O    0.11650   0.82255   0.02730   1.000
    O2529   O    0.60935   0.41165   0.03305   1.000
    O2530   O    0.58835   0.19770   0.03305   1.000
    O2531   O    0.80230   0.39065   0.03305   1.000
    O2532   O    0.74705   0.89280   0.03130   1.000
    O2533   O    0.14575   0.25295   0.03130   1.000
    O2534   O    0.10720   0.85425   0.03130   1.000
    O2535   O    0.48395   0.57095   0.03320   1.000
    O2536   O    0.42905   0.91300   0.03320   1.000
    O2537   O    0.08700   0.51605   0.03320   1.000
    O2538   O    0.80270   0.80810   0.03370   1.000
    O2539   O    0.80060   0.84855   0.03469   1.000
    O2540   O    0.00540   0.19730   0.03370   1.000
    O2541   O    0.04795   0.19940   0.03469   1.000
    O2542   O    0.19190   0.99460   0.03370   1.000
    O2543   O    0.15145   0.95205   0.03469   1.000
    O2544   O    0.91155   0.42125   0.03792   1.000
    O2545   O    0.50970   0.08845   0.03792   1.000
    O2546   O    0.57875   0.49030   0.03792   1.000
    O2547   O    0.10495   0.89770   0.03559   1.000
    O2548   O    0.06790   0.85000   0.03600   1.000
    O2549   O    0.10230   0.20725   0.03559   1.000
    O2550   O    0.15000   0.21790   0.03600   1.000
    O2551   O    0.79275   0.89505   0.03559   1.000
    O2552   O    0.78210   0.93210   0.03600   1.000
    O2553   O    0.65315   0.29205   0.03976   1.000
    O2554   O    0.70795   0.36105   0.03976   1.000
    O2555   O    0.63895   0.34685   0.03976   1.000
    O2556   O    0.10555   0.94430   0.04032   1.000
    O2557   O    0.83875   0.89445   0.04032   1.000
    O2558   O    0.05570   0.16125   0.04032   1.000
    O2559   O    0.51200   0.55930   0.04039   1.000
    O2560   O    0.46375   0.55010   0.04290   1.000
    O2561   O    0.44070   0.95270   0.04039   1.000
    O2562   O    0.44990   0.91365   0.04290   1.000
    O2563   O    0.04730   0.48800   0.04039   1.000
    O2564   O    0.08635   0.53625   0.04290   1.000
    O2565   O    0.60655   0.38080   0.04066   1.000
    O2566   O    0.58520   0.41515   0.04179   1.000
    O2567   O    0.61920   0.22575   0.04066   1.000
    O2568   O    0.58485   0.17005   0.04179   1.000
    O2569   O    0.77425   0.39345   0.04066   1.000
    O2570   O    0.82995   0.41480   0.04179   1.000
    O2571   O    0.54545   0.11380   0.04337   1.000
    O2572   O    0.50845   0.05980   0.04494   1.000
    O2573   O    0.88620   0.43165   0.04337   1.000
    O2574   O    0.94020   0.44865   0.04494   1.000
    O2575   O    0.56835   0.45455   0.04337   1.000
    O2576   O    0.55135   0.49155   0.04494   1.000
    O2577   O    0.42805   0.98530   0.04254   1.000
    O2578   O    0.01470   0.44275   0.04254   1.000
    O2579   O    0.55725   0.57195   0.04254   1.000
    O2580   O    0.99295   0.46365   0.04566   1.000
    O2581   O    0.53635   0.52930   0.04566   1.000
    O2582   O    0.47070   0.00705   0.04566   1.000
    O2583   O    0.88225   0.89705   0.04539   1.000
    O2584   O    0.87140   0.93695   0.04651   1.000
    O2585   O    0.01480   0.11775   0.04539   1.000
    O2586   O    0.06555   0.12860   0.04651   1.000
    O2587   O    0.10295   0.98520   0.04539   1.000
    O2588   O    0.06305   0.93445   0.04651   1.000
    O2589   O    0.58565   0.14100   0.05061   1.000
    O2590   O    0.85900   0.44465   0.05061   1.000
    O2591   O    0.55535   0.41435   0.05061   1.000
    O2592   O    0.47110   0.89315   0.04670   1.000
    O2593   O    0.42205   0.52890   0.04670   1.000
    O2594   O    0.10685   0.57795   0.04670   1.000
    O2595   O    0.96603   0.06632   0.05166   1.000
    O2596   O    0.93368   0.89971   0.05166   1.000
    O2597   O    0.10029   0.03396   0.05166   1.000
    O2598   O    0.44290   0.53415   0.05389   1.000
    O2599   O    0.46585   0.90875   0.05389   1.000
    O2600   O    0.09125   0.55710   0.05389   1.000
    O2601   O    0.96945   0.47925   0.05349   1.000
    O2602   O    0.50980   0.03055   0.05349   1.000
    O2603   O    0.52075   0.49020   0.05349   1.000
    O2604   O    0.91033   0.99672   0.05277   1.000
    O2605   O    0.08639   0.08967   0.05277   1.000
    O2606   O    0.00328   0.91361   0.05277   1.000
    O2607   O    0.83830   0.45600   0.05736   1.000
    O2608   O    0.88655   0.47435   0.05916   1.000
    O2609   O    0.61770   0.16170   0.05736   1.000
    O2610   O    0.58780   0.11345   0.05916   1.000
    O2611   O    0.54400   0.38230   0.05736   1.000
    O2612   O    0.52565   0.41220   0.05916   1.000
    O2613   O    0.95615   0.88650   0.06284   1.000
    O2614   O    0.04224   0.02737   0.05952   1.000
    O2615   O    0.11350   0.06965   0.06284   1.000
    O2616   O    0.97264   0.01487   0.05952   1.000
    O2617   O    0.93035   0.04385   0.06284   1.000
    O2618   O    0.50805   0.45105   0.06047   1.000
    O2619   O    0.49170   0.49020   0.06187   1.000
    O2620   O    0.54895   0.05700   0.06047   1.000
    O2621   O    0.50980   0.00150   0.06187   1.000
    O2622   O    0.94300   0.49195   0.06047   1.000
    O2623   O    0.99850   0.50830   0.06187   1.000
    O2624   O    0.05690   0.53975   0.06255   1.000
    O2625   O    0.11345   0.57085   0.06313   1.000
    O2626   O    0.48285   0.94310   0.06255   1.000
    O2627   O    0.45740   0.88655   0.06313   1.000
    O2628   O    0.46025   0.51715   0.06255   1.000
    O2629   O    0.42915   0.54260   0.06313   1.000
    O2630   O    0.91250   0.50305   0.06804   1.000
    O2631   O    0.59055   0.08750   0.06804   1.000
    O2632   O    0.49695   0.40945   0.06804   1.000
    O2633   O    0.40175   0.56115   0.06444   1.000
    O2634   O    0.43885   0.84060   0.06444   1.000
    O2635   O    0.15940   0.59825   0.06444   1.000
    O2636   O    0.47555   0.50145   0.07156   1.000
    O2637   O    0.49855   0.97410   0.07156   1.000
    O2638   O    0.02590   0.52445   0.07156   1.000
    O2639   O    0.13945   0.58380   0.07245   1.000
    O2640   O    0.44435   0.86055   0.07245   1.000
    O2641   O    0.41620   0.55565   0.07245   1.000
    O2642   O    0.13968   0.08287   0.07434   1.000
    O2643   O    0.94318   0.86032   0.07434   1.000
    O2644   O    0.91713   0.05682   0.07434   1.000
    O2645   O    0.82908   0.56577   0.07682   1.000
    O2646   O    0.43423   0.26332   0.07682   1.000
    O2647   O    0.73668   0.17092   0.07682   1.000
    O2648   O    0.62565   0.09540   0.07334   1.000
    O2649   O    0.46975   0.37435   0.07334   1.000
    O2650   O    0.90460   0.53025   0.07334   1.000
    O2651   O    0.91230   0.50770   0.07984   1.000
    O2652   O    0.49230   0.40460   0.07984   1.000
    O2653   O    0.59540   0.08770   0.07984   1.000
    O2654   O    0.86053   0.11612   0.07836   1.000
    O2655   O    0.88388   0.74442   0.07836   1.000
    O2656   O    0.25558   0.13947   0.07836   1.000
    O2657   O    0.36433   0.17442   0.07859   1.000
    O2658   O    0.82558   0.18992   0.07859   1.000
    O2659   O    0.81008   0.63567   0.07859   1.000
    O2660   O    0.05195   0.53835   0.08101   1.000
    O2661   O    0.99715   0.50815   0.08178   1.000
    O2662   O    0.46165   0.51360   0.08101   1.000
    O2663   O    0.49185   0.48900   0.08178   1.000
    O2664   O    0.48640   0.94805   0.08101   1.000
    O2665   O    0.51100   0.00285   0.08178   1.000
    O2666   O    0.43340   0.54235   0.08132   1.000
    O2667   O    0.40360   0.57140   0.08281   1.000
    O2668   O    0.45765   0.89105   0.08132   1.000
    O2669   O    0.42860   0.83220   0.08281   1.000
    O2670   O    0.10895   0.56660   0.08132   1.000
    O2671   O    0.16780   0.59640   0.08281   1.000
    O2672   O    0.93478   0.04492   0.08270   1.000
    O2673   O    0.90473   0.07027   0.08386   1.000
    O2674   O    0.11013   0.06522   0.08270   1.000
    O2675   O    0.16553   0.09527   0.08386   1.000
    O2676   O    0.95508   0.88987   0.08270   1.000
    O2677   O    0.92973   0.83447   0.08386   1.000
    O2678   O    0.97537   0.01708   0.08273   1.000
    O2679   O    0.04172   0.02463   0.08273   1.000
    O2680   O    0.98292   0.95828   0.08273   1.000
    O2681   O    0.77998   0.17107   0.08084   1.000
    O2682   O    0.73793   0.15897   0.08682   1.000
    O2683   O    0.82893   0.60892   0.08084   1.000
    O2684   O    0.84103   0.57897   0.08682   1.000
    O2685   O    0.39108   0.22002   0.08084   1.000
    O2686   O    0.42103   0.26207   0.08682   1.000
    O2687   O    0.35042   0.64203   0.08393   1.000
    O2688   O    0.37825   0.60145   0.08397   1.000
    O2689   O    0.35797   0.70838   0.08393   1.000
    O2690   O    0.39855   0.77680   0.08397   1.000
    O2691   O    0.29162   0.64958   0.08393   1.000
    O2692   O    0.22320   0.62175   0.08397   1.000
    O2693   O    0.84148   0.66382   0.08489   1.000
    O2694   O    0.33618   0.17767   0.08489   1.000
    O2695   O    0.82233   0.15852   0.08489   1.000
    O2696   O    0.22438   0.12432   0.08535   1.000
    O2697   O    0.28138   0.15307   0.08565   1.000
    O2698   O    0.87568   0.10007   0.08535   1.000
    O2699   O    0.84693   0.12832   0.08565   1.000
    O2700   O    0.89993   0.77562   0.08535   1.000
    O2701   O    0.87168   0.71862   0.08565   1.000
    O2702   O    0.44945   0.52720   0.08831   1.000
    O2703   O    0.07775   0.55055   0.08831   1.000
    O2704   O    0.47280   0.92225   0.08831   1.000
    O2705   O    0.50440   0.44665   0.08583   1.000
    O2706   O    0.52325   0.49225   0.08808   1.000
    O2707   O    0.55335   0.05775   0.08583   1.000
    O2708   O    0.50775   0.03100   0.08808   1.000
    O2709   O    0.94225   0.49560   0.08583   1.000
    O2710   O    0.96900   0.47675   0.08808   1.000
    O2711   O    0.50425   0.40335   0.08985   1.000
    O2712   O    0.59665   0.10090   0.08985   1.000
    O2713   O    0.89910   0.49575   0.08985   1.000
    O2714   O    0.39015   0.58380   0.09233   1.000
    O2715   O    0.41620   0.80635   0.09233   1.000
    O2716   O    0.19365   0.60985   0.09233   1.000
    O2717   O    0.91713   0.80612   0.09422   1.000
    O2718   O    0.19388   0.11102   0.09422   1.000
    O2719   O    0.88898   0.08287   0.09422   1.000
    O2720   O    0.85778   0.69257   0.09510   1.000
    O2721   O    0.83478   0.14222   0.09510   1.000
    O2722   O    0.30743   0.16522   0.09510   1.000
    O2723   O    0.70768   0.13642   0.09332   1.000
    O2724   O    0.74278   0.16362   0.09862   1.000
    O2725   O    0.42873   0.29232   0.09332   1.000
    O2726   O    0.42083   0.25722   0.09862   1.000
    O2727   O    0.86358   0.57127   0.09332   1.000
    O2728   O    0.83638   0.57917   0.09862   1.000
    O2729   O    0.37719   0.59702   0.10383   1.000
    O2730   O    0.21983   0.62281   0.10383   1.000
    O2731   O    0.40298   0.78017   0.10383   1.000
    O2732   O    0.93158   0.82607   0.10223   1.000
    O2733   O    0.90418   0.78012   0.10353   1.000
    O2734   O    0.17393   0.10552   0.10223   1.000
    O2735   O    0.21988   0.12407   0.10353   1.000
    O2736   O    0.89448   0.06842   0.10223   1.000
    O2737   O    0.87593   0.09582   0.10353   1.000
    O2738   O    0.85048   0.12692   0.10411   1.000
    O2739   O    0.82353   0.15837   0.10479   1.000
    O2740   O    0.27643   0.14952   0.10411   1.000
    O2741   O    0.33483   0.17647   0.10479   1.000
    O2742   O    0.87308   0.72357   0.10411   1.000
    O2743   O    0.84163   0.66517   0.10479   1.000
    O2744   O    0.34820   0.63930   0.10715   1.000
    O2745   O    0.36070   0.70890   0.10715   1.000
    O2746   O    0.39033   0.21562   0.10620   1.000
    O2747   O    0.44678   0.25447   0.10750   1.000
    O2748   O    0.78438   0.17472   0.10620   1.000
    O2749   O    0.74553   0.19232   0.10750   1.000
    O2750   O    0.82528   0.60967   0.10620   1.000
    O2751   O    0.80768   0.55322   0.10750   1.000
    O2752   O    0.86748   0.10957   0.11277   1.000
    O2753   O    0.24208   0.13252   0.11277   1.000
    O2754   O    0.89043   0.75792   0.11277   1.000
    O2755   O    0.71563   0.21067   0.10930   1.000
    O2756   O    0.49503   0.28437   0.10930   1.000
    O2757   O    0.78933   0.50497   0.10930   1.000
    O2758   O    0.81258   0.63612   0.11318   1.000
    O2759   O    0.36388   0.17647   0.11318   1.000
    O2760   O    0.82353   0.18742   0.11318   1.000
    O2761   O    0.33005   0.57700   0.11390   1.000
    O2762   O    0.39965   0.63270   0.11501   1.000
    O2763   O    0.24695   0.66995   0.11390   1.000
    O2764   O    0.23305   0.60035   0.11501   1.000
    O2765   O    0.42300   0.75305   0.11390   1.000
    O2766   O    0.36730   0.76695   0.11501   1.000
    O2767   O    0.74768   0.22202   0.11606   1.000
    O2768   O    0.47433   0.25232   0.11606   1.000
    O2769   O    0.77798   0.52567   0.11606   1.000
    O2770   O    0.46193   0.73222   0.12016   1.000
    O2771   O    0.26778   0.72972   0.12016   1.000
    O2772   O    0.27028   0.53807   0.12016   1.000
    O2773   O    0.34038   0.13737   0.12101   1.000
    O2774   O    0.39313   0.17512   0.12172   1.000
    O2775   O    0.79698   0.65962   0.12101   1.000
    O2776   O    0.78198   0.60687   0.12172   1.000
    O2777   O    0.86263   0.20302   0.12101   1.000
    O2778   O    0.82488   0.21802   0.12172   1.000
    O2779   O    0.91128   0.77352   0.11997   1.000
    O2780   O    0.86958   0.75302   0.12377   1.000
    O2781   O    0.22648   0.13777   0.11997   1.000
    O2782   O    0.24698   0.11657   0.12377   1.000
    O2783   O    0.86223   0.08872   0.11997   1.000
    O2784   O    0.88343   0.13042   0.12377   1.000
    O2785   O    0.31853   0.76962   0.12128   1.000
    O2786   O    0.23038   0.54892   0.12128   1.000
    O2787   O    0.45108   0.68147   0.12128   1.000
    O2788   O    0.76498   0.55287   0.12330   1.000
    O2789   O    0.74813   0.49662   0.12487   1.000
    O2790   O    0.44713   0.21212   0.12330   1.000
    O2791   O    0.50338   0.25152   0.12487   1.000
    O2792   O    0.78788   0.23502   0.12330   1.000
    O2793   O    0.74848   0.25187   0.12487   1.000
    O2794   O    0.27763   0.77222   0.12635   1.000
    O2795   O    0.49458   0.72237   0.12635   1.000
    O2796   O    0.22778   0.50542   0.12635   1.000
    O2797   O    0.71413   0.27322   0.12601   1.000
    O2798   O    0.68018   0.30562   0.12691   1.000
    O2799   O    0.55908   0.28587   0.12601   1.000
    O2800   O    0.62538   0.31982   0.12691   1.000
    O2801   O    0.72678   0.44092   0.12601   1.000
    O2802   O    0.69438   0.37462   0.12691   1.000
    O2803   O    0.90528   0.22392   0.12413   1.000
    O2804   O    0.89263   0.17867   0.12628   1.000
    O2805   O    0.77608   0.68137   0.12413   1.000
    O2806   O    0.82133   0.71397   0.12628   1.000
    O2807   O    0.31863   0.09472   0.12413   1.000
    O2808   O    0.28603   0.10737   0.12628   1.000
    O2809   O    0.82363   0.24542   0.12874   1.000
    O2810   O    0.42178   0.17637   0.12874   1.000
    O2811   O    0.75458   0.57822   0.12874   1.000
    O2812   O    0.53103   0.25502   0.13362   1.000
    O2813   O    0.74498   0.27602   0.13362   1.000
    O2814   O    0.72398   0.46897   0.13362   1.000
    O2815   O    0.84938   0.75367   0.13347   1.000
    O2816   O    0.24633   0.09572   0.13347   1.000
    O2817   O    0.90428   0.15062   0.13347   1.000
    O2818   O    0.18333   0.73457   0.13067   1.000
    O2819   O    0.55123   0.81667   0.13067   1.000
    O2820   O    0.26543   0.44877   0.13067   1.000
    O2821   O    0.22838   0.45942   0.13107   1.000
    O2822   O    0.18188   0.46727   0.13197   1.000
    O2823   O    0.54058   0.76897   0.13107   1.000
    O2824   O    0.53273   0.71462   0.13197   1.000
    O2825   O    0.23103   0.77162   0.13107   1.000
    O2826   O    0.28538   0.81812   0.13197   1.000
    O2827   O    0.66663   0.33337   0.13853   1.000
    O2828   O    0.14143   0.46937   0.13297   1.000
    O2829   O    0.53063   0.67207   0.13297   1.000
    O2830   O    0.32793   0.85857   0.13297   1.000
    O2831   O    0.58628   0.81242   0.13537   1.000
    O2832   O    0.18758   0.77387   0.13537   1.000
    O2833   O    0.22613   0.41372   0.13537   1.000
    O2834   O    0.13683   0.42972   0.13728   1.000
    O2835   O    0.57028   0.70712   0.13728   1.000
    O2836   O    0.29288   0.86317   0.13728   1.000
    O2837   O    0.21683   0.37272   0.13937   1.000
    O2838   O    0.17903   0.37482   0.14079   1.000
    O2839   O    0.62728   0.84412   0.13937   1.000
    O2840   O    0.62518   0.80422   0.14079   1.000
    O2841   O    0.15588   0.78317   0.13937   1.000
    O2842   O    0.19578   0.82097   0.14079   1.000
    O2843   O    0.73859   0.29363   0.14588   1.000
    O2844   O    0.55504   0.26141   0.14588   1.000
    O2845   O    0.70637   0.44496   0.14588   1.000
    O2846   O    0.99898   0.25737   0.14192   1.000
    O2847   O    0.25838   0.00102   0.14192   1.000
    O2848   O    0.74263   0.74162   0.14192   1.000
    O2849   O    0.24673   0.86377   0.14180   1.000
    O2850   O    0.30088   0.90987   0.14250   1.000
    O2851   O    0.61703   0.75327   0.14180   1.000
    O2852   O    0.60898   0.69912   0.14250   1.000
    O2853   O    0.13623   0.38297   0.14180   1.000
    O2854   O    0.09013   0.39102   0.14250   1.000
    O2855   O    0.97758   0.31792   0.14158   1.000
    O2856   O    0.34033   0.02242   0.14158   1.000
    O2857   O    0.68208   0.65967   0.14158   1.000
    O2858   O    0.29038   0.99332   0.14288   1.000
    O2859   O    0.32003   0.97012   0.14310   1.000
    O2860   O    0.70293   0.70962   0.14288   1.000
    O2861   O    0.65008   0.67997   0.14310   1.000
    O2862   O    0.00668   0.29707   0.14288   1.000
    O2863   O    0.02988   0.34992   0.14310   1.000
    O2864   O    0.19903   0.86222   0.14652   1.000
    O2865   O    0.66318   0.80097   0.14652   1.000
    O2866   O    0.13778   0.33682   0.14652   1.000
    O2867   O    0.23613   0.96532   0.14753   1.000
    O2868   O    0.72918   0.76387   0.14753   1.000
    O2869   O    0.03468   0.27082   0.14753   1.000
    O2870   O    0.05548   0.39387   0.14644   1.000
    O2871   O    0.33838   0.94452   0.14644   1.000
    O2872   O    0.60613   0.66162   0.14644   1.000
    O2873   O    0.68142   0.37566   0.14989   1.000
    O2874   O    0.19693   0.90877   0.15066   1.000
    O2875   O    0.15963   0.85492   0.15450   1.000
    O2876   O    0.71183   0.80307   0.15066   1.000
    O2877   O    0.69528   0.84037   0.15450   1.000
    O2878   O    0.09123   0.28817   0.15066   1.000
    O2879   O    0.14508   0.30472   0.15450   1.000
    O2880   O    0.75963   0.80442   0.15475   1.000
    O2881   O    0.04478   0.24037   0.15475   1.000
    O2882   O    0.19558   0.95522   0.15475   1.000
    O2883   O    0.66672   0.42481   0.15627   1.000
    O2884   O    0.73577   0.43456   0.15656   1.000
    O2885   O    0.75809   0.33328   0.15627   1.000
    O2886   O    0.69879   0.26423   0.15656   1.000
    O2887   O    0.57519   0.24191   0.15627   1.000
    O2888   O    0.56544   0.30121   0.15656   1.000
    O2889   O    0.01003   0.19992   0.15864   1.000
    O2890   O    0.05458   0.20847   0.16146   1.000
    O2891   O    0.80008   0.81012   0.15864   1.000
    O2892   O    0.79153   0.84612   0.16146   1.000
    O2893   O    0.18988   0.98997   0.15864   1.000
    O2894   O    0.15388   0.94542   0.16146   1.000
    O2895   O    0.68373   0.87007   0.15952   1.000
    O2896   O    0.72588   0.87952   0.16177   1.000
    O2897   O    0.12993   0.81367   0.15952   1.000
    O2898   O    0.12048   0.84637   0.16177   1.000
    O2899   O    0.18633   0.31627   0.15952   1.000
    O2900   O    0.15363   0.27412   0.16177   1.000
    O2901   O    0.60463   0.40452   0.16111   1.000
    O2902   O    0.79988   0.39537   0.16111   1.000
    O2903   O    0.59548   0.20012   0.16111   1.000
    O2904   O    0.56043   0.35077   0.16140   1.000
    O2905   O    0.79033   0.43957   0.16140   1.000
    O2906   O    0.64923   0.20967   0.16140   1.000
    O2907   O    0.60613   0.16242   0.16565   1.000
    O2908   O    0.83758   0.44372   0.16565   1.000
    O2909   O    0.55628   0.39387   0.16565   1.000
    O2910   O    0.57878   0.48937   0.16642   1.000
    O2911   O    0.91058   0.42122   0.16642   1.000
    O2912   O    0.51063   0.08942   0.16642   1.000
    O2913   O    0.10958   0.22567   0.16464   1.000
    O2914   O    0.06053   0.17092   0.16769   1.000
    O2915   O    0.77433   0.88392   0.16464   1.000
    O2916   O    0.82908   0.88962   0.16769   1.000
    O2917   O    0.11608   0.89042   0.16464   1.000
    O2918   O    0.11038   0.93947   0.16769   1.000
    O2919   O    0.75608   0.91212   0.16692   1.000
    O2920   O    0.08788   0.84397   0.16692   1.000
    O2921   O    0.15603   0.24392   0.16692   1.000
    O2922   O    0.89233   0.44942   0.16870   1.000
    O2923   O    0.94078   0.45382   0.17157   1.000
    O2924   O    0.55058   0.44292   0.16870   1.000
    O2925   O    0.54618   0.48697   0.17157   1.000
    O2926   O    0.55708   0.10767   0.16870   1.000
    O2927   O    0.51303   0.05922   0.17157   1.000
    O2928   O    0.51278   0.38792   0.17188   1.000
    O2929   O    0.87513   0.48722   0.17188   1.000
    O2930   O    0.61208   0.12487   0.17188   1.000
    O2931   O    0.10623   0.98257   0.17193   1.000
    O2932   O    0.06203   0.92882   0.17222   1.000
    O2933   O    0.87633   0.89377   0.17193   1.000
    O2934   O    0.86678   0.93797   0.17222   1.000
    O2935   O    0.01743   0.12367   0.17193   1.000
    O2936   O    0.07118   0.13322   0.17222   1.000
    O2937   O    0.10123   0.03213   0.17677   1.000
    O2938   O    0.93090   0.89877   0.17677   1.000
    O2939   O    0.96787   0.06910   0.17677   1.000
    O2940   O    0.53673   0.51967   0.17382   1.000
    O2941   O    0.98293   0.46327   0.17382   1.000
    O2942   O    0.48033   0.01707   0.17382   1.000
    O2943   O    0.99995   0.90852   0.17706   1.000
    O2944   O    0.09148   0.09143   0.17706   1.000
    O2945   O    0.90857   0.00005   0.17706   1.000
    O2946   O    0.47678   0.34337   0.17470   1.000
    O2947   O    0.86658   0.52322   0.17470   1.000
    O2948   O    0.65663   0.13342   0.17470   1.000
    O2949   O    0.50703   0.47842   0.17884   1.000
    O2950   O    0.97138   0.49297   0.17884   1.000
    O2951   O    0.52158   0.02862   0.17884   1.000
    O2952   O    0.62188   0.09297   0.17859   1.000
    O2953   O    0.90703   0.52892   0.17859   1.000
    O2954   O    0.47108   0.37812   0.17859   1.000
    O2955   O    0.04233   0.02758   0.18345   1.000
    O2956   O    0.97242   0.01475   0.18345   1.000
    O2957   O    0.98525   0.95767   0.18345   1.000
    O2958   O    0.46973   0.42457   0.18268   1.000
    O2959   O    0.43053   0.36802   0.18581   1.000
    O2960   O    0.57543   0.04517   0.18268   1.000
    O2961   O    0.63198   0.06252   0.18581   1.000
    O2962   O    0.95483   0.53027   0.18268   1.000
    O2963   O    0.93748   0.56947   0.18581   1.000
    O2964   O    0.52888   0.99652   0.18682   1.000
    O2965   O    0.00348   0.53237   0.18682   1.000
    O2966   O    0.46763   0.47112   0.18682   1.000
    O2967   O    0.61118   0.93947   0.18690   1.000
    O2968   O    0.06053   0.67172   0.18690   1.000
    O2969   O    0.32828   0.38882   0.18690   1.000
    O2970   O    0.99993   0.99997   0.19480   1.000
    O2971   O    0.00003   0.00007   0.19480   1.000
    O2972   O    0.00003   0.99997   0.19480   1.000
    O2973   O    0.01658   0.65337   0.19024   1.000
    O2974   O    0.05768   0.63422   0.19084   1.000
    O2975   O    0.63678   0.98342   0.19024   1.000
    O2976   O    0.57653   0.94232   0.19084   1.000
    O2977   O    0.34663   0.36322   0.19024   1.000
    O2978   O    0.36578   0.42347   0.19084   1.000
    O2979   O    0.37628   0.34002   0.19046   1.000
    O2980   O    0.40828   0.33232   0.19142   1.000
    O2981   O    0.96373   0.62372   0.19046   1.000
    O2982   O    0.92403   0.59172   0.19142   1.000
    O2983   O    0.65998   0.03627   0.19046   1.000
    O2984   O    0.66768   0.07597   0.19142   1.000
    O2985   O    0.41993   0.46957   0.19154   1.000
    O2986   O    0.47088   0.51237   0.19255   1.000
    O2987   O    0.04963   0.58007   0.19154   1.000
    O2988   O    0.04148   0.52912   0.19255   1.000
    O2989   O    0.53043   0.95037   0.19154   1.000
    O2990   O    0.48763   0.95852   0.19255   1.000
    O2991   O    0.68908   0.01542   0.19176   1.000
    O2992   O    0.98458   0.67367   0.19176   1.000
    O2993   O    0.32633   0.31092   0.19176   1.000
    O2994   O    0.09638   0.62622   0.19606   1.000
    O2995   O    0.52983   0.90362   0.19606   1.000
    O2996   O    0.37378   0.47017   0.19606   1.000
    O2997   O    0.51078   0.55017   0.19397   1.000
    O2998   O    0.03938   0.48922   0.19397   1.000
    O2999   O    0.44983   0.96062   0.19397   1.000
    O3000   O    0.92168   0.05732   0.19972   1.000
    O3001   O    0.94268   0.86437   0.19972   1.000
    O3002   O    0.13563   0.07832   0.19972   1.000
    O3003   O    0.44053   0.91962   0.19797   1.000
    O3004   O    0.08038   0.52092   0.19797   1.000
    O3005   O    0.47908   0.55947   0.19797   1.000
    O3006   O    0.81728   0.57967   0.19987   1.000
    O3007   O    0.42033   0.23762   0.19987   1.000
    O3008   O    0.76238   0.18272   0.19987   1.000
    O3009   O    0.52523   0.86397   0.20037   1.000
    O3010   O    0.48478   0.86607   0.20136   1.000
    O3011   O    0.33873   0.47477   0.20037   1.000
    O3012   O    0.38128   0.51522   0.20136   1.000
    O3013   O    0.13603   0.66127   0.20037   1.000
    O3014   O    0.13393   0.61872   0.20136   1.000
    O3015   O    0.91208   0.75512   0.20459   1.000
    O3016   O    0.24488   0.15697   0.20459   1.000
    O3017   O    0.84303   0.08792   0.20459   1.000
    O3018   O    0.12608   0.56437   0.20226   1.000
    O3019   O    0.11543   0.51667   0.20267   1.000
    O3020   O    0.43828   0.87392   0.20226   1.000
    O3021   O    0.40123   0.88457   0.20267   1.000
    O3022   O    0.43563   0.56172   0.20226   1.000
    O3023   O    0.48333   0.59877   0.20267   1.000
    O3024   O    0.38903   0.56112   0.20699   1.000
    O3025   O    0.43888   0.82792   0.20699   1.000
    O3026   O    0.17208   0.61097   0.20699   1.000
    O3027   O    0.77403   0.15467   0.20706   1.000
    O3028   O    0.78323   0.20292   0.20957   1.000
    O3029   O    0.38063   0.22597   0.20706   1.000
    O3030   O    0.41968   0.21677   0.20957   1.000
    O3031   O    0.84533   0.61937   0.20706   1.000
    O3032   O    0.79708   0.58032   0.20957   1.000
    O3033   O    0.10758   0.04747   0.20733   1.000
    O3034   O    0.16328   0.08182   0.20846   1.000
    O3035   O    0.95253   0.06012   0.20733   1.000
    O3036   O    0.91818   0.08147   0.20846   1.000
    O3037   O    0.93988   0.89242   0.20733   1.000
    O3038   O    0.91853   0.83672   0.20846   1.000
    O3039   O    0.90168   0.78047   0.21004   1.000
    O3040   O    0.88468   0.72647   0.21161   1.000
    O3041   O    0.21953   0.12122   0.21004   1.000
    O3042   O    0.27353   0.15822   0.21161   1.000
    O3043   O    0.87878   0.09832   0.21004   1.000
    O3044   O    0.84178   0.11532   0.21161   1.000
    O3045   O    0.76138   0.10942   0.20921   1.000
    O3046   O    0.34803   0.23862   0.20921   1.000
    O3047   O    0.89058   0.65197   0.20921   1.000
    O3048   O    0.80403   0.13032   0.21233   1.000
    O3049   O    0.32628   0.19597   0.21233   1.000
    O3050   O    0.86968   0.67372   0.21233   1.000
    O3051   O    0.21558   0.65187   0.21206   1.000
    O3052   O    0.20473   0.60112   0.21317   1.000
    O3053   O    0.34813   0.56372   0.21206   1.000
    O3054   O    0.39888   0.60362   0.21317   1.000
    O3055   O    0.43628   0.78442   0.21206   1.000
    O3056   O    0.39638   0.79527   0.21317   1.000
    O3057   O    0.88868   0.80767   0.21728   1.000
    O3058   O    0.91898   0.11132   0.21728   1.000
    O3059   O    0.19233   0.08102   0.21728   1.000
    O3060   O    0.44018   0.19557   0.21337   1.000
    O3061   O    0.75538   0.55982   0.21337   1.000
    O3062   O    0.80443   0.24462   0.21337   1.000
    O3063   O    0.29937   0.56638   0.21832   1.000
    O3064   O    0.26701   0.70063   0.21832   1.000
    O3065   O    0.43362   0.73299   0.21832   1.000
    O3066   O    0.79918   0.22377   0.22056   1.000
    O3067   O    0.77623   0.57542   0.22056   1.000
    O3068   O    0.42458   0.20082   0.22056   1.000
    O3069   O    0.84313   0.14592   0.22015   1.000
    O3070   O    0.30278   0.15687   0.22015   1.000
    O3071   O    0.85408   0.69722   0.22015   1.000
    O3072   O    0.41972   0.66339   0.21944   1.000
    O3073   O    0.24367   0.58028   0.21944   1.000
    O3074   O    0.33661   0.75633   0.21944   1.000
    O3075   O    0.87733   0.82837   0.22403   1.000
    O3076   O    0.85898   0.78012   0.22583   1.000
    O3077   O    0.95103   0.12267   0.22403   1.000
    O3078   O    0.92113   0.14102   0.22583   1.000
    O3079   O    0.17163   0.04897   0.22403   1.000
    O3080   O    0.21988   0.07887   0.22583   1.000
    O3081   O    0.37557   0.68154   0.22618   1.000
    O3082   O    0.44683   0.71052   0.22951   1.000
    O3083   O    0.26369   0.55317   0.22951   1.000
    O3084   O    0.31846   0.69403   0.22618   1.000
    O3085   O    0.28948   0.73632   0.22951   1.000
    O3086   O    0.88228   0.15862   0.22713   1.000
    O3087   O    0.84313   0.17497   0.22854   1.000
    O3088   O    0.84138   0.72367   0.22713   1.000
    O3089   O    0.82503   0.66817   0.22854   1.000
    O3090   O    0.27633   0.11772   0.22713   1.000
    O3091   O    0.33183   0.15687   0.22854   1.000
    O3092   O    0.39023   0.18382   0.22922   1.000
    O3093   O    0.44678   0.20927   0.22980   1.000
    O3094   O    0.79358   0.60977   0.22922   1.000
    O3095   O    0.76248   0.55322   0.22980   1.000
    O3096   O    0.81618   0.20642   0.22922   1.000
    O3097   O    0.79073   0.23752   0.22980   1.000
    O3098   O    0.24583   0.07612   0.23471   1.000
    O3099   O    0.83028   0.75417   0.23471   1.000
    O3100   O    0.92388   0.16972   0.23471   1.000
    O3101   O    0.73508   0.50727   0.23111   1.000
    O3102   O    0.49273   0.22782   0.23111   1.000
    O3103   O    0.77218   0.26492   0.23111   1.000
    O3104   O    0.35923   0.16812   0.23823   1.000
    O3105   O    0.83188   0.19112   0.23823   1.000
    O3106   O    0.80888   0.64077   0.23823   1.000
    O3107   O    0.77768   0.25047   0.23912   1.000
    O3108   O    0.47278   0.22232   0.23912   1.000
    O3109   O    0.74953   0.52722   0.23912   1.000
    O3110   O    0.27652   0.74953   0.24100   1.000
    O3111   O    0.25047   0.52698   0.24100   1.000
    O3112   O    0.47302   0.72348   0.24100   1.000
    O3113   O    0.16242   0.92998   0.24349   1.000
    O3114   O    0.07002   0.23243   0.24349   1.000
    O3115   O    0.76757   0.83758   0.24349   1.000
    O3116   O    0.95898   0.19692   0.24001   1.000
    O3117   O    0.23793   0.04102   0.24001   1.000
    O3118   O    0.80308   0.76207   0.24001   1.000
    O3119   O    0.24563   0.07127   0.24651   1.000
    O3120   O    0.82563   0.75437   0.24651   1.000
    O3121   O    0.92873   0.17437   0.24651   1.000
    O3122   O    0.21722   0.80613   0.24502   1.000
    O3123   O    0.19387   0.41108   0.24502   1.000
    O3124   O    0.58892   0.78278   0.24502   1.000
    O3125   O    0.14342   0.84108   0.24526   1.000
    O3126   O    0.15892   0.30233   0.24526   1.000
    O3127   O    0.69767   0.85658   0.24526   1.000
    O3128   O    0.81973   0.20502   0.24768   1.000
    O3129   O    0.84433   0.17482   0.24845   1.000
    O3130   O    0.79498   0.61472   0.24768   1.000
    O3131   O    0.82518   0.66952   0.24845   1.000
    O3132   O    0.38528   0.18027   0.24768   1.000
    O3133   O    0.33048   0.15567   0.24845   1.000
    O3134   O    0.44228   0.20902   0.24799   1.000
    O3135   O    0.50113   0.23807   0.24947   1.000
    O3136   O    0.79098   0.23327   0.24799   1.000
    O3137   O    0.76193   0.26307   0.24947   1.000
    O3138   O    0.76673   0.55772   0.24799   1.000
    O3139   O    0.73693   0.49887   0.24947   1.000
    O3140   O    0.28842   0.73188   0.24937   1.000
    O3141   O    0.26307   0.76193   0.25053   1.000
    O3142   O    0.26812   0.55653   0.24937   1.000
    O3143   O    0.23807   0.50113   0.25053   1.000
    O3144   O    0.44347   0.71158   0.24937   1.000
    O3145   O    0.49887   0.73693   0.25053   1.000
    O3146   O    0.31625   0.69130   0.24940   1.000
    O3147   O    0.30870   0.62495   0.24940   1.000
    O3148   O    0.37505   0.68375   0.24940   1.000
    O3149   O    0.16227   0.88668   0.24751   1.000
    O3150   O    0.17437   0.92873   0.25349   1.000
    O3151   O    0.11332   0.27558   0.24751   1.000
    O3152   O    0.07127   0.24563   0.25349   1.000
    O3153   O    0.72442   0.83773   0.24751   1.000
    O3154   O    0.75437   0.82563   0.25349   1.000
    O3155   O    0.68375   0.37505   0.25060   1.000
    O3156   O    0.71158   0.44347   0.25063   1.000
    O3157   O    0.62495   0.30870   0.25060   1.000
    O3158   O    0.55653   0.26812   0.25063   1.000
    O3159   O    0.69130   0.31625   0.25060   1.000
    O3160   O    0.73188   0.28842   0.25063   1.000
    O3161   O    0.15567   0.33048   0.25155   1.000
    O3162   O    0.17482   0.84433   0.25155   1.000
    O3163   O    0.66952   0.82518   0.25155   1.000
    O3164   O    0.55772   0.76673   0.25201   1.000
    O3165   O    0.61472   0.79498   0.25232   1.000
    O3166   O    0.23327   0.79098   0.25201   1.000
    O3167   O    0.20502   0.81973   0.25232   1.000
    O3168   O    0.20902   0.44228   0.25201   1.000
    O3169   O    0.18027   0.38528   0.25232   1.000
    O3170   O    0.78278   0.58892   0.25498   1.000
    O3171   O    0.80613   0.21722   0.25498   1.000
    O3172   O    0.41108   0.19387   0.25498   1.000
    O3173   O    0.83773   0.72442   0.25249   1.000
    O3174   O    0.85658   0.69767   0.25474   1.000
    O3175   O    0.27558   0.11332   0.25249   1.000
    O3176   O    0.30233   0.15892   0.25474   1.000
    O3177   O    0.88668   0.16227   0.25249   1.000
    O3178   O    0.84108   0.14342   0.25474   1.000
    O3179   O    0.92998   0.16242   0.25651   1.000
    O3180   O    0.83758   0.76757   0.25651   1.000
    O3181   O    0.23243   0.07002   0.25651   1.000
    O3182   O    0.72348   0.47302   0.25900   1.000
    O3183   O    0.52698   0.25047   0.25900   1.000
    O3184   O    0.74953   0.27652   0.25900   1.000
    O3185   O    0.52722   0.74953   0.26088   1.000
    O3186   O    0.25047   0.77768   0.26088   1.000
    O3187   O    0.22232   0.47278   0.26088   1.000
    O3188   O    0.19112   0.83188   0.26177   1.000
    O3189   O    0.16812   0.35923   0.26177   1.000
    O3190   O    0.64077   0.80888   0.26177   1.000
    O3191   O    0.04102   0.23793   0.25999   1.000
    O3192   O    0.07612   0.24583   0.26529   1.000
    O3193   O    0.76207   0.80308   0.25999   1.000
    O3194   O    0.75417   0.83028   0.26529   1.000
    O3195   O    0.19692   0.95898   0.25999   1.000
    O3196   O    0.16972   0.92388   0.26529   1.000
    O3197   O    0.71052   0.44683   0.27049   1.000
    O3198   O    0.73631   0.28948   0.27049   1.000
    O3199   O    0.55316   0.26369   0.27049   1.000
    O3200   O    0.50727   0.73508   0.26889   1.000
    O3201   O    0.55322   0.76248   0.27020   1.000
    O3202   O    0.22782   0.49273   0.26889   1.000
    O3203   O    0.20927   0.44678   0.27020   1.000
    O3204   O    0.26492   0.77218   0.26889   1.000
    O3205   O    0.23752   0.79073   0.27020   1.000
    O3206   O    0.18382   0.39023   0.27078   1.000
    O3207   O    0.15687   0.33183   0.27146   1.000
    O3208   O    0.60977   0.79358   0.27078   1.000
    O3209   O    0.66817   0.82503   0.27146   1.000
    O3210   O    0.20642   0.81618   0.27078   1.000
    O3211   O    0.17497   0.84313   0.27146   1.000
    O3212   O    0.69403   0.31846   0.27382   1.000
    O3213   O    0.68154   0.37557   0.27382   1.000
    O3214   O    0.11772   0.27633   0.27287   1.000
    O3215   O    0.07887   0.21988   0.27417   1.000
    O3216   O    0.15862   0.88228   0.27287   1.000
    O3217   O    0.14102   0.92113   0.27417   1.000
    O3218   O    0.72367   0.84138   0.27287   1.000
    O3219   O    0.78012   0.85898   0.27417   1.000
    O3220   O    0.20082   0.42458   0.27944   1.000
    O3221   O    0.57542   0.77623   0.27944   1.000
    O3222   O    0.22377   0.79918   0.27944   1.000
    O3223   O    0.12267   0.95103   0.27597   1.000
    O3224   O    0.82837   0.87733   0.27597   1.000
    O3225   O    0.04897   0.17163   0.27597   1.000
    O3226   O    0.15687   0.30278   0.27985   1.000
    O3227   O    0.69722   0.85408   0.27985   1.000
    O3228   O    0.14592   0.84313   0.27985   1.000
    O3229   O    0.58028   0.24367   0.28056   1.000
    O3230   O    0.56638   0.29937   0.28168   1.000
    O3231   O    0.75633   0.33661   0.28056   1.000
    O3232   O    0.70063   0.26701   0.28168   1.000
    O3233   O    0.66339   0.41972   0.28056   1.000
    O3234   O    0.73299   0.43362   0.28168   1.000
    O3235   O    0.80767   0.88868   0.28272   1.000
    O3236   O    0.08102   0.19233   0.28272   1.000
    O3237   O    0.11132   0.91898   0.28272   1.000
    O3238   O    0.79527   0.39638   0.28683   1.000
    O3239   O    0.60112   0.20473   0.28683   1.000
    O3240   O    0.60362   0.39888   0.28683   1.000
    O3241   O    0.13032   0.80403   0.28767   1.000
    O3242   O    0.11532   0.84178   0.28839   1.000
    O3243   O    0.19597   0.32628   0.28767   1.000
    O3244   O    0.15822   0.27353   0.28839   1.000
    O3245   O    0.67372   0.86968   0.28767   1.000
    O3246   O    0.72647   0.88468   0.28839   1.000
    O3247   O    0.55982   0.75538   0.28663   1.000
    O3248   O    0.58032   0.79708   0.29043   1.000
    O3249   O    0.24462   0.80443   0.28663   1.000
    O3250   O    0.20292   0.78323   0.29043   1.000
    O3251   O    0.19557   0.44018   0.28663   1.000
    O3252   O    0.21677   0.41968   0.29043   1.000
    O3253   O    0.78442   0.43628   0.28794   1.000
    O3254   O    0.65187   0.21558   0.28794   1.000
    O3255   O    0.56372   0.34813   0.28794   1.000
    O3256   O    0.09832   0.87878   0.28996   1.000
    O3257   O    0.08147   0.91818   0.29154   1.000
    O3258   O    0.78047   0.90168   0.28996   1.000
    O3259   O    0.83672   0.91853   0.29154   1.000
    O3260   O    0.12122   0.21953   0.28996   1.000
    O3261   O    0.08182   0.16328   0.29154   1.000
    O3262   O    0.61097   0.17208   0.29301   1.000
    O3263   O    0.56112   0.38903   0.29301   1.000
    O3264   O    0.82792   0.43888   0.29301   1.000
    O3265   O    0.89242   0.93988   0.29267   1.000
    O3266   O    0.04747   0.10758   0.29267   1.000
    O3267   O    0.06012   0.95253   0.29267   1.000
    O3268   O    0.65197   0.89058   0.29079   1.000
    O3269   O    0.61937   0.84533   0.29294   1.000
    O3270   O    0.23862   0.34803   0.29079   1.000
    O3271   O    0.22597   0.38063   0.29294   1.000
    O3272   O    0.10942   0.76138   0.29079   1.000
    O3273   O    0.15467   0.77403   0.29294   1.000
    O3274   O    0.08792   0.84303   0.29541   1.000
    O3275   O    0.15697   0.24488   0.29541   1.000
    O3276   O    0.75512   0.91208   0.29541   1.000
    O3277   O    0.07832   0.13563   0.30028   1.000
    O3278   O    0.86437   0.94268   0.30028   1.000
    O3279   O    0.05732   0.92168   0.30028   1.000
    O3280   O    0.57967   0.81728   0.30013   1.000
    O3281   O    0.18272   0.76238   0.30013   1.000
    O3282   O    0.23762   0.42033   0.30013   1.000
    O3283   O    0.88457   0.40123   0.29733   1.000
    O3284   O    0.51667   0.11543   0.29733   1.000
    O3285   O    0.59877   0.48333   0.29733   1.000
    O3286   O    0.56172   0.43563   0.29774   1.000
    O3287   O    0.51522   0.38128   0.29864   1.000
    O3288   O    0.56437   0.12608   0.29774   1.000
    O3289   O    0.61872   0.13393   0.29864   1.000
    O3290   O    0.87392   0.43828   0.29774   1.000
    O3291   O    0.86607   0.48478   0.29864   1.000
    O3292   O    0.99997   0.99993   0.30520   1.000
    O3293   O    0.00007   0.00003   0.30520   1.000
    O3294   O    0.99997   0.00003   0.30520   1.000
    O3295   O    0.52092   0.08038   0.30203   1.000
    O3296   O    0.91962   0.44053   0.30203   1.000
    O3297   O    0.55947   0.47908   0.30203   1.000
    O3298   O    0.47477   0.33873   0.29963   1.000
    O3299   O    0.66127   0.13603   0.29963   1.000
    O3300   O    0.86397   0.52523   0.29963   1.000
    O3301   O    0.47017   0.37378   0.30394   1.000
    O3302   O    0.62622   0.09638   0.30394   1.000
    O3303   O    0.90362   0.52983   0.30394   1.000
    O3304   O    0.55017   0.51078   0.30603   1.000
    O3305   O    0.51237   0.47088   0.30745   1.000
    O3306   O    0.48922   0.03938   0.30603   1.000
    O3307   O    0.52912   0.04148   0.30745   1.000
    O3308   O    0.96062   0.44983   0.30603   1.000
    O3309   O    0.95852   0.48763   0.30745   1.000
    O3310   O    0.33232   0.40828   0.30858   1.000
    O3311   O    0.07597   0.66768   0.30858   1.000
    O3312   O    0.59172   0.92403   0.30858   1.000
    O3313   O    0.95037   0.53043   0.30846   1.000
    O3314   O    0.94232   0.57653   0.30916   1.000
    O3315   O    0.58007   0.04963   0.30846   1.000
    O3316   O    0.63422   0.05768   0.30916   1.000
    O3317   O    0.46957   0.41993   0.30846   1.000
    O3318   O    0.42347   0.36578   0.30916   1.000
    O3319   O    0.01542   0.68908   0.30824   1.000
    O3320   O    0.31092   0.32633   0.30824   1.000
    O3321   O    0.67367   0.98458   0.30824   1.000
    O3322   O    0.34002   0.37628   0.30954   1.000
    O3323   O    0.36322   0.34663   0.30976   1.000
    O3324   O    0.62372   0.96373   0.30954   1.000
    O3325   O    0.65337   0.01658   0.30976   1.000
    O3326   O    0.03627   0.65998   0.30954   1.000
    O3327   O    0.98342   0.63678   0.30976   1.000
    O3328   O    0.53237   0.00348   0.31318   1.000
    O3329   O    0.99652   0.52888   0.31318   1.000
    O3330   O    0.47112   0.46763   0.31318   1.000
    O3331   O    0.36802   0.43053   0.31419   1.000
    O3332   O    0.56947   0.93748   0.31419   1.000
    O3333   O    0.06252   0.63198   0.31419   1.000
    O3334   O    0.93947   0.61118   0.31310   1.000
    O3335   O    0.67172   0.06053   0.31310   1.000
    O3336   O    0.38882   0.32828   0.31310   1.000
    O3337   O    0.02758   0.04233   0.31655   1.000
    O3338   O    0.95767   0.98525   0.31655   1.000
    O3339   O    0.01475   0.97242   0.31655   1.000
    O3340   O    0.04517   0.57543   0.31732   1.000
    O3341   O    0.02862   0.52158   0.32116   1.000
    O3342   O    0.53027   0.95483   0.31732   1.000
    O3343   O    0.49297   0.97138   0.32116   1.000
    O3344   O    0.42457   0.46973   0.31732   1.000
    O3345   O    0.47842   0.50703   0.32116   1.000
    O3346   O    0.37812   0.47108   0.32141   1.000
    O3347   O    0.52892   0.90703   0.32141   1.000
    O3348   O    0.09297   0.62188   0.32141   1.000
    O3349   O    0.00005   0.90857   0.32294   1.000
    O3350   O    0.06910   0.96787   0.32323   1.000
    O3351   O    0.09143   0.09148   0.32294   1.000
    O3352   O    0.03213   0.10123   0.32323   1.000
    O3353   O    0.90852   0.99995   0.32294   1.000
    O3354   O    0.89877   0.93090   0.32323   1.000
    O3355   O    0.52322   0.86658   0.32530   1.000
    O3356   O    0.48722   0.87513   0.32812   1.000
    O3357   O    0.34337   0.47678   0.32530   1.000
    O3358   O    0.38792   0.51278   0.32812   1.000
    O3359   O    0.13342   0.65663   0.32530   1.000
    O3360   O    0.12487   0.61208   0.32812   1.000
    O3361   O    0.51967   0.53673   0.32618   1.000
    O3362   O    0.48697   0.54618   0.32843   1.000
    O3363   O    0.46327   0.98293   0.32618   1.000
    O3364   O    0.45382   0.94078   0.32843   1.000
    O3365   O    0.01707   0.48033   0.32618   1.000
    O3366   O    0.05922   0.51303   0.32843   1.000
    O3367   O    0.13322   0.07118   0.32778   1.000
    O3368   O    0.93797   0.86678   0.32778   1.000
    O3369   O    0.92882   0.06203   0.32778   1.000
    O3370   O    0.12367   0.01743   0.32807   1.000
    O3371   O    0.89377   0.87633   0.32807   1.000
    O3372   O    0.98257   0.10623   0.32807   1.000
    O3373   O    0.93947   0.11038   0.33231   1.000
    O3374   O    0.88962   0.82908   0.33231   1.000
    O3375   O    0.17092   0.06053   0.33231   1.000
    O3376   O    0.24392   0.15603   0.33308   1.000
    O3377   O    0.91212   0.75608   0.33308   1.000
    O3378   O    0.84397   0.08788   0.33308   1.000
    O3379   O    0.10767   0.55708   0.33130   1.000
    O3380   O    0.16242   0.60613   0.33435   1.000
    O3381   O    0.44942   0.89233   0.33130   1.000
    O3382   O    0.44372   0.83758   0.33435   1.000
    O3383   O    0.44292   0.55058   0.33130   1.000
    O3384   O    0.39387   0.55628   0.33435   1.000
    O3385   O    0.08942   0.51063   0.33358   1.000
    O3386   O    0.42122   0.91058   0.33358   1.000
    O3387   O    0.48937   0.57878   0.33358   1.000
    O3388   O    0.88392   0.77433   0.33536   1.000
    O3389   O    0.87952   0.72588   0.33823   1.000
    O3390   O    0.22567   0.10958   0.33536   1.000
    O3391   O    0.27412   0.15363   0.33823   1.000
    O3392   O    0.89042   0.11608   0.33536   1.000
    O3393   O    0.84637   0.12048   0.33823   1.000
    O3394   O    0.94542   0.15388   0.33854   1.000
    O3395   O    0.20847   0.05458   0.33854   1.000
    O3396   O    0.84612   0.79153   0.33854   1.000
    O3397   O    0.43957   0.79033   0.33860   1.000
    O3398   O    0.39537   0.79988   0.33889   1.000
    O3399   O    0.20967   0.64923   0.33860   1.000
    O3400   O    0.20012   0.59548   0.33889   1.000
    O3401   O    0.35077   0.56043   0.33860   1.000
    O3402   O    0.40452   0.60463   0.33889   1.000
    O3403   O    0.30121   0.56544   0.34344   1.000
    O3404   O    0.26423   0.69879   0.34344   1.000
    O3405   O    0.43456   0.73577   0.34344   1.000
    O3406   O    0.31627   0.18633   0.34048   1.000
    O3407   O    0.81367   0.12993   0.34048   1.000
    O3408   O    0.87007   0.68373   0.34048   1.000
    O3409   O    0.24191   0.57519   0.34373   1.000
    O3410   O    0.42481   0.66672   0.34373   1.000
    O3411   O    0.33328   0.75809   0.34373   1.000
    O3412   O    0.19992   0.01003   0.34136   1.000
    O3413   O    0.81012   0.80008   0.34136   1.000
    O3414   O    0.98997   0.18988   0.34136   1.000
    O3415   O    0.30472   0.14508   0.34550   1.000
    O3416   O    0.84037   0.69528   0.34550   1.000
    O3417   O    0.85492   0.15963   0.34550   1.000
    O3418   O    0.80442   0.75963   0.34525   1.000
    O3419   O    0.95522   0.19558   0.34525   1.000
    O3420   O    0.24037   0.04478   0.34525   1.000
    O3421   O    0.26141   0.55504   0.35412   1.000
    O3422   O    0.29363   0.73859   0.35412   1.000
    O3423   O    0.37566   0.68142   0.35011   1.000
    O3424   O    0.44496   0.70637   0.35412   1.000
    O3425   O    0.90877   0.19693   0.34934   1.000
    O3426   O    0.96532   0.23613   0.35247   1.000
    O3427   O    0.80307   0.71183   0.34934   1.000
    O3428   O    0.76387   0.72918   0.35247   1.000
    O3429   O    0.28817   0.09123   0.34934   1.000
    O3430   O    0.27082   0.03468   0.35247   1.000
    O3431   O    0.33682   0.13778   0.35348   1.000
    O3432   O    0.80097   0.66318   0.35348   1.000
    O3433   O    0.86222   0.19903   0.35348   1.000
    O3434   O    0.66162   0.60613   0.35356   1.000
    O3435   O    0.39387   0.05548   0.35356   1.000
    O3436   O    0.94452   0.33838   0.35356   1.000
    O3437   O    0.33337   0.66663   0.36147   1.000
    O3438   O    0.67997   0.65008   0.35690   1.000
    O3439   O    0.69912   0.60898   0.35750   1.000
    O3440   O    0.97012   0.32003   0.35690   1.000
    O3441   O    0.90987   0.30088   0.35750   1.000
    O3442   O    0.34992   0.02988   0.35690   1.000
    O3443   O    0.39102   0.09013   0.35750   1.000
    O3444   O    0.70962   0.70293   0.35712   1.000
    O3445   O    0.74162   0.74263   0.35808   1.000
    O3446   O    0.29707   0.00668   0.35712   1.000
    O3447   O    0.25737   0.99898   0.35808   1.000
    O3448   O    0.99332   0.29038   0.35712   1.000
    O3449   O    0.00102   0.25838   0.35808   1.000
    O3450   O    0.75327   0.61703   0.35820   1.000
    O3451   O    0.80422   0.62518   0.35921   1.000
    O3452   O    0.38297   0.13623   0.35820   1.000
    O3453   O    0.37482   0.17903   0.35921   1.000
    O3454   O    0.86377   0.24673   0.35820   1.000
    O3455   O    0.82097   0.19578   0.35921   1.000
    O3456   O    0.02242   0.34033   0.35842   1.000
    O3457   O    0.31792   0.97758   0.35842   1.000
    O3458   O    0.65967   0.68208   0.35842   1.000
    O3459   O    0.86317   0.29288   0.36272   1.000
    O3460   O    0.70712   0.57028   0.36272   1.000
    O3461   O    0.42972   0.13683   0.36272   1.000
    O3462   O    0.37272   0.21683   0.36063   1.000
    O3463   O    0.78317   0.15588   0.36063   1.000
    O3464   O    0.84412   0.62728   0.36063   1.000
    O3465   O    0.27602   0.74498   0.36638   1.000
    O3466   O    0.25502   0.53103   0.36638   1.000
    O3467   O    0.46897   0.72398   0.36638   1.000
    O3468   O    0.41372   0.22613   0.36463   1.000
    O3469   O    0.77387   0.18758   0.36463   1.000
    O3470   O    0.81242   0.58628   0.36463   1.000
    O3471   O    0.15062   0.90428   0.36653   1.000
    O3472   O    0.09572   0.24633   0.36653   1.000
    O3473   O    0.75367   0.84938   0.36653   1.000
    O3474   O    0.85857   0.32793   0.36703   1.000
    O3475   O    0.81812   0.28538   0.36803   1.000
    O3476   O    0.67207   0.53063   0.36703   1.000
    O3477   O    0.71462   0.53273   0.36803   1.000
    O3478   O    0.46937   0.14143   0.36703   1.000
    O3479   O    0.46727   0.18188   0.36803   1.000
    O3480   O    0.17637   0.42178   0.37126   1.000
    O3481   O    0.57822   0.75458   0.37126   1.000
    O3482   O    0.24542   0.82363   0.37126   1.000
    O3483   O    0.77162   0.23103   0.36893   1.000
    O3484   O    0.73457   0.18333   0.36933   1.000
    O3485   O    0.76897   0.54058   0.36893   1.000
    O3486   O    0.81667   0.55123   0.36933   1.000
    O3487   O    0.45942   0.22838   0.36893   1.000
    O3488   O    0.44877   0.26543   0.36933   1.000
    O3489   O    0.31982   0.62538   0.37309   1.000
    O3490   O    0.37462   0.69438   0.37309   1.000
    O3491   O    0.30562   0.68018   0.37309   1.000
    O3492   O    0.72237   0.49458   0.37365   1.000
    O3493   O    0.77222   0.27763   0.37365   1.000
    O3494   O    0.50542   0.22778   0.37365   1.000
    O3495   O    0.10737   0.28603   0.37372   1.000
    O3496   O    0.11657   0.24698   0.37623   1.000
    O3497   O    0.17867   0.89263   0.37372   1.000
    O3498   O    0.13042   0.88343   0.37623   1.000
    O3499   O    0.71397   0.82133   0.37372   1.000
    O3500   O    0.75302   0.86958   0.37623   1.000
    O3501   O    0.44092   0.72678   0.37399   1.000
    O3502   O    0.49662   0.74813   0.37513   1.000
    O3503   O    0.28587   0.55908   0.37399   1.000
    O3504   O    0.25152   0.50338   0.37513   1.000
    O3505   O    0.27322   0.71413   0.37399   1.000
    O3506   O    0.25187   0.74848   0.37513   1.000
    O3507   O    0.55287   0.76498   0.37670   1.000
    O3508   O    0.60687   0.78198   0.37828   1.000
    O3509   O    0.23502   0.78788   0.37670   1.000
    O3510   O    0.21802   0.82488   0.37828   1.000
    O3511   O    0.21212   0.44713   0.37670   1.000
    O3512   O    0.17512   0.39313   0.37828   1.000
    O3513   O    0.68137   0.77608   0.37587   1.000
    O3514   O    0.09472   0.31863   0.37587   1.000
    O3515   O    0.22392   0.90528   0.37587   1.000
    O3516   O    0.20302   0.86263   0.37899   1.000
    O3517   O    0.13737   0.34038   0.37899   1.000
    O3518   O    0.65962   0.79698   0.37899   1.000
    O3519   O    0.54892   0.23038   0.37872   1.000
    O3520   O    0.53807   0.27028   0.37984   1.000
    O3521   O    0.76962   0.31853   0.37872   1.000
    O3522   O    0.72972   0.26778   0.37984   1.000
    O3523   O    0.68147   0.45108   0.37872   1.000
    O3524   O    0.73222   0.46193   0.37984   1.000
    O3525   O    0.22202   0.74768   0.38394   1.000
    O3526   O    0.25232   0.47433   0.38394   1.000
    O3527   O    0.52567   0.77798   0.38394   1.000
    O3528   O    0.13777   0.22648   0.38003   1.000
    O3529   O    0.08872   0.86223   0.38003   1.000
    O3530   O    0.77352   0.91128   0.38003   1.000
    O3531   O    0.60035   0.23305   0.38499   1.000
    O3532   O    0.76695   0.36730   0.38499   1.000
    O3533   O    0.63270   0.39965   0.38499   1.000
    O3534   O    0.13252   0.24208   0.38723   1.000
    O3535   O    0.10957   0.86748   0.38723   1.000
    O3536   O    0.75792   0.89043   0.38723   1.000
    O3537   O    0.17647   0.36388   0.38682   1.000
    O3538   O    0.63612   0.81258   0.38682   1.000
    O3539   O    0.18742   0.82353   0.38682   1.000
    O3540   O    0.57700   0.33005   0.38610   1.000
    O3541   O    0.75305   0.42300   0.38610   1.000
    O3542   O    0.66995   0.24695   0.38610   1.000
    O3543   O    0.28437   0.49503   0.39070   1.000
    O3544   O    0.25447   0.44678   0.39250   1.000
    O3545   O    0.50497   0.78933   0.39070   1.000
    O3546   O    0.55322   0.80768   0.39250   1.000
    O3547   O    0.21067   0.71563   0.39070   1.000
    O3548   O    0.19232   0.74553   0.39250   1.000
    O3549   O    0.63930   0.34820   0.39285   1.000
    O3550   O    0.59702   0.37719   0.39617   1.000
    O3551   O    0.78017   0.40298   0.39617   1.000
    O3552   O    0.65180   0.29110   0.39285   1.000
    O3553   O    0.62281   0.21983   0.39617   1.000
    O3554   O    0.21562   0.39033   0.39380   1.000
    O3555   O    0.17647   0.33483   0.39521   1.000
    O3556   O    0.60967   0.82528   0.39380   1.000
    O3557   O    0.66517   0.84163   0.39521   1.000
    O3558   O    0.17472   0.78438   0.39380   1.000
    O3559   O    0.15837   0.82353   0.39521   1.000
    O3560   O    0.14952   0.27643   0.39589   1.000
    O3561   O    0.12407   0.21988   0.39647   1.000
    O3562   O    0.72357   0.87308   0.39589   1.000
    O3563   O    0.78012   0.90418   0.39647   1.000
    O3564   O    0.12692   0.85048   0.39589   1.000
    O3565   O    0.09582   0.87593   0.39647   1.000
    O3566   O    0.16362   0.74278   0.40138   1.000
    O3567   O    0.25722   0.42083   0.40138   1.000
    O3568   O    0.57917   0.83638   0.40138   1.000
    O3569   O    0.06842   0.89448   0.39777   1.000
    O3570   O    0.10552   0.17393   0.39777   1.000
    O3571   O    0.82607   0.93158   0.39777   1.000
    O3572   O    0.14222   0.83478   0.40490   1.000
    O3573   O    0.16522   0.30743   0.40490   1.000
    O3574   O    0.69257   0.85778   0.40490   1.000
    O3575   O    0.80612   0.91713   0.40578   1.000
    O3576   O    0.08287   0.88898   0.40578   1.000
    O3577   O    0.11102   0.19388   0.40578   1.000
    O3578   O    0.60985   0.19365   0.40767   1.000
    O3579   O    0.58380   0.39015   0.40767   1.000
    O3580   O    0.80635   0.41620   0.40767   1.000
    O3581   O    0.49575   0.89910   0.41016   1.000
    O3582   O    0.10090   0.59665   0.41016   1.000
    O3583   O    0.40335   0.50425   0.41016   1.000
    O3584   O    0.13642   0.70768   0.40668   1.000
    O3585   O    0.57127   0.86358   0.40668   1.000
    O3586   O    0.29232   0.42873   0.40668   1.000
    O3587   O    0.57897   0.84103   0.41318   1.000
    O3588   O    0.26207   0.42103   0.41318   1.000
    O3589   O    0.15897   0.73793   0.41318   1.000
    O3590   O    0.55055   0.07775   0.41169   1.000
    O3591   O    0.52720   0.44945   0.41169   1.000
    O3592   O    0.92225   0.47280   0.41169   1.000
    O3593   O    0.49225   0.52325   0.41193   1.000
    O3594   O    0.47675   0.96900   0.41193   1.000
    O3595   O    0.03100   0.50775   0.41193   1.000
    O3596   O    0.12832   0.84693   0.41435   1.000
    O3597   O    0.15852   0.82233   0.41511   1.000
    O3598   O    0.71862   0.87168   0.41435   1.000
    O3599   O    0.66382   0.84148   0.41511   1.000
    O3600   O    0.15307   0.28138   0.41435   1.000
    O3601   O    0.17767   0.33618   0.41511   1.000
    O3602   O    0.10007   0.87568   0.41465   1.000
    O3603   O    0.07027   0.90473   0.41614   1.000
    O3604   O    0.77562   0.89993   0.41465   1.000
    O3605   O    0.83447   0.92973   0.41614   1.000
    O3606   O    0.12432   0.22438   0.41465   1.000
    O3607   O    0.09527   0.16553   0.41614   1.000
    O3608   O    0.62175   0.22320   0.41604   1.000
    O3609   O    0.59640   0.16780   0.41719   1.000
    O3610   O    0.77680   0.39855   0.41604   1.000
    O3611   O    0.83220   0.42860   0.41719   1.000
    O3612   O    0.60145   0.37825   0.41604   1.000
    O3613   O    0.57140   0.40360   0.41719   1.000
    O3614   O    0.64958   0.29162   0.41607   1.000
    O3615   O    0.64203   0.35042   0.41607   1.000
    O3616   O    0.70838   0.35797   0.41607   1.000
    O3617   O    0.49560   0.94225   0.41418   1.000
    O3618   O    0.50770   0.91230   0.42016   1.000
    O3619   O    0.05775   0.55335   0.41418   1.000
    O3620   O    0.08770   0.59540   0.42016   1.000
    O3621   O    0.44665   0.50440   0.41418   1.000
    O3622   O    0.40460   0.49230   0.42016   1.000
    O3623   O    0.01708   0.97537   0.41727   1.000
    O3624   O    0.04492   0.93478   0.41730   1.000
    O3625   O    0.02463   0.04172   0.41727   1.000
    O3626   O    0.06522   0.11013   0.41730   1.000
    O3627   O    0.95828   0.98292   0.41727   1.000
    O3628   O    0.88987   0.95508   0.41730   1.000
    O3629   O    0.48900   0.49185   0.41822   1.000
    O3630   O    0.00285   0.51100   0.41822   1.000
    O3631   O    0.50815   0.99715   0.41822   1.000
    O3632   O    0.56660   0.10895   0.41868   1.000
    O3633   O    0.53835   0.05195   0.41898   1.000
    O3634   O    0.89105   0.45765   0.41868   1.000
    O3635   O    0.94805   0.48640   0.41899   1.000
    O3636   O    0.54235   0.43340   0.41868   1.000
    O3637   O    0.51360   0.46165   0.41899   1.000
    O3638   O    0.74442   0.88388   0.42164   1.000
    O3639   O    0.13947   0.25558   0.42164   1.000
    O3640   O    0.11612   0.86053   0.42164   1.000
    O3641   O    0.60892   0.82893   0.41916   1.000
    O3642   O    0.63567   0.81008   0.42141   1.000
    O3643   O    0.22002   0.39108   0.41916   1.000
    O3644   O    0.17442   0.36433   0.42141   1.000
    O3645   O    0.17107   0.77998   0.41916   1.000
    O3646   O    0.18992   0.82558   0.42141   1.000
    O3647   O    0.17092   0.73668   0.42318   1.000
    O3648   O    0.26332   0.43423   0.42318   1.000
    O3649   O    0.56577   0.82908   0.42318   1.000
    O3650   O    0.05682   0.91713   0.42566   1.000
    O3651   O    0.08287   0.13968   0.42566   1.000
    O3652   O    0.86032   0.94318   0.42566   1.000
    O3653   O    0.58380   0.13945   0.42755   1.000
    O3654   O    0.55565   0.41620   0.42755   1.000
    O3655   O    0.86055   0.44435   0.42755   1.000
    O3656   O    0.52445   0.02590   0.42844   1.000
    O3657   O    0.97410   0.49855   0.42844   1.000
    O3658   O    0.50145   0.47555   0.42844   1.000
    O3659   O    0.09540   0.62565   0.42666   1.000
    O3660   O    0.08750   0.59055   0.43195   1.000
    O3661   O    0.37435   0.46975   0.42666   1.000
    O3662   O    0.40945   0.49695   0.43195   1.000
    O3663   O    0.53025   0.90460   0.42666   1.000
    O3664   O    0.50305   0.91250   0.43195   1.000
    O3665   O    0.06965   0.11350   0.43716   1.000
    O3666   O    0.88650   0.95615   0.43716   1.000
    O3667   O    0.04385   0.93035   0.43716   1.000
    O3668   O    0.56115   0.40175   0.43556   1.000
    O3669   O    0.54260   0.42915   0.43687   1.000
    O3670   O    0.84060   0.43885   0.43556   1.000
    O3671   O    0.88655   0.45740   0.43687   1.000
    O3672   O    0.59825   0.15940   0.43556   1.000
    O3673   O    0.57085   0.11345   0.43687   1.000
    O3674   O    0.94310   0.48285   0.43745   1.000
    O3675   O    0.00150   0.50980   0.43813   1.000
    O3676   O    0.51715   0.46025   0.43745   1.000
    O3677   O    0.49020   0.49170   0.43813   1.000
    O3678   O    0.53975   0.05690   0.43745   1.000
    O3679   O    0.50830   0.99850   0.43813   1.000
    O3680   O    0.01487   0.97264   0.44048   1.000
    O3681   O    0.02737   0.04224   0.44048   1.000
    O3682   O    0.49195   0.94300   0.43954   1.000
    O3683   O    0.47435   0.88655   0.44083   1.000
    O3684   O    0.05700   0.54895   0.43954   1.000
    O3685   O    0.11345   0.58780   0.44083   1.000
    O3686   O    0.45105   0.50805   0.43954   1.000
    O3687   O    0.41220   0.52565   0.44083   1.000
    O3688   O    0.53415   0.44290   0.44611   1.000
    O3689   O    0.55710   0.09125   0.44611   1.000
    O3690   O    0.90875   0.46585   0.44611   1.000
    O3691   O    0.45600   0.83830   0.44264   1.000
    O3692   O    0.38230   0.54400   0.44264   1.000
    O3693   O    0.16170   0.61770   0.44264   1.000
    O3694   O    0.03055   0.50980   0.44652   1.000
    O3695   O    0.47925   0.96945   0.44652   1.000
    O3696   O    0.49020   0.52075   0.44652   1.000
    O3697   O    0.91362   0.00328   0.44723   1.000
    O3698   O    0.89972   0.93368   0.44834   1.000
    O3699   O    0.99672   0.91034   0.44723   1.000
    O3700   O    0.06632   0.96604   0.44834   1.000
    O3701   O    0.08967   0.08639   0.44723   1.000
    O3702   O    0.03397   0.10029   0.44834   1.000
    O3703   O    0.14100   0.58565   0.44939   1.000
    O3704   O    0.41435   0.55535   0.44939   1.000
    O3705   O    0.44465   0.85900   0.44939   1.000
    O3706   O    0.93445   0.06305   0.45350   1.000
    O3707   O    0.12860   0.06555   0.45350   1.000
    O3708   O    0.93695   0.87140   0.45350   1.000
    O3709   O    0.00705   0.47070   0.45434   1.000
    O3710   O    0.05980   0.50845   0.45506   1.000
    O3711   O    0.52930   0.53635   0.45434   1.000
    O3712   O    0.49155   0.55135   0.45506   1.000
    O3713   O    0.46365   0.99295   0.45434   1.000
    O3714   O    0.44865   0.94020   0.45506   1.000
    O3715   O    0.89315   0.47110   0.45330   1.000
    O3716   O    0.91365   0.44990   0.45710   1.000
    O3717   O    0.52890   0.42205   0.45330   1.000
    O3718   O    0.55010   0.46375   0.45710   1.000
    O3719   O    0.57795   0.10685   0.45330   1.000
    O3720   O    0.53625   0.08635   0.45710   1.000
    O3721   O    0.11775   0.01480   0.45461   1.000
    O3722   O    0.98520   0.10295   0.45461   1.000
    O3723   O    0.89705   0.88225   0.45461   1.000
    O3724   O    0.45455   0.56835   0.45663   1.000
    O3725   O    0.41515   0.58520   0.45821   1.000
    O3726   O    0.43165   0.88620   0.45663   1.000
    O3727   O    0.41480   0.82995   0.45821   1.000
    O3728   O    0.11380   0.54545   0.45663   1.000
    O3729   O    0.17005   0.58485   0.45821   1.000
    O3730   O    0.89445   0.83875   0.45968   1.000
    O3731   O    0.94430   0.10555   0.45968   1.000
    O3732   O    0.16125   0.05570   0.45968   1.000
    O3733   O    0.38080   0.60655   0.45934   1.000
    O3734   O    0.34685   0.63895   0.46025   1.000
    O3735   O    0.39345   0.77425   0.45934   1.000
    O3736   O    0.36105   0.70795   0.46025   1.000
    O3737   O    0.22575   0.61920   0.45934   1.000
    O3738   O    0.29205   0.65315   0.46025   1.000
    O3739   O    0.44275   0.01470   0.45746   1.000
    O3740   O    0.48800   0.04730   0.45961   1.000
    O3741   O    0.98530   0.42805   0.45746   1.000
    O3742   O    0.95270   0.44070   0.45961   1.000
    O3743   O    0.57195   0.55725   0.45746   1.000
    O3744   O    0.55930   0.51200   0.45961   1.000
    O3745   O    0.42125   0.91155   0.46208   1.000
    O3746   O    0.49030   0.57875   0.46208   1.000
    O3747   O    0.08845   0.50970   0.46208   1.000
    O3748   O    0.19770   0.58835   0.46695   1.000
    O3749   O    0.39065   0.80230   0.46695   1.000
    O3750   O    0.41165   0.60935   0.46695   1.000
    O3751   O    0.51605   0.08700   0.46680   1.000
    O3752   O    0.91300   0.42905   0.46680   1.000
    O3753   O    0.57095   0.48395   0.46680   1.000
    O3754   O    0.85000   0.06790   0.46400   1.000
    O3755   O    0.21790   0.15000   0.46400   1.000
    O3756   O    0.93210   0.78210   0.46400   1.000
    O3757   O    0.89505   0.79275   0.46441   1.000
    O3758   O    0.84855   0.80060   0.46531   1.000
    O3759   O    0.89770   0.10495   0.46441   1.000
    O3760   O    0.95205   0.15145   0.46531   1.000
    O3761   O    0.20725   0.10230   0.46441   1.000
    O3762   O    0.19940   0.04795   0.46531   1.000
    O3763   O    0.33330   0.66670   0.47187   1.000
    O3764   O    0.19730   0.00540   0.46630   1.000
    O3765   O    0.80810   0.80270   0.46630   1.000
    O3766   O    0.85425   0.10720   0.46870   1.000
    O3767   O    0.89280   0.74705   0.46870   1.000
    O3768   O    0.25295   0.14575   0.46870   1.000
    O3769   O    0.99460   0.19190   0.46630   1.000
    O3770   O    0.80350   0.76305   0.47061   1.000
    O3771   O    0.95955   0.19650   0.47061   1.000
    O3772   O    0.23695   0.04045   0.47061   1.000
    O3773   O    0.82255   0.11650   0.47270   1.000
    O3774   O    0.86245   0.15430   0.47412   1.000
    O3775   O    0.88350   0.70605   0.47270   1.000
    O3776   O    0.84570   0.70815   0.47412   1.000
    O3777   O    0.29395   0.17745   0.47270   1.000
    O3778   O    0.29185   0.13755   0.47412   1.000
    O3779   O    0.37304   0.77830   0.47921   1.000
    O3780   O    0.22170   0.59474   0.47921   1.000
    O3781   O    0.40526   0.62696   0.47921   1.000
    O3782   O    0.66565   0.59070   0.47525   1.000
    O3783   O    0.40930   0.07495   0.47525   1.000
    O3784   O    0.92505   0.33435   0.47525   1.000
    O3785   O    0.80290   0.71630   0.47513   1.000
    O3786   O    0.75680   0.72435   0.47583   1.000
    O3787   O    0.28370   0.08660   0.47513   1.000
    O3788   O    0.27565   0.03245   0.47583   1.000
    O3789   O    0.91340   0.19710   0.47513   1.000
    O3790   O    0.96755   0.24320   0.47583   1.000
    O3791   O    0.64425   0.65125   0.47491   1.000
    O3792   O    0.34875   0.99300   0.47491   1.000
    O3793   O    0.00700   0.35575   0.47491   1.000
    O3794   O    0.95705   0.32665   0.47621   1.000
    O3795   O    0.98670   0.30345   0.47643   1.000
    O3796   O    0.36960   0.04295   0.47621   1.000
    O3797   O    0.31675   0.01330   0.47643   1.000
    O3798   O    0.67335   0.63040   0.47621   1.000
    O3799   O    0.69655   0.68325   0.47643   1.000
    O3800   O    0.86570   0.19555   0.47985   1.000
    O3801   O    0.80445   0.67015   0.47985   1.000
    O3802   O    0.32985   0.13430   0.47985   1.000
    O3803   O    0.70135   0.60415   0.48086   1.000
    O3804   O    0.90280   0.29865   0.48086   1.000
    O3805   O    0.39585   0.09720   0.48086   1.000
    O3806   O    0.00505   0.27785   0.47977   1.000
    O3807   O    0.27280   0.99495   0.47977   1.000
    O3808   O    0.72215   0.72720   0.47977   1.000
    O3809   O    0.34808   0.70900   0.48322   1.000
    O3810   O    0.86360   0.24210   0.48399   1.000
    O3811   O    0.82630   0.18825   0.48783   1.000
    O3812   O    0.37850   0.13640   0.48399   1.000
    O3813   O    0.36195   0.17370   0.48783   1.000
    O3814   O    0.75790   0.62150   0.48399   1.000
    O3815   O    0.81175   0.63805   0.48783   1.000
    O3816   O    0.86225   0.28855   0.48808   1.000
    O3817   O    0.71145   0.57370   0.48808   1.000
    O3818   O    0.42630   0.13775   0.48808   1.000
    O3819   O    0.24185   0.57524   0.48961   1.000
    O3820   O    0.23210   0.63454   0.48990   1.000
    O3821   O    0.33338   0.75815   0.48961   1.000
    O3822   O    0.40244   0.76790   0.48990   1.000
    O3823   O    0.42476   0.66662   0.48961   1.000
    O3824   O    0.36546   0.59757   0.48990   1.000
    O3825   O    0.67670   0.53325   0.49197   1.000
    O3826   O    0.72125   0.54180   0.49479   1.000
    O3827   O    0.46675   0.14345   0.49197   1.000
    O3828   O    0.45820   0.17945   0.49479   1.000
    O3829   O    0.85655   0.32330   0.49197   1.000
    O3830   O    0.82055   0.27875   0.49479   1.000
    O3831   O    0.35040   0.20340   0.49285   1.000
    O3832   O    0.39255   0.21285   0.49510   1.000
    O3833   O    0.79660   0.14700   0.49285   1.000
    O3834   O    0.78715   0.17970   0.49510   1.000
    O3835   O    0.85300   0.64960   0.49285   1.000
    O3836   O    0.82030   0.60745   0.49510   1.000
    O3837   O    0.26215   0.53345   0.49445   1.000
    O3838   O    0.46655   0.72870   0.49445   1.000
    O3839   O    0.27130   0.73785   0.49445   1.000
    O3840   O    0.31590   0.54300   0.49474   1.000
    O3841   O    0.45700   0.77290   0.49474   1.000
    O3842   O    0.22710   0.68410   0.49474   1.000
    O3843   O    0.27280   0.49575   0.49898   1.000
    O3844   O    0.50425   0.77705   0.49898   1.000
    O3845   O    0.22295   0.72720   0.49898   1.000
    O3846   O    0.24545   0.82270   0.49975   1.000
    O3847   O    0.57725   0.75455   0.49975   1.000
    O3848   O    0.17730   0.42275   0.49975   1.000
    O3849   O    0.78275   0.22375   0.49797   1.000
    O3850   O    0.77705   0.27280   0.50102   1.000
    O3851   O    0.44100   0.21725   0.49797   1.000
    O3852   O    0.49575   0.22295   0.50102   1.000
    O3853   O    0.77625   0.55900   0.49797   1.000
    O3854   O    0.72720   0.50425   0.50102   1.000
    O3855   O    0.75455   0.17730   0.50025   1.000
    O3856   O    0.42275   0.24545   0.50025   1.000
    O3857   O    0.82270   0.57725   0.50025   1.000
    O3858   O    0.21725   0.77625   0.50203   1.000
    O3859   O    0.21285   0.82030   0.50490   1.000
    O3860   O    0.55900   0.78275   0.50203   1.000
    O3861   O    0.60745   0.78715   0.50490   1.000
    O3862   O    0.22375   0.44100   0.50203   1.000
    O3863   O    0.17970   0.39255   0.50490   1.000
    O3864   O    0.27875   0.45820   0.50521   1.000
    O3865   O    0.54180   0.82055   0.50521   1.000
    O3866   O    0.17945   0.72125   0.50521   1.000
    O3867   O    0.77290   0.31590   0.50526   1.000
    O3868   O    0.72870   0.26215   0.50555   1.000
    O3869   O    0.54300   0.22710   0.50526   1.000
    O3870   O    0.53345   0.27130   0.50555   1.000
    O3871   O    0.68410   0.45700   0.50526   1.000
    O3872   O    0.73785   0.46655   0.50555   1.000
    O3873   O    0.59756   0.23211   0.51011   1.000
    O3874   O    0.76789   0.36546   0.51011   1.000
    O3875   O    0.63454   0.40243   0.51011   1.000
    O3876   O    0.14700   0.35040   0.50715   1.000
    O3877   O    0.64960   0.79660   0.50715   1.000
    O3878   O    0.20340   0.85300   0.50715   1.000
    O3879   O    0.75814   0.42476   0.51040   1.000
    O3880   O    0.57524   0.33338   0.51040   1.000
    O3881   O    0.66661   0.24186   0.51040   1.000
    O3882   O    0.32330   0.46675   0.50803   1.000
    O3883   O    0.53325   0.85655   0.50803   1.000
    O3884   O    0.14345   0.67670   0.50803   1.000
    O3885   O    0.18825   0.36195   0.51217   1.000
    O3886   O    0.63805   0.82630   0.51217   1.000
    O3887   O    0.17370   0.81175   0.51217   1.000
    O3888   O    0.28855   0.42630   0.51192   1.000
    O3889   O    0.57370   0.86225   0.51192   1.000
    O3890   O    0.13775   0.71145   0.51192   1.000
    O3891   O    0.59474   0.37304   0.52079   1.000
    O3892   O    0.77829   0.40526   0.52079   1.000
    O3893   O    0.65191   0.29101   0.51678   1.000
    O3894   O    0.62696   0.22170   0.52079   1.000
    O3895   O    0.24210   0.37850   0.51601   1.000
    O3896   O    0.29865   0.39585   0.51914   1.000
    O3897   O    0.62150   0.86360   0.51601   1.000
    O3898   O    0.60415   0.90280   0.51914   1.000
    O3899   O    0.13640   0.75790   0.51601   1.000
    O3900   O    0.09720   0.70135   0.51914   1.000
    O3901   O    0.19555   0.32985   0.52015   1.000
    O3902   O    0.67015   0.86570   0.52015   1.000
    O3903   O    0.13430   0.80445   0.52015   1.000
    O3904   O    0.72720   0.00505   0.52023   1.000
    O3905   O    0.99495   0.72215   0.52023   1.000
    O3906   O    0.27785   0.27280   0.52023   1.000
    O3907   O    0.66670   0.33330   0.52814   1.000
    O3908   O    0.68325   0.98670   0.52357   1.000
    O3909   O    0.72435   0.96755   0.52417   1.000
    O3910   O    0.30345   0.31675   0.52357   1.000
    O3911   O    0.24320   0.27565   0.52417   1.000
    O3912   O    0.01330   0.69655   0.52357   1.000
    O3913   O    0.03245   0.75680   0.52417   1.000
    O3914   O    0.32665   0.36960   0.52379   1.000
    O3915   O    0.33435   0.40930   0.52475   1.000
    O3916   O    0.63040   0.95705   0.52379   1.000
    O3917   O    0.59070   0.92505   0.52475   1.000
    O3918   O    0.04295   0.67335   0.52379   1.000
    O3919   O    0.07495   0.66565   0.52475   1.000
    O3920   O    0.19710   0.28370   0.52487   1.000
    O3921   O    0.15430   0.29185   0.52588   1.000
    O3922   O    0.71630   0.91340   0.52487   1.000
    O3923   O    0.70815   0.86245   0.52588   1.000
    O3924   O    0.08660   0.80290   0.52487   1.000
    O3925   O    0.13755   0.84570   0.52588   1.000
    O3926   O    0.35575   0.34875   0.52509   1.000
    O3927   O    0.99300   0.64425   0.52509   1.000
    O3928   O    0.65125   0.00700   0.52509   1.000
    O3929   O    0.76305   0.95955   0.52939   1.000
    O3930   O    0.04045   0.80350   0.52939   1.000
    O3931   O    0.19650   0.23695   0.52939   1.000
    O3932   O    0.11650   0.29395   0.52730   1.000
    O3933   O    0.17745   0.88350   0.52730   1.000
    O3934   O    0.70605   0.82255   0.52730   1.000
    O3935   O    0.60935   0.19770   0.53305   1.000
    O3936   O    0.80230   0.41165   0.53305   1.000
    O3937   O    0.58835   0.39065   0.53305   1.000
    O3938   O    0.14575   0.89280   0.53130   1.000
    O3939   O    0.74705   0.85425   0.53130   1.000
    O3940   O    0.10720   0.25295   0.53130   1.000
    O3941   O    0.48395   0.91300   0.53320   1.000
    O3942   O    0.08700   0.57095   0.53320   1.000
    O3943   O    0.42905   0.51605   0.53320   1.000
    O3944   O    0.19190   0.19730   0.53370   1.000
    O3945   O    0.15145   0.19940   0.53470   1.000
    O3946   O    0.80270   0.99460   0.53370   1.000
    O3947   O    0.80060   0.95205   0.53470   1.000
    O3948   O    0.00540   0.80810   0.53370   1.000
    O3949   O    0.04795   0.84855   0.53470   1.000
    O3950   O    0.50970   0.42125   0.53792   1.000
    O3951   O    0.57875   0.08845   0.53792   1.000
    O3952   O    0.91155   0.49030   0.53792   1.000
    O3953   O    0.10230   0.89505   0.53560   1.000
    O3954   O    0.15000   0.93210   0.53600   1.000
    O3955   O    0.79275   0.89770   0.53560   1.000
    O3956   O    0.78210   0.85000   0.53600   1.000
    O3957   O    0.10495   0.20725   0.53560   1.000
    O3958   O    0.06790   0.21790   0.53600   1.000
    O3959   O    0.65315   0.36105   0.53976   1.000
    O3960   O    0.70795   0.34685   0.53976   1.000
    O3961   O    0.63895   0.29205   0.53976   1.000
    O3962   O    0.05570   0.89445   0.54032   1.000
    O3963   O    0.10555   0.16125   0.54032   1.000
    O3964   O    0.83875   0.94430   0.54032   1.000
    O3965   O    0.51200   0.95270   0.54039   1.000
    O3966   O    0.46375   0.91365   0.54290   1.000
    O3967   O    0.04730   0.55930   0.54039   1.000
    O3968   O    0.08635   0.55010   0.54290   1.000
    O3969   O    0.44070   0.48800   0.54039   1.000
    O3970   O    0.44990   0.53625   0.54290   1.000
    O3971   O    0.60655   0.22575   0.54066   1.000
    O3972   O    0.58520   0.17005   0.54180   1.000
    O3973   O    0.77425   0.38080   0.54066   1.000
    O3974   O    0.82995   0.41515   0.54180   1.000
    O3975   O    0.61920   0.39345   0.54066   1.000
    O3976   O    0.58485   0.41480   0.54180   1.000
    O3977   O    0.56835   0.11380   0.54337   1.000
    O3978   O    0.55135   0.05980   0.54495   1.000
    O3979   O    0.88620   0.45455   0.54337   1.000
    O3980   O    0.94020   0.49155   0.54495   1.000
    O3981   O    0.54545   0.43165   0.54337   1.000
    O3982   O    0.50845   0.44865   0.54495   1.000
    O3983   O    0.01470   0.57195   0.54254   1.000
    O3984   O    0.55725   0.98530   0.54254   1.000
    O3985   O    0.42805   0.44275   0.54254   1.000
    O3986   O    0.99295   0.52930   0.54566   1.000
    O3987   O    0.53635   0.00705   0.54566   1.000
    O3988   O    0.47070   0.46365   0.54566   1.000
    O3989   O    0.88225   0.98520   0.54539   1.000
    O3990   O    0.87140   0.93445   0.54651   1.000
    O3991   O    0.01480   0.89705   0.54539   1.000
    O3992   O    0.06555   0.93695   0.54651   1.000
    O3993   O    0.10295   0.11775   0.54539   1.000
    O3994   O    0.06305   0.12860   0.54651   1.000
    O3995   O    0.85900   0.41435   0.55061   1.000
    O3996   O    0.55535   0.14100   0.55061   1.000
    O3997   O    0.58565   0.44465   0.55061   1.000
    O3998   O    0.10685   0.52890   0.54670   1.000
    O3999   O    0.42205   0.89315   0.54670   1.000
    O4000   O    0.47110   0.57795   0.54670   1.000
    O4001   O    0.10029   0.06632   0.55166   1.000
    O4002   O    0.96603   0.89971   0.55166   1.000
    O4003   O    0.93368   0.03396   0.55166   1.000
    O4004   O    0.09125   0.53415   0.55390   1.000
    O4005   O    0.46585   0.55710   0.55390   1.000
    O4006   O    0.44290   0.90875   0.55390   1.000
    O4007   O    0.96945   0.49020   0.55349   1.000
    O4008   O    0.50980   0.47925   0.55349   1.000
    O4009   O    0.52075   0.03055   0.55349   1.000
    O4010   O    0.00328   0.08966   0.55277   1.000
    O4011   O    0.91033   0.91361   0.55277   1.000
    O4012   O    0.08639   0.99672   0.55277   1.000
    O4013   O    0.54400   0.16170   0.55736   1.000
    O4014   O    0.52565   0.11345   0.55917   1.000
    O4015   O    0.83830   0.38230   0.55736   1.000
    O4016   O    0.88655   0.41220   0.55917   1.000
    O4017   O    0.61770   0.45600   0.55736   1.000
    O4018   O    0.58780   0.47435   0.55917   1.000
    O4019   O    0.98513   0.02737   0.55951   1.000
    O4020   O    0.95615   0.06965   0.56284   1.000
    O4021   O    0.04224   0.01487   0.55952   1.000
    O4022   O    0.11350   0.04385   0.56284   1.000
    O4023   O    0.93035   0.88650   0.56284   1.000
    O4024   O    0.54895   0.49195   0.56046   1.000
    O4025   O    0.50980   0.50830   0.56188   1.000
    O4026   O    0.94300   0.45105   0.56046   1.000
    O4027   O    0.99850   0.49020   0.56188   1.000
    O4028   O    0.50805   0.05700   0.56046   1.000
    O4029   O    0.49170   0.00150   0.56188   1.000
    O4030   O    0.46025   0.94310   0.56256   1.000
    O4031   O    0.42915   0.88655   0.56314   1.000
    O4032   O    0.05690   0.51715   0.56256   1.000
    O4033   O    0.11345   0.54260   0.56314   1.000
    O4034   O    0.48285   0.53975   0.56256   1.000
    O4035   O    0.45740   0.57085   0.56314   1.000
    O4036   O    0.49695   0.08750   0.56805   1.000
    O4037   O    0.91250   0.40945   0.56805   1.000
    O4038   O    0.59055   0.50305   0.56805   1.000
    O4039   O    0.40175   0.84060   0.56444   1.000
    O4040   O    0.15940   0.56115   0.56444   1.000
    O4041   O    0.43885   0.59825   0.56444   1.000
    O4042   O    0.49855   0.52445   0.57156   1.000
    O4043   O    0.02590   0.50145   0.57156   1.000
    O4044   O    0.47555   0.97410   0.57156   1.000
    O4045   O    0.44435   0.58380   0.57245   1.000
    O4046   O    0.13945   0.55565   0.57245   1.000
    O4047   O    0.41620   0.86055   0.57245   1.000
    O4048   O    0.94318   0.08287   0.57434   1.000
    O4049   O    0.91713   0.86032   0.57434   1.000
    O4050   O    0.13968   0.05682   0.57434   1.000
    O4051   O    0.43423   0.17092   0.57682   1.000
    O4052   O    0.73668   0.56577   0.57682   1.000
    O4053   O    0.82908   0.26332   0.57682   1.000
    O4054   O    0.46975   0.09540   0.57334   1.000
    O4055   O    0.90460   0.37435   0.57334   1.000
    O4056   O    0.62565   0.53025   0.57334   1.000
    O4057   O    0.59540   0.50770   0.57985   1.000
    O4058   O    0.91230   0.40460   0.57985   1.000
    O4059   O    0.49230   0.08770   0.57985   1.000
    O4060   O    0.88388   0.13947   0.57836   1.000
    O4061   O    0.86053   0.74442   0.57836   1.000
    O4062   O    0.25558   0.11612   0.57836   1.000
    O4063   O    0.81008   0.17442   0.57859   1.000
    O4064   O    0.82558   0.63567   0.57859   1.000
    O4065   O    0.36433   0.18992   0.57859   1.000
    O4066   O    0.48640   0.53835   0.58102   1.000
    O4067   O    0.51100   0.50815   0.58178   1.000
    O4068   O    0.46165   0.94805   0.58102   1.000
    O4069   O    0.49185   0.00285   0.58178   1.000
    O4070   O    0.05195   0.51360   0.58102   1.000
    O4071   O    0.99715   0.48900   0.58178   1.000
    O4072   O    0.43340   0.89105   0.58132   1.000
    O4073   O    0.40360   0.83220   0.58281   1.000
    O4074   O    0.10895   0.54235   0.58132   1.000
    O4075   O    0.16780   0.57140   0.58281   1.000
    O4076   O    0.45765   0.56660   0.58132   1.000
    O4077   O    0.42860   0.59640   0.58281   1.000
    O4078   O    0.95508   0.06522   0.58270   1.000
    O4079   O    0.92973   0.09527   0.58386   1.000
    O4080   O    0.93478   0.88987   0.58270   1.000
    O4081   O    0.90473   0.83447   0.58386   1.000
    O4082   O    0.11013   0.04492   0.58270   1.000
    O4083   O    0.16553   0.07027   0.58386   1.000
    O4084   O    0.98292   0.02463   0.58273   1.000
    O4085   O    0.97537   0.95828   0.58273   1.000
    O4086   O    0.04172   0.01708   0.58273   1.000
    O4087   O    0.82893   0.22002   0.58084   1.000
    O4088   O    0.84103   0.26207   0.58682   1.000
    O4089   O    0.39108   0.17107   0.58084   1.000
    O4090   O    0.42103   0.15897   0.58682   1.000
    O4091   O    0.77998   0.60892   0.58084   1.000
    O4092   O    0.73793   0.57897   0.58682   1.000
    O4093   O    0.29162   0.64203   0.58393   1.000
    O4094   O    0.22320   0.60145   0.58397   1.000
    O4095   O    0.35042   0.70838   0.58393   1.000
    O4096   O    0.37825   0.77680   0.58397   1.000
    O4097   O    0.35797   0.64958   0.58393   1.000
    O4098   O    0.39855   0.62175   0.58397   1.000
    O4099   O    0.84148   0.17767   0.58489   1.000
    O4100   O    0.82233   0.66382   0.58489   1.000
    O4101   O    0.33618   0.15852   0.58489   1.000
    O4102   O    0.89993   0.12432   0.58535   1.000
    O4103   O    0.87168   0.15307   0.58565   1.000
    O4104   O    0.87568   0.77562   0.58535   1.000
    O4105   O    0.84693   0.71862   0.58565   1.000
    O4106   O    0.22438   0.10007   0.58535   1.000
    O4107   O    0.28138   0.12832   0.58565   1.000
    O4108   O    0.47280   0.55055   0.58831   1.000
    O4109   O    0.07775   0.52720   0.58831   1.000
    O4110   O    0.44945   0.92225   0.58831   1.000
    O4111   O    0.55335   0.49560   0.58583   1.000
    O4112   O    0.50775   0.47675   0.58808   1.000
    O4113   O    0.50440   0.05775   0.58583   1.000
    O4114   O    0.52325   0.03100   0.58808   1.000
    O4115   O    0.94225   0.44665   0.58583   1.000
    O4116   O    0.96900   0.49225   0.58808   1.000
    O4117   O    0.59665   0.49575   0.58985   1.000
    O4118   O    0.50425   0.10090   0.58985   1.000
    O4119   O    0.89910   0.40335   0.58985   1.000
    O4120   O    0.41620   0.60985   0.59233   1.000
    O4121   O    0.19365   0.58380   0.59233   1.000
    O4122   O    0.39015   0.80635   0.59233   1.000
    O4123   O    0.88898   0.80612   0.59422   1.000
    O4124   O    0.91713   0.11102   0.59422   1.000
    O4125   O    0.19388   0.08287   0.59422   1.000
    O4126   O    0.30743   0.14222   0.59510   1.000
    O4127   O    0.85778   0.16522   0.59510   1.000
    O4128   O    0.83478   0.69257   0.59510   1.000
    O4129   O    0.86358   0.29232   0.59332   1.000
    O4130   O    0.83638   0.25722   0.59862   1.000
    O4131   O    0.70768   0.57127   0.59332   1.000
    O4132   O    0.74278   0.57917   0.59862   1.000
    O4133   O    0.42873   0.13642   0.59332   1.000
    O4134   O    0.42083   0.16362   0.59862   1.000
    O4135   O    0.40298   0.62281   0.60383   1.000
    O4136   O    0.21983   0.59702   0.60383   1.000
    O4137   O    0.37719   0.78017   0.60383   1.000
    O4138   O    0.17393   0.06842   0.60223   1.000
    O4139   O    0.21988   0.09582   0.60353   1.000
    O4140   O    0.89448   0.82607   0.60223   1.000
    O4141   O    0.87593   0.78012   0.60353   1.000
    O4142   O    0.93158   0.10552   0.60223   1.000
    O4143   O    0.90418   0.12407   0.60353   1.000
    O4144   O    0.87308   0.14952   0.60411   1.000
    O4145   O    0.84163   0.17647   0.60479   1.000
    O4146   O    0.27643   0.12692   0.60411   1.000
    O4147   O    0.33483   0.15837   0.60479   1.000
    O4148   O    0.85048   0.72357   0.60411   1.000
    O4149   O    0.82353   0.66517   0.60479   1.000
    O4150   O    0.36070   0.65180   0.60715   1.000
    O4151   O    0.34820   0.70890   0.60715   1.000
    O4152   O    0.39033   0.17472   0.60620   1.000
    O4153   O    0.44678   0.19232   0.60750   1.000
    O4154   O    0.78438   0.60967   0.60620   1.000
    O4155   O    0.74553   0.55322   0.60750   1.000
    O4156   O    0.82528   0.21562   0.60620   1.000
    O4157   O    0.80768   0.25447   0.60750   1.000
    O4158   O    0.89043   0.13252   0.61277   1.000
    O4159   O    0.86748   0.75792   0.61277   1.000
    O4160   O    0.24208   0.10957   0.61277   1.000
    O4161   O    0.49503   0.21067   0.60930   1.000
    O4162   O    0.71563   0.50497   0.60930   1.000
    O4163   O    0.78933   0.28437   0.60930   1.000
    O4164   O    0.81258   0.17647   0.61318   1.000
    O4165   O    0.82353   0.63612   0.61318   1.000
    O4166   O    0.36388   0.18742   0.61318   1.000
    O4167   O    0.24695   0.57700   0.61390   1.000
    O4168   O    0.23305   0.63270   0.61501   1.000
    O4169   O    0.42300   0.66995   0.61390   1.000
    O4170   O    0.36730   0.60035   0.61501   1.000
    O4171   O    0.33005   0.75305   0.61390   1.000
    O4172   O    0.39965   0.76695   0.61501   1.000
    O4173   O    0.77798   0.25232   0.61606   1.000
    O4174   O    0.47433   0.22202   0.61606   1.000
    O4175   O    0.74768   0.52567   0.61606   1.000
    O4176   O    0.46193   0.72972   0.62016   1.000
    O4177   O    0.26778   0.53807   0.62016   1.000
    O4178   O    0.27028   0.73222   0.62016   1.000
    O4179   O    0.86263   0.65962   0.62101   1.000
    O4180   O    0.82488   0.60687   0.62172   1.000
    O4181   O    0.34038   0.20302   0.62101   1.000
    O4182   O    0.39313   0.21802   0.62172   1.000
    O4183   O    0.79698   0.13737   0.62101   1.000
    O4184   O    0.78198   0.17512   0.62172   1.000
    O4185   O    0.22648   0.08872   0.61997   1.000
    O4186   O    0.24698   0.13042   0.62377   1.000
    O4187   O    0.86223   0.77352   0.61997   1.000
    O4188   O    0.88343   0.75302   0.62377   1.000
    O4189   O    0.91128   0.13777   0.61997   1.000
    O4190   O    0.86958   0.11657   0.62377   1.000
    O4191   O    0.23038   0.68147   0.62128   1.000
    O4192   O    0.31853   0.54892   0.62128   1.000
    O4193   O    0.45108   0.76962   0.62128   1.000
    O4194   O    0.44713   0.23502   0.62330   1.000
    O4195   O    0.50338   0.25187   0.62487   1.000
    O4196   O    0.78788   0.55287   0.62330   1.000
    O4197   O    0.74848   0.49662   0.62487   1.000
    O4198   O    0.76498   0.21212   0.62330   1.000
    O4199   O    0.74813   0.25152   0.62487   1.000
    O4200   O    0.27763   0.50542   0.62635   1.000
    O4201   O    0.49458   0.77222   0.62635   1.000
    O4202   O    0.22778   0.72237   0.62635   1.000
    O4203   O    0.55908   0.27322   0.62601   1.000
    O4204   O    0.62538   0.30562   0.62691   1.000
    O4205   O    0.71413   0.44092   0.62601   1.000
    O4206   O    0.68018   0.37462   0.62691   1.000
    O4207   O    0.72678   0.28587   0.62601   1.000
    O4208   O    0.69438   0.31982   0.62691   1.000
    O4209   O    0.77608   0.09472   0.62413   1.000
    O4210   O    0.82133   0.10737   0.62628   1.000
    O4211   O    0.90528   0.68137   0.62413   1.000
    O4212   O    0.89263   0.71397   0.62628   1.000
    O4213   O    0.31863   0.22392   0.62413   1.000
    O4214   O    0.28603   0.17867   0.62628   1.000
    O4215   O    0.42178   0.24542   0.62874   1.000
    O4216   O    0.82363   0.57822   0.62874   1.000
    O4217   O    0.75458   0.17637   0.62874   1.000
    O4218   O    0.72398   0.25502   0.63362   1.000
    O4219   O    0.74498   0.46897   0.63362   1.000
    O4220   O    0.53103   0.27602   0.63362   1.000
    O4221   O    0.84938   0.09572   0.63347   1.000
    O4222   O    0.90428   0.75367   0.63347   1.000
    O4223   O    0.24633   0.15062   0.63347   1.000
    O4224   O    0.55123   0.73457   0.63067   1.000
    O4225   O    0.18333   0.44877   0.63067   1.000
    O4226   O    0.26543   0.81667   0.63067   1.000
    O4227   O    0.54058   0.77162   0.63107   1.000
    O4228   O    0.53273   0.81812   0.63197   1.000
    O4229   O    0.23103   0.45942   0.63107   1.000
    O4230   O    0.28538   0.46727   0.63197   1.000
    O4231   O    0.22838   0.76897   0.63107   1.000
    O4232   O    0.18188   0.71462   0.63197   1.000
    O4233   O    0.66663   0.33337   0.63853   1.000
    O4234   O    0.22613   0.81242   0.63537   1.000
    O4235   O    0.58628   0.77387   0.63537   1.000
    O4236   O    0.18758   0.41372   0.63537   1.000
    O4237   O    0.53063   0.85857   0.63297   1.000
    O4238   O    0.32793   0.46937   0.63297   1.000
    O4239   O    0.14143   0.67207   0.63297   1.000
    O4240   O    0.57028   0.86317   0.63728   1.000
    O4241   O    0.29288   0.42972   0.63728   1.000
    O4242   O    0.13683   0.70712   0.63728   1.000
    O4243   O    0.21683   0.84412   0.63937   1.000
    O4244   O    0.17903   0.80422   0.64079   1.000
    O4245   O    0.15588   0.37272   0.63937   1.000
    O4246   O    0.19578   0.37482   0.64079   1.000
    O4247   O    0.62728   0.78317   0.63937   1.000
    O4248   O    0.62518   0.82097   0.64079   1.000
    O4249   O    0.55504   0.29363   0.64588   1.000
    O4250   O    0.73859   0.44496   0.64588   1.000
    O4251   O    0.70637   0.26141   0.64588   1.000
    O4252   O    0.74263   0.00102   0.64192   1.000
    O4253   O    0.99898   0.74162   0.64192   1.000
    O4254   O    0.25838   0.25737   0.64192   1.000
    O4255   O    0.24673   0.38297   0.64180   1.000
    O4256   O    0.30088   0.39102   0.64250   1.000
    O4257   O    0.13623   0.75327   0.64180   1.000
    O4258   O    0.09013   0.69912   0.64250   1.000
    O4259   O    0.61703   0.86377   0.64180   1.000
    O4260   O    0.60898   0.90987   0.64250   1.000
    O4261   O    0.97758   0.65967   0.64158   1.000
    O4262   O    0.34033   0.31792   0.64158   1.000
    O4263   O    0.68208   0.02242   0.64158   1.000
    O4264   O    0.70293   0.99332   0.64288   1.000
    O4265   O    0.65008   0.97012   0.64310   1.000
    O4266   O    0.00668   0.70962   0.64288   1.000
    O4267   O    0.02988   0.67997   0.64310   1.000
    O4268   O    0.29038   0.29707   0.64288   1.000
    O4269   O    0.32003   0.34992   0.64310   1.000
    O4270   O    0.13778   0.80097   0.64652   1.000
    O4271   O    0.66318   0.86222   0.64652   1.000
    O4272   O    0.19903   0.33682   0.64652   1.000
    O4273   O    0.72918   0.96532   0.64753   1.000
    O4274   O    0.03468   0.76387   0.64753   1.000
    O4275   O    0.23613   0.27082   0.64753   1.000
    O4276   O    0.05548   0.66162   0.64644   1.000
    O4277   O    0.33838   0.39387   0.64644   1.000
    O4278   O    0.60613   0.94452   0.64644   1.000
    O4279   O    0.62434   0.31858   0.64989   1.000
    O4280   O    0.09123   0.80307   0.65066   1.000
    O4281   O    0.14508   0.84037   0.65450   1.000
    O4282   O    0.19693   0.28817   0.65066   1.000
    O4283   O    0.15963   0.30472   0.65450   1.000
    O4284   O    0.71183   0.90877   0.65066   1.000
    O4285   O    0.69528   0.85492   0.65450   1.000
    O4286   O    0.75963   0.95522   0.65475   1.000
    O4287   O    0.19558   0.24037   0.65475   1.000
    O4288   O    0.04478   0.80442   0.65475   1.000
    O4289   O    0.75809   0.42481   0.65627   1.000
    O4290   O    0.69879   0.43456   0.65656   1.000
    O4291   O    0.66672   0.24191   0.65627   1.000
    O4292   O    0.73577   0.30121   0.65656   1.000
    O4293   O    0.57519   0.33328   0.65627   1.000
    O4294   O    0.56544   0.26423   0.65656   1.000
    O4295   O    0.01003   0.81012   0.65864   1.000
    O4296   O    0.05458   0.84612   0.66146   1.000
    O4297   O    0.18988   0.19992   0.65864   1.000
    O4298   O    0.15388   0.20847   0.66146   1.000
    O4299   O    0.80008   0.98997   0.65864   1.000
    O4300   O    0.79153   0.94542   0.66146   1.000
    O4301   O    0.18633   0.87007   0.65952   1.000
    O4302   O    0.15363   0.87952   0.66177   1.000
    O4303   O    0.12993   0.31627   0.65952   1.000
    O4304   O    0.12048   0.27412   0.66177   1.000
    O4305   O    0.68373   0.81367   0.65952   1.000
    O4306   O    0.72588   0.84637   0.66177   1.000
    O4307   O    0.59548   0.39537   0.66111   1.000
    O4308   O    0.79988   0.40452   0.66111   1.000
    O4309   O    0.60463   0.20012   0.66111   1.000
    O4310   O    0.56043   0.20967   0.66140   1.000
    O4311   O    0.64923   0.43957   0.66140   1.000
    O4312   O    0.79033   0.35077   0.66140   1.000
    O4313   O    0.55628   0.16242   0.66565   1.000
    O4314   O    0.60613   0.44372   0.66565   1.000
    O4315   O    0.83758   0.39387   0.66565   1.000
    O4316   O    0.51063   0.42122   0.66642   1.000
    O4317   O    0.57878   0.08942   0.66642   1.000
    O4318   O    0.91058   0.48937   0.66642   1.000
    O4319   O    0.77433   0.89042   0.66464   1.000
    O4320   O    0.82908   0.93947   0.66769   1.000
    O4321   O    0.10958   0.88392   0.66464   1.000
    O4322   O    0.06053   0.88962   0.66769   1.000
    O4323   O    0.11608   0.22567   0.66464   1.000
    O4324   O    0.11038   0.17092   0.66769   1.000
    O4325   O    0.15603   0.91212   0.66692   1.000
    O4326   O    0.08788   0.24392   0.66692   1.000
    O4327   O    0.75608   0.84397   0.66692   1.000
    O4328   O    0.55708   0.44942   0.66870   1.000
    O4329   O    0.51303   0.45382   0.67157   1.000
    O4330   O    0.89233   0.44292   0.66870   1.000
    O4331   O    0.94078   0.48697   0.67157   1.000
    O4332   O    0.55058   0.10767   0.66870   1.000
    O4333   O    0.54618   0.05922   0.67157   1.000
    O4334   O    0.61208   0.48722   0.67188   1.000
    O4335   O    0.87513   0.38792   0.67188   1.000
    O4336   O    0.51278   0.12487   0.67188   1.000
    O4337   O    0.01743   0.89377   0.67193   1.000
    O4338   O    0.07118   0.93797   0.67222   1.000
    O4339   O    0.87633   0.98257   0.67193   1.000
    O4340   O    0.86678   0.92882   0.67222   1.000
    O4341   O    0.10623   0.12367   0.67193   1.000
    O4342   O    0.06203   0.13322   0.67222   1.000
    O4343   O    0.93090   0.03213   0.67677   1.000
    O4344   O    0.10123   0.06910   0.67677   1.000
    O4345   O    0.96787   0.89877   0.67677   1.000
    O4346   O    0.48033   0.46327   0.67382   1.000
    O4347   O    0.98293   0.51967   0.67382   1.000
    O4348   O    0.53673   0.01707   0.67382   1.000
    O4349   O    0.90857   0.90852   0.67706   1.000
    O4350   O    0.99995   0.09143   0.67706   1.000
    O4351   O    0.09148   0.00005   0.67706   1.000
    O4352   O    0.65663   0.52322   0.67470   1.000
    O4353   O    0.47678   0.13342   0.67470   1.000
    O4354   O    0.86658   0.34337   0.67470   1.000
    O4355   O    0.52158   0.49297   0.67884   1.000
    O4356   O    0.50703   0.02862   0.67884   1.000
    O4357   O    0.97138   0.47842   0.67884   1.000
    O4358   O    0.90703   0.37812   0.67859   1.000
    O4359   O    0.47108   0.09297   0.67859   1.000
    O4360   O    0.62188   0.52892   0.67859   1.000
    O4361   O    0.04233   0.01475   0.68345   1.000
    O4362   O    0.98525   0.02758   0.68345   1.000
    O4363   O    0.97242   0.95767   0.68345   1.000
    O4364   O    0.57543   0.53027   0.68268   1.000
    O4365   O    0.63198   0.56947   0.68581   1.000
    O4366   O    0.95483   0.42457   0.68268   1.000
    O4367   O    0.93748   0.36802   0.68581   1.000
    O4368   O    0.46973   0.04517   0.68268   1.000
    O4369   O    0.43053   0.06252   0.68581   1.000
    O4370   O    0.00348   0.47112   0.68682   1.000
    O4371   O    0.46763   0.99652   0.68682   1.000
    O4372   O    0.52888   0.53237   0.68682   1.000
    O4373   O    0.61118   0.67172   0.68690   1.000
    O4374   O    0.32828   0.93947   0.68690   1.000
    O4375   O    0.06053   0.38882   0.68690   1.000
    O4376   O    0.00003   0.99997   0.69480   1.000
    O4377   O    0.99993   0.99997   0.69480   1.000
    O4378   O    0.00003   0.00007   0.69480   1.000
    O4379   O    0.63678   0.65337   0.69024   1.000
    O4380   O    0.57653   0.63422   0.69084   1.000
    O4381   O    0.34663   0.98342   0.69024   1.000
    O4382   O    0.36578   0.94232   0.69084   1.000
    O4383   O    0.01658   0.36322   0.69024   1.000
    O4384   O    0.05768   0.42347   0.69084   1.000
    O4385   O    0.37628   0.03627   0.69046   1.000
    O4386   O    0.40828   0.07597   0.69142   1.000
    O4387   O    0.96373   0.34002   0.69046   1.000
    O4388   O    0.92403   0.33232   0.69142   1.000
    O4389   O    0.65998   0.62372   0.69046   1.000
    O4390   O    0.66768   0.59172   0.69142   1.000
    O4391   O    0.04963   0.46957   0.69154   1.000
    O4392   O    0.04148   0.51237   0.69255   1.000
    O4393   O    0.41993   0.95037   0.69154   1.000
    O4394   O    0.47088   0.95852   0.69255   1.000
    O4395   O    0.53043   0.58007   0.69154   1.000
    O4396   O    0.48763   0.52912   0.69255   1.000
    O4397   O    0.68908   0.67367   0.69176   1.000
    O4398   O    0.98458   0.31092   0.69176   1.000
    O4399   O    0.32633   0.01542   0.69176   1.000
    O4400   O    0.52983   0.62622   0.69606   1.000
    O4401   O    0.37378   0.90362   0.69606   1.000
    O4402   O    0.09638   0.47017   0.69606   1.000
    O4403   O    0.44983   0.48922   0.69397   1.000
    O4404   O    0.51078   0.96062   0.69397   1.000
    O4405   O    0.03938   0.55017   0.69397   1.000
    O4406   O    0.92168   0.86437   0.69972   1.000
    O4407   O    0.13563   0.05732   0.69972   1.000
    O4408   O    0.94268   0.07832   0.69972   1.000
    O4409   O    0.08038   0.55947   0.69797   1.000
    O4410   O    0.47908   0.91962   0.69797   1.000
    O4411   O    0.44053   0.52092   0.69797   1.000
    O4412   O    0.81728   0.23762   0.69987   1.000
    O4413   O    0.76238   0.57967   0.69987   1.000
    O4414   O    0.42033   0.18272   0.69987   1.000
    O4415   O    0.13603   0.47477   0.70037   1.000
    O4416   O    0.13393   0.51522   0.70136   1.000
    O4417   O    0.52523   0.66127   0.70037   1.000
    O4418   O    0.48478   0.61872   0.70136   1.000
    O4419   O    0.33873   0.86397   0.70037   1.000
    O4420   O    0.38128   0.86607   0.70136   1.000
    O4421   O    0.91208   0.15697   0.70459   1.000
    O4422   O    0.84303   0.75512   0.70459   1.000
    O4423   O    0.24488   0.08792   0.70459   1.000
    O4424   O    0.43828   0.56437   0.70226   1.000
    O4425   O    0.40123   0.51667   0.70267   1.000
    O4426   O    0.43563   0.87392   0.70226   1.000
    O4427   O    0.48333   0.88457   0.70267   1.000
    O4428   O    0.12608   0.56172   0.70226   1.000
    O4429   O    0.11543   0.59877   0.70267   1.000
    O4430   O    0.38903   0.82792   0.70699   1.000
    O4431   O    0.43888   0.61097   0.70699   1.000
    O4432   O    0.17208   0.56112   0.70699   1.000
    O4433   O    0.77403   0.61937   0.70706   1.000
    O4434   O    0.78323   0.58032   0.70957   1.000
    O4435   O    0.38063   0.15467   0.70706   1.000
    O4436   O    0.41968   0.20292   0.70957   1.000
    O4437   O    0.84533   0.22597   0.70706   1.000
    O4438   O    0.79708   0.21677   0.70957   1.000
    O4439   O    0.95253   0.89242   0.70733   1.000
    O4440   O    0.91818   0.83672   0.70846   1.000
    O4441   O    0.10758   0.06012   0.70733   1.000
    O4442   O    0.16328   0.08147   0.70846   1.000
    O4443   O    0.93988   0.04747   0.70733   1.000
    O4444   O    0.91853   0.08182   0.70846   1.000
    O4445   O    0.21953   0.09832   0.71004   1.000
    O4446   O    0.27353   0.11532   0.71161   1.000
    O4447   O    0.87878   0.78047   0.71004   1.000
    O4448   O    0.84178   0.72647   0.71161   1.000
    O4449   O    0.90168   0.12122   0.71004   1.000
    O4450   O    0.88468   0.15822   0.71161   1.000
    O4451   O    0.34803   0.10942   0.70921   1.000
    O4452   O    0.76138   0.65197   0.70921   1.000
    O4453   O    0.89058   0.23862   0.70921   1.000
    O4454   O    0.80403   0.67372   0.71233   1.000
    O4455   O    0.32628   0.13032   0.71233   1.000
    O4456   O    0.86968   0.19597   0.71233   1.000
    O4457   O    0.43628   0.65187   0.71206   1.000
    O4458   O    0.39638   0.60112   0.71317   1.000
    O4459   O    0.21558   0.56372   0.71206   1.000
    O4460   O    0.20473   0.60362   0.71317   1.000
    O4461   O    0.34813   0.78442   0.71206   1.000
    O4462   O    0.39888   0.79527   0.71317   1.000
    O4463   O    0.91898   0.80767   0.71728   1.000
    O4464   O    0.88868   0.08102   0.71728   1.000
    O4465   O    0.19233   0.11132   0.71728   1.000
    O4466   O    0.44018   0.24462   0.71337   1.000
    O4467   O    0.75538   0.19557   0.71337   1.000
    O4468   O    0.80443   0.55982   0.71337   1.000
    O4469   O    0.29937   0.73299   0.71832   1.000
    O4470   O    0.43362   0.70063   0.71832   1.000
    O4471   O    0.26701   0.56638   0.71832   1.000
    O4472   O    0.42458   0.22377   0.72056   1.000
    O4473   O    0.79918   0.57542   0.72056   1.000
    O4474   O    0.77623   0.20082   0.72056   1.000
    O4475   O    0.84313   0.69722   0.72015   1.000
    O4476   O    0.30278   0.14592   0.72015   1.000
    O4477   O    0.85408   0.15687   0.72015   1.000
    O4478   O    0.24367   0.66339   0.71944   1.000
    O4479   O    0.33661   0.58028   0.71944   1.000
    O4480   O    0.41972   0.75633   0.71944   1.000
    O4481   O    0.17163   0.12267   0.72403   1.000
    O4482   O    0.21988   0.14102   0.72583   1.000
    O4483   O    0.87733   0.04897   0.72403   1.000
    O4484   O    0.85898   0.07887   0.72583   1.000
    O4485   O    0.95103   0.82837   0.72403   1.000
    O4486   O    0.92113   0.78012   0.72583   1.000
    O4487   O    0.30597   0.68154   0.72618   1.000
    O4488   O    0.26369   0.71052   0.72951   1.000
    O4489   O    0.28948   0.55316   0.72951   1.000
    O4490   O    0.37557   0.69403   0.72618   1.000
    O4491   O    0.44683   0.73631   0.72951   1.000
    O4492   O    0.88228   0.72367   0.72713   1.000
    O4493   O    0.84313   0.66817   0.72854   1.000
    O4494   O    0.27633   0.15862   0.72713   1.000
    O4495   O    0.33183   0.17497   0.72854   1.000
    O4496   O    0.84138   0.11772   0.72713   1.000
    O4497   O    0.82503   0.15687   0.72854   1.000
    O4498   O    0.39023   0.20642   0.72922   1.000
    O4499   O    0.44678   0.23752   0.72980   1.000
    O4500   O    0.79358   0.18382   0.72922   1.000
    O4501   O    0.76248   0.20927   0.72980   1.000
    O4502   O    0.81618   0.60977   0.72922   1.000
    O4503   O    0.79073   0.55322   0.72980   1.000
    O4504   O    0.83028   0.07612   0.73471   1.000
    O4505   O    0.92388   0.75417   0.73471   1.000
    O4506   O    0.24583   0.16972   0.73471   1.000
    O4507   O    0.49273   0.26492   0.73111   1.000
    O4508   O    0.73508   0.22782   0.73111   1.000
    O4509   O    0.77218   0.50727   0.73111   1.000
    O4510   O    0.83188   0.64077   0.73823   1.000
    O4511   O    0.35923   0.19112   0.73823   1.000
    O4512   O    0.80888   0.16812   0.73823   1.000
    O4513   O    0.74953   0.22232   0.73912   1.000
    O4514   O    0.77768   0.52722   0.73912   1.000
    O4515   O    0.47278   0.25047   0.73912   1.000
    O4516   O    0.27652   0.52698   0.74100   1.000
    O4517   O    0.25047   0.72348   0.74100   1.000
    O4518   O    0.47302   0.74953   0.74100   1.000
    O4519   O    0.76757   0.92998   0.74349   1.000
    O4520   O    0.16242   0.23243   0.74349   1.000
    O4521   O    0.07002   0.83758   0.74349   1.000
    O4522   O    0.23793   0.19692   0.74001   1.000
    O4523   O    0.95898   0.76207   0.74001   1.000
    O4524   O    0.80308   0.04102   0.74001   1.000
    O4525   O    0.92873   0.75437   0.74651   1.000
    O4526   O    0.24563   0.17437   0.74651   1.000
    O4527   O    0.82563   0.07127   0.74651   1.000
    O4528   O    0.21722   0.41108   0.74502   1.000
    O4529   O    0.58892   0.80613   0.74502   1.000
    O4530   O    0.19387   0.78278   0.74502   1.000
    O4531   O    0.14342   0.30233   0.74526   1.000
    O4532   O    0.69767   0.84108   0.74526   1.000
    O4533   O    0.15892   0.85658   0.74526   1.000
    O4534   O    0.79498   0.18027   0.74768   1.000
    O4535   O    0.82518   0.15567   0.74845   1.000
    O4536   O    0.38528   0.20502   0.74768   1.000
    O4537   O    0.33048   0.17482   0.74845   1.000
    O4538   O    0.81973   0.61472   0.74768   1.000
    O4539   O    0.84433   0.66952   0.74845   1.000
    O4540   O    0.76673   0.20902   0.74799   1.000
    O4541   O    0.73693   0.23807   0.74947   1.000
    O4542   O    0.79098   0.55772   0.74799   1.000
    O4543   O    0.76193   0.49887   0.74947   1.000
    O4544   O    0.44228   0.23327   0.74799   1.000
    O4545   O    0.50113   0.26307   0.74947   1.000
    O4546   O    0.28842   0.55653   0.74937   1.000
    O4547   O    0.26307   0.50113   0.75053   1.000
    O4548   O    0.44347   0.73188   0.74937   1.000
    O4549   O    0.49887   0.76193   0.75053   1.000
    O4550   O    0.26812   0.71158   0.74937   1.000
    O4551   O    0.23807   0.73693   0.75053   1.000
    O4552   O    0.31625   0.62495   0.74940   1.000
    O4553   O    0.37505   0.69130   0.74940   1.000
    O4554   O    0.30870   0.68375   0.74940   1.000
    O4555   O    0.72442   0.88668   0.74751   1.000
    O4556   O    0.75437   0.92873   0.75349   1.000
    O4557   O    0.16227   0.27558   0.74751   1.000
    O4558   O    0.17437   0.24563   0.75349   1.000
    O4559   O    0.11332   0.83773   0.74751   1.000
    O4560   O    0.07127   0.82563   0.75349   1.000
    O4561   O    0.62495   0.31625   0.75060   1.000
    O4562   O    0.55653   0.28842   0.75063   1.000
    O4563   O    0.69130   0.37505   0.75060   1.000
    O4564   O    0.73188   0.44347   0.75063   1.000
    O4565   O    0.68375   0.30870   0.75060   1.000
    O4566   O    0.71158   0.26812   0.75063   1.000
    O4567   O    0.17482   0.33048   0.75155   1.000
    O4568   O    0.66952   0.84433   0.75155   1.000
    O4569   O    0.15567   0.82518   0.75155   1.000
    O4570   O    0.20902   0.76673   0.75201   1.000
    O4571   O    0.18027   0.79498   0.75232   1.000
    O4572   O    0.23327   0.44228   0.75201   1.000
    O4573   O    0.20502   0.38528   0.75232   1.000
    O4574   O    0.55772   0.79098   0.75201   1.000
    O4575   O    0.61472   0.81973   0.75232   1.000
    O4576   O    0.41108   0.21722   0.75498   1.000
    O4577   O    0.80613   0.58892   0.75498   1.000
    O4578   O    0.78278   0.19387   0.75498   1.000
    O4579   O    0.88668   0.72442   0.75249   1.000
    O4580   O    0.84108   0.69767   0.75474   1.000
    O4581   O    0.83773   0.11332   0.75249   1.000
    O4582   O    0.85658   0.15892   0.75474   1.000
    O4583   O    0.27558   0.16227   0.75249   1.000
    O4584   O    0.30233   0.14342   0.75474   1.000
    O4585   O    0.92998   0.76757   0.75651   1.000
    O4586   O    0.23243   0.16242   0.75651   1.000
    O4587   O    0.83758   0.07002   0.75651   1.000
    O4588   O    0.52698   0.27652   0.75900   1.000
    O4589   O    0.72348   0.25047   0.75900   1.000
    O4590   O    0.74953   0.47302   0.75900   1.000
    O4591   O    0.25047   0.47278   0.76088   1.000
    O4592   O    0.22232   0.74953   0.76088   1.000
    O4593   O    0.52722   0.77768   0.76088   1.000
    O4594   O    0.64077   0.83188   0.76177   1.000
    O4595   O    0.19112   0.35923   0.76177   1.000
    O4596   O    0.16812   0.80888   0.76177   1.000
    O4597   O    0.19692   0.23793   0.75999   1.000
    O4598   O    0.16972   0.24583   0.76529   1.000
    O4599   O    0.76207   0.95898   0.75999   1.000
    O4600   O    0.75417   0.92388   0.76529   1.000
    O4601   O    0.04102   0.80308   0.75999   1.000
    O4602   O    0.07612   0.83028   0.76529   1.000
    O4603   O    0.55316   0.28948   0.77050   1.000
    O4604   O    0.73632   0.44683   0.77050   1.000
    O4605   O    0.71052   0.26369   0.77050   1.000
    O4606   O    0.26492   0.49273   0.76889   1.000
    O4607   O    0.23752   0.44678   0.77020   1.000
    O4608   O    0.50727   0.77218   0.76889   1.000
    O4609   O    0.55322   0.79073   0.77020   1.000
    O4610   O    0.22782   0.73508   0.76889   1.000
    O4611   O    0.20927   0.76248   0.77020   1.000
    O4612   O    0.18382   0.79358   0.77078   1.000
    O4613   O    0.15687   0.82503   0.77146   1.000
    O4614   O    0.20642   0.39023   0.77078   1.000
    O4615   O    0.17497   0.33183   0.77146   1.000
    O4616   O    0.60977   0.81618   0.77078   1.000
    O4617   O    0.66817   0.84313   0.77146   1.000
    O4618   O    0.69403   0.37557   0.77382   1.000
    O4619   O    0.68154   0.30597   0.77382   1.000
    O4620   O    0.11772   0.84138   0.77287   1.000
    O4621   O    0.07887   0.85898   0.77417   1.000
    O4622   O    0.15862   0.27633   0.77287   1.000
    O4623   O    0.14102   0.21988   0.77417   1.000
    O4624   O    0.72367   0.88228   0.77287   1.000
    O4625   O    0.78012   0.92113   0.77417   1.000
    O4626   O    0.57542   0.79918   0.77944   1.000
    O4627   O    0.20082   0.77623   0.77944   1.000
    O4628   O    0.22377   0.42458   0.77944   1.000
    O4629   O    0.04897   0.87733   0.77597   1.000
    O4630   O    0.82837   0.95103   0.77597   1.000
    O4631   O    0.12267   0.17163   0.77597   1.000
    O4632   O    0.15687   0.85408   0.77985   1.000
    O4633   O    0.69722   0.84313   0.77985   1.000
    O4634   O    0.14592   0.30278   0.77985   1.000
    O4635   O    0.75633   0.41972   0.78056   1.000
    O4636   O    0.70063   0.43362   0.78168   1.000
    O4637   O    0.66339   0.24367   0.78056   1.000
    O4638   O    0.73299   0.29937   0.78168   1.000
    O4639   O    0.58028   0.33661   0.78056   1.000
    O4640   O    0.56638   0.26701   0.78168   1.000
    O4641   O    0.80767   0.91898   0.78272   1.000
    O4642   O    0.11132   0.19233   0.78272   1.000
    O4643   O    0.08102   0.88868   0.78272   1.000
    O4644   O    0.60362   0.20473   0.78683   1.000
    O4645   O    0.79527   0.39888   0.78683   1.000
    O4646   O    0.60112   0.39638   0.78683   1.000
    O4647   O    0.19597   0.86968   0.78767   1.000
    O4648   O    0.15822   0.88468   0.78839   1.000
    O4649   O    0.13032   0.32628   0.78767   1.000
    O4650   O    0.11532   0.27353   0.78839   1.000
    O4651   O    0.67372   0.80403   0.78767   1.000
    O4652   O    0.72647   0.84178   0.78839   1.000
    O4653   O    0.24462   0.44018   0.78663   1.000
    O4654   O    0.20292   0.41968   0.79043   1.000
    O4655   O    0.55982   0.80443   0.78663   1.000
    O4656   O    0.58032   0.78323   0.79043   1.000
    O4657   O    0.19557   0.75538   0.78663   1.000
    O4658   O    0.21677   0.79708   0.79043   1.000
    O4659   O    0.78442   0.34813   0.78794   1.000
    O4660   O    0.65187   0.43628   0.78794   1.000
    O4661   O    0.56372   0.21558   0.78794   1.000
    O4662   O    0.12122   0.90168   0.78996   1.000
    O4663   O    0.08182   0.91853   0.79154   1.000
    O4664   O    0.78047   0.87878   0.78996   1.000
    O4665   O    0.83672   0.91818   0.79154   1.000
    O4666   O    0.09832   0.21953   0.78996   1.000
    O4667   O    0.08147   0.16328   0.79154   1.000
    O4668   O    0.61097   0.43888   0.79301   1.000
    O4669   O    0.56112   0.17208   0.79301   1.000
    O4670   O    0.82792   0.38903   0.79301   1.000
    O4671   O    0.89242   0.95253   0.79267   1.000
    O4672   O    0.06012   0.10758   0.79267   1.000
    O4673   O    0.04747   0.93988   0.79267   1.000
    O4674   O    0.23862   0.89058   0.79079   1.000
    O4675   O    0.22597   0.84533   0.79294   1.000
    O4676   O    0.65197   0.76138   0.79079   1.000
    O4677   O    0.61937   0.77403   0.79294   1.000
    O4678   O    0.10942   0.34803   0.79079   1.000
    O4679   O    0.15467   0.38063   0.79294   1.000
    O4680   O    0.75512   0.84303   0.79541   1.000
    O4681   O    0.15697   0.91208   0.79541   1.000
    O4682   O    0.08792   0.24488   0.79541   1.000
    O4683   O    0.05732   0.13563   0.80028   1.000
    O4684   O    0.86437   0.92168   0.80028   1.000
    O4685   O    0.07832   0.94268   0.80028   1.000
    O4686   O    0.23762   0.81728   0.80013   1.000
    O4687   O    0.57967   0.76238   0.80013   1.000
    O4688   O    0.18272   0.42033   0.80013   1.000
    O4689   O    0.51667   0.40123   0.79733   1.000
    O4690   O    0.88457   0.48333   0.79733   1.000
    O4691   O    0.59877   0.11543   0.79733   1.000
    O4692   O    0.56437   0.43828   0.79774   1.000
    O4693   O    0.61872   0.48478   0.79864   1.000
    O4694   O    0.56172   0.12608   0.79774   1.000
    O4695   O    0.51522   0.13393   0.79864   1.000
    O4696   O    0.87392   0.43563   0.79774   1.000
    O4697   O    0.86607   0.38128   0.79864   1.000
    O4698   O    0.99997   0.99993   0.80520   1.000
    O4699   O    0.99997   0.00003   0.80520   1.000
    O4700   O    0.00007   0.00003   0.80520   1.000
    O4701   O    0.86397   0.33873   0.79963   1.000
    O4702   O    0.91962   0.47908   0.80203   1.000
    O4703   O    0.66127   0.52523   0.79963   1.000
    O4704   O    0.52092   0.44053   0.80203   1.000
    O4705   O    0.47477   0.13603   0.79963   1.000
    O4706   O    0.55947   0.08038   0.80203   1.000
    O4707   O    0.90362   0.37378   0.80394   1.000
    O4708   O    0.62622   0.52983   0.80394   1.000
    O4709   O    0.47017   0.09638   0.80394   1.000
    O4710   O    0.55017   0.03938   0.80603   1.000
    O4711   O    0.51237   0.04148   0.80745   1.000
    O4712   O    0.96062   0.51078   0.80603   1.000
    O4713   O    0.95852   0.47088   0.80745   1.000
    O4714   O    0.48922   0.44983   0.80603   1.000
    O4715   O    0.52912   0.48763   0.80745   1.000
    O4716   O    0.59172   0.66768   0.80858   1.000
    O4717   O    0.33232   0.92403   0.80858   1.000
    O4718   O    0.07597   0.40828   0.80858   1.000
    O4719   O    0.46957   0.04963   0.80846   1.000
    O4720   O    0.42347   0.05768   0.80916   1.000
    O4721   O    0.58007   0.53043   0.80846   1.000
    O4722   O    0.63422   0.57653   0.80916   1.000
    O4723   O    0.95037   0.41993   0.80846   1.000
    O4724   O    0.94232   0.36578   0.80916   1.000
    O4725   O    0.67367   0.68908   0.80824   1.000
    O4726   O    0.31092   0.98458   0.80824   1.000
    O4727   O    0.01542   0.32633   0.80824   1.000
    O4728   O    0.62372   0.65998   0.80954   1.000
    O4729   O    0.65337   0.63678   0.80976   1.000
    O4730   O    0.34002   0.96373   0.80954   1.000
    O4731   O    0.36322   0.01658   0.80976   1.000
    O4732   O    0.03627   0.37628   0.80954   1.000
    O4733   O    0.98342   0.34663   0.80976   1.000
    O4734   O    0.47112   0.00348   0.81318   1.000
    O4735   O    0.99652   0.46763   0.81318   1.000
    O4736   O    0.53237   0.52888   0.81318   1.000
    O4737   O    0.06252   0.43053   0.81419   1.000
    O4738   O    0.56947   0.63198   0.81419   1.000
    O4739   O    0.36802   0.93748   0.81419   1.000
    O4740   O    0.93947   0.32828   0.81310   1.000
    O4741   O    0.38882   0.06053   0.81310   1.000
    O4742   O    0.67172   0.61118   0.81310   1.000
    O4743   O    0.02758   0.98525   0.81655   1.000
    O4744   O    0.95767   0.97242   0.81655   1.000
    O4745   O    0.01475   0.04233   0.81655   1.000
    O4746   O    0.53027   0.57543   0.81732   1.000
    O4747   O    0.49297   0.52158   0.82116   1.000
    O4748   O    0.42457   0.95483   0.81732   1.000
    O4749   O    0.47842   0.97138   0.82116   1.000
    O4750   O    0.04517   0.46973   0.81732   1.000
    O4751   O    0.02862   0.50703   0.82116   1.000
    O4752   O    0.37812   0.90703   0.82141   1.000
    O4753   O    0.09297   0.47108   0.82141   1.000
    O4754   O    0.52892   0.62188   0.82141   1.000
    O4755   O    0.90852   0.90857   0.82294   1.000
    O4756   O    0.89877   0.96787   0.82323   1.000
    O4757   O    0.09143   0.99995   0.82294   1.000
    O4758   O    0.03213   0.93090   0.82323   1.000
    O4759   O    0.00005   0.09148   0.82294   1.000
    O4760   O    0.06910   0.10123   0.82323   1.000
    O4761   O    0.52322   0.65663   0.82530   1.000
    O4762   O    0.48722   0.61208   0.82812   1.000
    O4763   O    0.13342   0.47678   0.82530   1.000
    O4764   O    0.12487   0.51278   0.82812   1.000
    O4765   O    0.34337   0.86658   0.82530   1.000
    O4766   O    0.38792   0.87513   0.82812   1.000
    O4767   O    0.51967   0.98293   0.82618   1.000
    O4768   O    0.48697   0.94078   0.82843   1.000
    O4769   O    0.01707   0.53673   0.82618   1.000
    O4770   O    0.05922   0.54618   0.82843   1.000
    O4771   O    0.46327   0.48033   0.82618   1.000
    O4772   O    0.45382   0.51303   0.82843   1.000
    O4773   O    0.13322   0.06203   0.82778   1.000
    O4774   O    0.93797   0.07118   0.82778   1.000
    O4775   O    0.92882   0.86678   0.82778   1.000
    O4776   O    0.98257   0.87633   0.82807   1.000
    O4777   O    0.89377   0.01743   0.82807   1.000
    O4778   O    0.12367   0.10623   0.82807   1.000
    O4779   O    0.88962   0.06053   0.83231   1.000
    O4780   O    0.17092   0.11038   0.83231   1.000
    O4781   O    0.93947   0.82908   0.83231   1.000
    O4782   O    0.24392   0.08788   0.83308   1.000
    O4783   O    0.84397   0.75608   0.83308   1.000
    O4784   O    0.91212   0.15603   0.83308   1.000
    O4785   O    0.44942   0.55708   0.83130   1.000
    O4786   O    0.44372   0.60613   0.83435   1.000
    O4787   O    0.10767   0.55058   0.83130   1.000
    O4788   O    0.16242   0.55628   0.83435   1.000
    O4789   O    0.44292   0.89233   0.83130   1.000
    O4790   O    0.39387   0.83758   0.83435   1.000
    O4791   O    0.42122   0.51063   0.83358   1.000
    O4792   O    0.08942   0.57878   0.83358   1.000
    O4793   O    0.48937   0.91058   0.83358   1.000
    O4794   O    0.88392   0.10958   0.83536   1.000
    O4795   O    0.87952   0.15363   0.83823   1.000
    O4796   O    0.22567   0.11608   0.83536   1.000
    O4797   O    0.27412   0.12048   0.83823   1.000
    O4798   O    0.89042   0.77433   0.83536   1.000
    O4799   O    0.84637   0.72588   0.83823   1.000
    O4800   O    0.84612   0.05458   0.83854   1.000
    O4801   O    0.20847   0.15388   0.83854   1.000
    O4802   O    0.94542   0.79153   0.83854   1.000
    O4803   O    0.43957   0.64923   0.83860   1.000
    O4804   O    0.39537   0.59548   0.83889   1.000
    O4805   O    0.35077   0.79033   0.83860   1.000
    O4806   O    0.40452   0.79988   0.83889   1.000
    O4807   O    0.20967   0.56043   0.83860   1.000
    O4808   O    0.20012   0.60463   0.83889   1.000
    O4809   O    0.43456   0.69879   0.84344   1.000
    O4810   O    0.26423   0.56544   0.84344   1.000
    O4811   O    0.30121   0.73577   0.84344   1.000
    O4812   O    0.31627   0.12993   0.84048   1.000
    O4813   O    0.87007   0.18633   0.84048   1.000
    O4814   O    0.81367   0.68373   0.84048   1.000
    O4815   O    0.24191   0.66672   0.84373   1.000
    O4816   O    0.33328   0.57519   0.84373   1.000
    O4817   O    0.42481   0.75809   0.84373   1.000
    O4818   O    0.98997   0.80008   0.84136   1.000
    O4819   O    0.19992   0.18988   0.84136   1.000
    O4820   O    0.81012   0.01003   0.84136   1.000
    O4821   O    0.85492   0.69528   0.84550   1.000
    O4822   O    0.30472   0.15963   0.84550   1.000
    O4823   O    0.84037   0.14508   0.84550   1.000
    O4824   O    0.95522   0.75963   0.84525   1.000
    O4825   O    0.24037   0.19558   0.84525   1.000
    O4826   O    0.80442   0.04478   0.84525   1.000
    O4827   O    0.26141   0.70637   0.85412   1.000
    O4828   O    0.31858   0.62434   0.85011   1.000
    O4829   O    0.29363   0.55504   0.85412   1.000
    O4830   O    0.44496   0.73859   0.85412   1.000
    O4831   O    0.90877   0.71183   0.84934   1.000
    O4832   O    0.96532   0.72918   0.85247   1.000
    O4833   O    0.28817   0.19693   0.84934   1.000
    O4834   O    0.27082   0.23613   0.85247   1.000
    O4835   O    0.80307   0.09123   0.84934   1.000
    O4836   O    0.76387   0.03468   0.85247   1.000
    O4837   O    0.80097   0.13778   0.85348   1.000
    O4838   O    0.33682   0.19903   0.85348   1.000
    O4839   O    0.86222   0.66318   0.85348   1.000
    O4840   O    0.94452   0.60613   0.85356   1.000
    O4841   O    0.39387   0.33838   0.85356   1.000
    O4842   O    0.66162   0.05548   0.85356   1.000
    O4843   O    0.33337   0.66663   0.86147   1.000
    O4844   O    0.67997   0.02988   0.85690   1.000
    O4845   O    0.69912   0.09013   0.85750   1.000
    O4846   O    0.34992   0.32003   0.85690   1.000
    O4847   O    0.39102   0.30088   0.85750   1.000
    O4848   O    0.97012   0.65008   0.85690   1.000
    O4849   O    0.90987   0.60898   0.85750   1.000
    O4850   O    0.70962   0.00668   0.85712   1.000
    O4851   O    0.74162   0.99898   0.85808   1.000
    O4852   O    0.29707   0.29038   0.85712   1.000
    O4853   O    0.25737   0.25838   0.85808   1.000
    O4854   O    0.99332   0.70293   0.85712   1.000
    O4855   O    0.00102   0.74263   0.85808   1.000
    O4856   O    0.75327   0.13623   0.85820   1.000
    O4857   O    0.80422   0.17903   0.85921   1.000
    O4858   O    0.86377   0.61703   0.85820   1.000
    O4859   O    0.82097   0.62518   0.85921   1.000
    O4860   O    0.38297   0.24673   0.85820   1.000
    O4861   O    0.37482   0.19578   0.85921   1.000
    O4862   O    0.31792   0.34033   0.85842   1.000
    O4863   O    0.65967   0.97758   0.85842   1.000
    O4864   O    0.02242   0.68208   0.85842   1.000
    O4865   O    0.86317   0.57028   0.86272   1.000
    O4866   O    0.42972   0.29288   0.86272   1.000
    O4867   O    0.70712   0.13683   0.86272   1.000
    O4868   O    0.84412   0.21683   0.86063   1.000
    O4869   O    0.37272   0.15588   0.86063   1.000
    O4870   O    0.78317   0.62728   0.86063   1.000
    O4871   O    0.27602   0.53103   0.86638   1.000
    O4872   O    0.46897   0.74498   0.86638   1.000
    O4873   O    0.25502   0.72398   0.86638   1.000
    O4874   O    0.81242   0.22613   0.86463   1.000
    O4875   O    0.41372   0.18758   0.86463   1.000
    O4876   O    0.77387   0.58628   0.86463   1.000
    O4877   O    0.15062   0.24633   0.86653   1.000
    O4878   O    0.75367   0.90428   0.86653   1.000
    O4879   O    0.09572   0.84938   0.86653   1.000
    O4880   O    0.67207   0.14143   0.86703   1.000
    O4881   O    0.71462   0.18188   0.86803   1.000
    O4882   O    0.46937   0.32793   0.86703   1.000
    O4883   O    0.46727   0.28538   0.86803   1.000
    O4884   O    0.85857   0.53063   0.86703   1.000
    O4885   O    0.81812   0.53273   0.86803   1.000
    O4886   O    0.24542   0.42178   0.87126   1.000
    O4887   O    0.17637   0.75458   0.87126   1.000
    O4888   O    0.57822   0.82363   0.87126   1.000
    O4889   O    0.45942   0.23103   0.86893   1.000
    O4890   O    0.44877   0.18333   0.86933   1.000
    O4891   O    0.76897   0.22838   0.86893   1.000
    O4892   O    0.81667   0.26543   0.86933   1.000
    O4893   O    0.77162   0.54058   0.86893   1.000
    O4894   O    0.73457   0.55123   0.86933   1.000
    O4895   O    0.31982   0.69438   0.87309   1.000
    O4896   O    0.30562   0.62538   0.87309   1.000
    O4897   O    0.37462   0.68018   0.87309   1.000
    O4898   O    0.50542   0.27763   0.87365   1.000
    O4899   O    0.72237   0.22778   0.87365   1.000
    O4900   O    0.77222   0.49458   0.87365   1.000
    O4901   O    0.17867   0.28603   0.87372   1.000
    O4902   O    0.13042   0.24698   0.87623   1.000
    O4903   O    0.71397   0.89263   0.87372   1.000
    O4904   O    0.75302   0.88343   0.87623   1.000
    O4905   O    0.10737   0.82133   0.87372   1.000
    O4906   O    0.11657   0.86958   0.87623   1.000
    O4907   O    0.27322   0.55908   0.87399   1.000
    O4908   O    0.25187   0.50338   0.87513   1.000
    O4909   O    0.44092   0.71413   0.87399   1.000
    O4910   O    0.49662   0.74848   0.87513   1.000
    O4911   O    0.28587   0.72678   0.87399   1.000
    O4912   O    0.25152   0.74813   0.87513   1.000
    O4913   O    0.21212   0.76498   0.87670   1.000
    O4914   O    0.17512   0.78198   0.87828   1.000
    O4915   O    0.55287   0.78788   0.87670   1.000
    O4916   O    0.60687   0.82488   0.87828   1.000
    O4917   O    0.23502   0.44713   0.87670   1.000
    O4918   O    0.21802   0.39313   0.87828   1.000
    O4919   O    0.09472   0.77608   0.87587   1.000
    O4920   O    0.68137   0.90528   0.87587   1.000
    O4921   O    0.22392   0.31863   0.87587   1.000
    O4922   O    0.20302   0.34038   0.87899   1.000
    O4923   O    0.65962   0.86263   0.87899   1.000
    O4924   O    0.13737   0.79698   0.87899   1.000
    O4925   O    0.76962   0.45108   0.87872   1.000
    O4926   O    0.72972   0.46193   0.87984   1.000
    O4927   O    0.54892   0.31853   0.87872   1.000
    O4928   O    0.53807   0.26778   0.87984   1.000
    O4929   O    0.68147   0.23038   0.87872   1.000
    O4930   O    0.73222   0.27028   0.87984   1.000
    O4931   O    0.22202   0.47433   0.88394   1.000
    O4932   O    0.52567   0.74768   0.88394   1.000
    O4933   O    0.25232   0.77798   0.88394   1.000
    O4934   O    0.77352   0.86223   0.88003   1.000
    O4935   O    0.13777   0.91128   0.88003   1.000
    O4936   O    0.08872   0.22648   0.88003   1.000
    O4937   O    0.76695   0.39965   0.88499   1.000
    O4938   O    0.60035   0.36730   0.88499   1.000
    O4939   O    0.63270   0.23305   0.88499   1.000
    O4940   O    0.10957   0.24208   0.88723   1.000
    O4941   O    0.75792   0.86748   0.88723   1.000
    O4942   O    0.13252   0.89043   0.88723   1.000
    O4943   O    0.18742   0.36388   0.88682   1.000
    O4944   O    0.63612   0.82353   0.88682   1.000
    O4945   O    0.17647   0.81258   0.88682   1.000
    O4946   O    0.66995   0.42300   0.88610   1.000
    O4947   O    0.57700   0.24695   0.88610   1.000
    O4948   O    0.75305   0.33005   0.88610   1.000
    O4949   O    0.28437   0.78933   0.89070   1.000
    O4950   O    0.25447   0.80768   0.89250   1.000
    O4951   O    0.50497   0.71563   0.89070   1.000
    O4952   O    0.55322   0.74553   0.89250   1.000
    O4953   O    0.21067   0.49503   0.89070   1.000
    O4954   O    0.19232   0.44678   0.89250   1.000
    O4955   O    0.78017   0.37719   0.89617   1.000
    O4956   O    0.65180   0.36070   0.89285   1.000
    O4957   O    0.62281   0.40298   0.89617   1.000
    O4958   O    0.63930   0.29110   0.89285   1.000
    O4959   O    0.59702   0.21983   0.89617   1.000
    O4960   O    0.21562   0.82528   0.89380   1.000
    O4961   O    0.17647   0.84163   0.89521   1.000
    O4962   O    0.17472   0.39033   0.89380   1.000
    O4963   O    0.15837   0.33483   0.89521   1.000
    O4964   O    0.60967   0.78438   0.89380   1.000
    O4965   O    0.66517   0.82353   0.89521   1.000
    O4966   O    0.12692   0.27643   0.89589   1.000
    O4967   O    0.09582   0.21988   0.89647   1.000
    O4968   O    0.72357   0.85048   0.89589   1.000
    O4969   O    0.78012   0.87593   0.89647   1.000
    O4970   O    0.14952   0.87308   0.89589   1.000
    O4971   O    0.12407   0.90418   0.89647   1.000
    O4972   O    0.16362   0.42083   0.90138   1.000
    O4973   O    0.57917   0.74278   0.90138   1.000
    O4974   O    0.25722   0.83638   0.90138   1.000
    O4975   O    0.06842   0.17393   0.89777   1.000
    O4976   O    0.82607   0.89448   0.89777   1.000
    O4977   O    0.10552   0.93158   0.89777   1.000
    O4978   O    0.14222   0.30743   0.90490   1.000
    O4979   O    0.69257   0.83478   0.90490   1.000
    O4980   O    0.16522   0.85778   0.90490   1.000
    O4981   O    0.11102   0.91713   0.90578   1.000
    O4982   O    0.08287   0.19388   0.90578   1.000
    O4983   O    0.80612   0.88898   0.90578   1.000
    O4984   O    0.60985   0.41620   0.90767   1.000
    O4985   O    0.58380   0.19365   0.90767   1.000
    O4986   O    0.80635   0.39015   0.90767   1.000
    O4987   O    0.10090   0.50425   0.91015   1.000
    O4988   O    0.40335   0.89910   0.91015   1.000
    O4989   O    0.49575   0.59665   0.91015   1.000
    O4990   O    0.29232   0.86358   0.90668   1.000
    O4991   O    0.57127   0.70768   0.90668   1.000
    O4992   O    0.13642   0.42873   0.90668   1.000
    O4993   O    0.15897   0.42103   0.91318   1.000
    O4994   O    0.57897   0.73793   0.91318   1.000
    O4995   O    0.26207   0.84103   0.91318   1.000
    O4996   O    0.55055   0.47280   0.91169   1.000
    O4997   O    0.92225   0.44945   0.91169   1.000
    O4998   O    0.52720   0.07775   0.91169   1.000
    O4999   O    0.03100   0.52325   0.91192   1.000
    O5000   O    0.49225   0.96900   0.91192   1.000
    O5001   O    0.47675   0.50775   0.91192   1.000
    O5002   O    0.15307   0.87168   0.91435   1.000
    O5003   O    0.17767   0.84148   0.91511   1.000
    O5004   O    0.12832   0.28138   0.91435   1.000
    O5005   O    0.15852   0.33618   0.91511   1.000
    O5006   O    0.71862   0.84693   0.91435   1.000
    O5007   O    0.66382   0.82233   0.91511   1.000
    O5008   O    0.77562   0.87568   0.91465   1.000
    O5009   O    0.83447   0.90473   0.91614   1.000
    O5010   O    0.12432   0.89993   0.91465   1.000
    O5011   O    0.09527   0.92973   0.91614   1.000
    O5012   O    0.10007   0.22438   0.91465   1.000
    O5013   O    0.07027   0.16553   0.91614   1.000
    O5014   O    0.62175   0.39855   0.91604   1.000
    O5015   O    0.59640   0.42860   0.91720   1.000
    O5016   O    0.60145   0.22320   0.91604   1.000
    O5017   O    0.57140   0.16780   0.91720   1.000
    O5018   O    0.77680   0.37825   0.91604   1.000
    O5019   O    0.83220   0.40360   0.91720   1.000
    O5020   O    0.64958   0.35797   0.91607   1.000
    O5021   O    0.64203   0.29162   0.91607   1.000
    O5022   O    0.70838   0.35042   0.91607   1.000
    O5023   O    0.05775   0.50440   0.91418   1.000
    O5024   O    0.08770   0.49230   0.92016   1.000
    O5025   O    0.44665   0.94225   0.91418   1.000
    O5026   O    0.40460   0.91230   0.92016   1.000
    O5027   O    0.49560   0.55335   0.91418   1.000
    O5028   O    0.50770   0.59540   0.92016   1.000
    O5029   O    0.01708   0.04172   0.91727   1.000
    O5030   O    0.04492   0.11013   0.91730   1.000
    O5031   O    0.95828   0.97537   0.91727   1.000
    O5032   O    0.88987   0.93478   0.91730   1.000
    O5033   O    0.02463   0.98292   0.91727   1.000
    O5034   O    0.06522   0.95508   0.91730   1.000
    O5035   O    0.50815   0.51100   0.91822   1.000
    O5036   O    0.48900   0.99715   0.91822   1.000
    O5037   O    0.00285   0.49185   0.91822   1.000
    O5038   O    0.56660   0.45765   0.91868   1.000
    O5039   O    0.53835   0.48640   0.91899   1.000
    O5040   O    0.54235   0.10895   0.91868   1.000
    O5041   O    0.51360   0.05195   0.91899   1.000
    O5042   O    0.89105   0.43340   0.91868   1.000
    O5043   O    0.94805   0.46165   0.91899   1.000
    O5044   O    0.11612   0.25558   0.92164   1.000
    O5045   O    0.13947   0.88388   0.92164   1.000
    O5046   O    0.74442   0.86053   0.92164   1.000
    O5047   O    0.22002   0.82893   0.91916   1.000
    O5048   O    0.17442   0.81008   0.92141   1.000
    O5049   O    0.17107   0.39108   0.91916   1.000
    O5050   O    0.18992   0.36433   0.92141   1.000
    O5051   O    0.60892   0.77998   0.91916   1.000
    O5052   O    0.63567   0.82558   0.92141   1.000
    O5053   O    0.17092   0.43423   0.92318   1.000
    O5054   O    0.56577   0.73668   0.92318   1.000
    O5055   O    0.26332   0.82908   0.92318   1.000
    O5056   O    0.08287   0.94318   0.92566   1.000
    O5057   O    0.05682   0.13968   0.92566   1.000
    O5058   O    0.86032   0.91713   0.92566   1.000
    O5059   O    0.55565   0.13945   0.92755   1.000
    O5060   O    0.58380   0.44435   0.92755   1.000
    O5061   O    0.86055   0.41620   0.92755   1.000
    O5062   O    0.52445   0.49855   0.92844   1.000
    O5063   O    0.50145   0.02590   0.92844   1.000
    O5064   O    0.97410   0.47555   0.92844   1.000
    O5065   O    0.53025   0.62565   0.92666   1.000
    O5066   O    0.50305   0.59055   0.93196   1.000
    O5067   O    0.09540   0.46975   0.92666   1.000
    O5068   O    0.08750   0.49695   0.93196   1.000
    O5069   O    0.37435   0.90460   0.92666   1.000
    O5070   O    0.40945   0.91250   0.93196   1.000
    O5071   O    0.04385   0.11350   0.93716   1.000
    O5072   O    0.88650   0.93035   0.93716   1.000
    O5073   O    0.06965   0.95615   0.93716   1.000
    O5074   O    0.59825   0.43885   0.93556   1.000
    O5075   O    0.57085   0.45740   0.93687   1.000
    O5076   O    0.56115   0.15940   0.93556   1.000
    O5077   O    0.54260   0.11345   0.93687   1.000
    O5078   O    0.84060   0.40175   0.93556   1.000
    O5079   O    0.88655   0.42915   0.93687   1.000
    O5080   O    0.94310   0.46025   0.93745   1.000
    O5081   O    0.00150   0.49170   0.93813   1.000
    O5082   O    0.51715   0.05690   0.93745   1.000
    O5083   O    0.49020   0.99850   0.93813   1.000
    O5084   O    0.53975   0.48285   0.93745   1.000
    O5085   O    0.50830   0.50980   0.93813   1.000
    O5086   O    0.95776   0.97264   0.94048   1.000
    O5087   O    0.02737   0.98513   0.94048   1.000
    O5088   O    0.45105   0.94300   0.93954   1.000
    O5089   O    0.41220   0.88655   0.94084   1.000
    O5090   O    0.49195   0.54895   0.93954   1.000
    O5091   O    0.47435   0.58780   0.94084   1.000
    O5092   O    0.05700   0.50805   0.93954   1.000
    O5093   O    0.11345   0.52565   0.94084   1.000
    O5094   O    0.90875   0.44290   0.94611   1.000
    O5095   O    0.55710   0.46585   0.94611   1.000
    O5096   O    0.53415   0.09125   0.94611   1.000
    O5097   O    0.45600   0.61770   0.94264   1.000
    O5098   O    0.38230   0.83830   0.94264   1.000
    O5099   O    0.16170   0.54400   0.94264   1.000
    O5100   O    0.03055   0.52075   0.94652   1.000
    O5101   O    0.49020   0.96945   0.94652   1.000
    O5102   O    0.47925   0.50980   0.94652   1.000
    O5103   O    0.91361   0.91033   0.94723   1.000
    O5104   O    0.89972   0.96603   0.94835   1.000
    O5105   O    0.99672   0.08639   0.94723   1.000
    O5106   O    0.06632   0.10029   0.94835   1.000
    O5107   O    0.08967   0.00328   0.94723   1.000
    O5108   O    0.03397   0.93368   0.94835   1.000
    O5109   O    0.44465   0.58565   0.94939   1.000
    O5110   O    0.41435   0.85900   0.94939   1.000
    O5111   O    0.14100   0.55535   0.94939   1.000
    O5112   O    0.93695   0.06555   0.95349   1.000
    O5113   O    0.93445   0.87140   0.95349   1.000
    O5114   O    0.12860   0.06305   0.95349   1.000
    O5115   O    0.46365   0.47070   0.95434   1.000
    O5116   O    0.44865   0.50845   0.95506   1.000
    O5117   O    0.52930   0.99295   0.95434   1.000
    O5118   O    0.49155   0.94020   0.95506   1.000
    O5119   O    0.00705   0.53635   0.95434   1.000
    O5120   O    0.05980   0.55135   0.95506   1.000
    O5121   O    0.52890   0.10685   0.95330   1.000
    O5122   O    0.55010   0.08635   0.95710   1.000
    O5123   O    0.57795   0.47110   0.95330   1.000
    O5124   O    0.53625   0.44990   0.95710   1.000
    O5125   O    0.89315   0.42205   0.95330   1.000
    O5126   O    0.91365   0.46375   0.95710   1.000
    O5127   O    0.11775   0.10295   0.95461   1.000
    O5128   O    0.98520   0.88225   0.95461   1.000
    O5129   O    0.89705   0.01480   0.95461   1.000
    O5130   O    0.11380   0.56835   0.95663   1.000
    O5131   O    0.17005   0.58520   0.95821   1.000
    O5132   O    0.45455   0.88620   0.95663   1.000
    O5133   O    0.41515   0.82995   0.95821   1.000
    O5134   O    0.43165   0.54545   0.95663   1.000
    O5135   O    0.41480   0.58485   0.95821   1.000
    O5136   O    0.16125   0.10555   0.95968   1.000
    O5137   O    0.94430   0.83875   0.95968   1.000
    O5138   O    0.89445   0.05570   0.95968   1.000
    O5139   O    0.39345   0.61920   0.95934   1.000
    O5140   O    0.36105   0.65315   0.96025   1.000
    O5141   O    0.38080   0.77425   0.95934   1.000
    O5142   O    0.34685   0.70795   0.96025   1.000
    O5143   O    0.22575   0.60655   0.95934   1.000
    O5144   O    0.29205   0.63895   0.96025   1.000
    O5145   O    0.98530   0.55725   0.95746   1.000
    O5146   O    0.95270   0.51200   0.95961   1.000
    O5147   O    0.44275   0.42805   0.95746   1.000
    O5148   O    0.48800   0.44070   0.95961   1.000
    O5149   O    0.57195   0.01470   0.95746   1.000
    O5150   O    0.55930   0.04730   0.95961   1.000
    O5151   O    0.08845   0.57875   0.96208   1.000
    O5152   O    0.49030   0.91155   0.96208   1.000
    O5153   O    0.42125   0.50970   0.96208   1.000
    O5154   O    0.39065   0.58835   0.96695   1.000
    O5155   O    0.41165   0.80230   0.96695   1.000
    O5156   O    0.19770   0.60935   0.96695   1.000
    O5157   O    0.91300   0.48395   0.96680   1.000
    O5158   O    0.57095   0.08700   0.96680   1.000
    O5159   O    0.51605   0.42905   0.96680   1.000
    O5160   O    0.21790   0.06790   0.96400   1.000
    O5161   O    0.85000   0.78210   0.96400   1.000
    O5162   O    0.93210   0.15000   0.96400   1.000
    O5163   O    0.20725   0.10495   0.96441   1.000
    O5164   O    0.19940   0.15145   0.96531   1.000
    O5165   O    0.89770   0.79275   0.96441   1.000
    O5166   O    0.95205   0.80060   0.96531   1.000
    O5167   O    0.89505   0.10230   0.96441   1.000
    O5168   O    0.84855   0.04795   0.96531   1.000
    O5169   O    0.33330   0.66670   0.97187   1.000
    O5170   O    0.85425   0.74705   0.96870   1.000
    O5171   O    0.25295   0.10720   0.96870   1.000
    O5172   O    0.89280   0.14575   0.96870   1.000
    O5173   O    0.99460   0.80270   0.96630   1.000
    O5174   O    0.19730   0.19190   0.96630   1.000
    O5175   O    0.80810   0.00540   0.96630   1.000
    O5176   O    0.23695   0.19650   0.97061   1.000
    O5177   O    0.80350   0.04045   0.97061   1.000
    O5178   O    0.95955   0.76305   0.97061   1.000
    O5179   O    0.88350   0.17745   0.97270   1.000
    O5180   O    0.84570   0.13755   0.97412   1.000
    O5181   O    0.82255   0.70605   0.97270   1.000
    O5182   O    0.86245   0.70815   0.97412   1.000
    O5183   O    0.29395   0.11650   0.97270   1.000
    O5184   O    0.29185   0.15430   0.97412   1.000
    O5185   O    0.37304   0.59474   0.97921   1.000
    O5186   O    0.40526   0.77830   0.97921   1.000
    O5187   O    0.22170   0.62696   0.97921   1.000
    O5188   O    0.66565   0.07495   0.97525   1.000
    O5189   O    0.40930   0.33435   0.97525   1.000
    O5190   O    0.92505   0.59070   0.97525   1.000
    O5191   O    0.80290   0.08660   0.97513   1.000
    O5192   O    0.75680   0.03245   0.97583   1.000
    O5193   O    0.91340   0.71630   0.97513   1.000
    O5194   O    0.96755   0.72435   0.97583   1.000
    O5195   O    0.28370   0.19710   0.97513   1.000
    O5196   O    0.27565   0.24320   0.97583   1.000
    O5197   O    0.64425   0.99300   0.97491   1.000
    O5198   O    0.00700   0.65125   0.97491   1.000
    O5199   O    0.34875   0.35575   0.97491   1.000
    O5200   O    0.67335   0.04295   0.97621   1.000
    O5201   O    0.69655   0.01330   0.97643   1.000
    O5202   O    0.36960   0.32665   0.97621   1.000
    O5203   O    0.31675   0.30345   0.97643   1.000
    O5204   O    0.95705   0.63040   0.97621   1.000
    O5205   O    0.98670   0.68325   0.97643   1.000
    O5206   O    0.80445   0.13430   0.97985   1.000
    O5207   O    0.86570   0.67015   0.97985   1.000
    O5208   O    0.32985   0.19555   0.97985   1.000
    O5209   O    0.39585   0.29865   0.98086   1.000
    O5210   O    0.70135   0.09720   0.98086   1.000
    O5211   O    0.90280   0.60415   0.98086   1.000
    O5212   O    0.27280   0.27785   0.97977   1.000
    O5213   O    0.00505   0.72720   0.97977   1.000
    O5214   O    0.72215   0.99495   0.97977   1.000
    O5215   O    0.29101   0.65192   0.98322   1.000
    O5216   O    0.37850   0.24210   0.98399   1.000
    O5217   O    0.36195   0.18825   0.98783   1.000
    O5218   O    0.86360   0.62150   0.98399   1.000
    O5219   O    0.82630   0.63805   0.98783   1.000
    O5220   O    0.75790   0.13640   0.98399   1.000
    O5221   O    0.81175   0.17370   0.98783   1.000
    O5222   O    0.42630   0.28855   0.98808   1.000
    O5223   O    0.86225   0.57370   0.98808   1.000
    O5224   O    0.71145   0.13775   0.98808   1.000
    O5225   O    0.33338   0.57524   0.98961   1.000
    O5226   O    0.40244   0.63454   0.98989   1.000
    O5227   O    0.42476   0.75814   0.98961   1.000
    O5228   O    0.36546   0.76789   0.98989   1.000
    O5229   O    0.24186   0.66662   0.98961   1.000
    O5230   O    0.23211   0.59757   0.98989   1.000
    O5231   O    0.46675   0.32330   0.99197   1.000
    O5232   O    0.45820   0.27875   0.99479   1.000
    O5233   O    0.85655   0.53325   0.99197   1.000
    O5234   O    0.82055   0.54180   0.99479   1.000
    O5235   O    0.67670   0.14345   0.99197   1.000
    O5236   O    0.72125   0.17945   0.99479   1.000
    O5237   O    0.35040   0.14700   0.99285   1.000
    O5238   O    0.39255   0.17970   0.99510   1.000
    O5239   O    0.85300   0.20340   0.99285   1.000
    O5240   O    0.82030   0.21285   0.99510   1.000
    O5241   O    0.79660   0.64960   0.99285   1.000
    O5242   O    0.78715   0.60745   0.99510   1.000
    O5243   O    0.26215   0.72870   0.99445   1.000
    O5244   O    0.27130   0.53345   0.99445   1.000
    O5245   O    0.46655   0.73785   0.99445   1.000
    O5246   O    0.45700   0.68410   0.99474   1.000
    O5247   O    0.22710   0.54300   0.99474   1.000
    O5248   O    0.31590   0.77290   0.99474   1.000
    O5249   O    0.78275   0.55900   0.99797   1.000
    O5250   O    0.77625   0.21725   0.99797   1.000
    O5251   O    0.44100   0.22375   0.99797   1.000
    O5252   O    0.00000   0.00000   0.57105   1.000
    O5253   O    0.97263   0.95776   0.55952   1.000
    O5254   O    0.29101   0.63914   0.48322   1.000
    O5255   O    0.36086   0.65192   0.48322   1.000
    O5256   O    0.00000   0.00000   0.92896   1.000
    O5257   O    0.01487   0.04224   0.94048   1.000
    O5258   O    0.00000   0.00000   0.42895   1.000
    O5259   O    0.95776   0.98513   0.44048   1.000
    O5260   O    0.00000   0.00000   0.07105   1.000
    O5261   O    0.98513   0.95776   0.05952   1.000
    O5262   O    0.66667   0.33333   0.90438   1.000
    O5263   O    0.70890   0.34820   0.89285   1.000
    O5264   O    0.66667   0.33333   0.26229   1.000
    O5265   O    0.62443   0.30597   0.27382   1.000
    O5266   O    0.66667   0.33333   0.76229   1.000
    O5267   O    0.62443   0.31846   0.77382   1.000
    O5268   O    0.66667   0.33333   0.40438   1.000
    O5269   O    0.70890   0.36070   0.39285   1.000
    O5270   O    0.33333   0.66667   0.23771   1.000
    O5271   O    0.30597   0.62443   0.22618   1.000
    O5272   O    0.33333   0.66667   0.59562   1.000
    O5273   O    0.29110   0.63930   0.60715   1.000
    O5274   O    0.33333   0.66667   0.09562   1.000
    O5275   O    0.29110   0.65180   0.10715   1.000
    O5276   O    0.33333   0.66667   0.73771   1.000
    O5277   O    0.31846   0.62443   0.72618   1.000
    O5278   O    0.63914   0.29101   0.01678   1.000
    O5279   O    0.65191   0.36086   0.01678   1.000
    O5280   O    0.70899   0.36086   0.51678   1.000
    O5281   O    0.63914   0.34809   0.51678   1.000
    O5282   O    0.36086   0.70900   0.98322   1.000
    O5283   O    0.34809   0.63914   0.98322   1.000
    O5284   O    0.95767   0.97247   0.81655   1.000
    O5285   O    0.02753   0.98525   0.81655   1.000
    O5286   O    0.99997   0.99998   0.80520   1.000
    O5287   O    0.00002   0.00003   0.80520   1.000
    O5288   O    0.02753   0.98520   0.81655   1.000
    O5289   O    0.01475   0.04228   0.81655   1.000
    O5290   O    0.99997   0.99998   0.80520   1.000
    O5291   O    0.00002   0.99998   0.80520   1.000
    O5292   O    0.95772   0.97247   0.81655   1.000
    O5293   O    0.01480   0.04233   0.81655   1.000
    O5294   O    0.00002   0.00003   0.80520   1.000
    O5295   O    0.00002   0.99998   0.80520   1.000
    O5296   O    0.30581   0.62434   0.35011   1.000
    O5297   O    0.31858   0.69419   0.35011   1.000
    O5298   O    0.37566   0.69419   0.85011   1.000
    O5299   O    0.30581   0.68142   0.85011   1.000
    O5300   O    0.02753   0.04233   0.31655   1.000
    O5301   O    0.01475   0.97247   0.31655   1.000
    O5302   O    0.00002   0.00003   0.30520   1.000
    O5303   O    0.99997   0.99998   0.30520   1.000
    O5304   O    0.01480   0.97247   0.31655   1.000
    O5305   O    0.95772   0.98525   0.31655   1.000
    O5306   O    0.00002   0.00003   0.30520   1.000
    O5307   O    0.00002   0.99998   0.30520   1.000
    O5308   O    0.02753   0.04228   0.31655   1.000
    O5309   O    0.95767   0.98520   0.31655   1.000
    O5310   O    0.99997   0.99998   0.30520   1.000
    O5311   O    0.00002   0.99998   0.30520   1.000
    O5312   O    0.62434   0.30581   0.14989   1.000
    O5313   O    0.69419   0.31858   0.14989   1.000
    O5314   O    0.97247   0.95767   0.68345   1.000
    O5315   O    0.98525   0.02753   0.68345   1.000
    O5316   O    0.99998   0.99997   0.69480   1.000
    O5317   O    0.00003   0.00002   0.69480   1.000
    O5318   O    0.98520   0.02753   0.68345   1.000
    O5319   O    0.04228   0.01475   0.68345   1.000
    O5320   O    0.99998   0.99997   0.69480   1.000
    O5321   O    0.99998   0.00002   0.69480   1.000
    O5322   O    0.97247   0.95772   0.68345   1.000
    O5323   O    0.04233   0.01480   0.68345   1.000
    O5324   O    0.00003   0.00002   0.69480   1.000
    O5325   O    0.99998   0.00002   0.69480   1.000
    O5326   O    0.04233   0.02753   0.18345   1.000
    O5327   O    0.97247   0.01475   0.18345   1.000
    O5328   O    0.00003   0.00002   0.19480   1.000
    O5329   O    0.99998   0.99997   0.19480   1.000
    O5330   O    0.97247   0.01480   0.18345   1.000
    O5331   O    0.98525   0.95772   0.18345   1.000
    O5332   O    0.00003   0.00002   0.19480   1.000
    O5333   O    0.99998   0.00002   0.19480   1.000
    O5334   O    0.04228   0.02753   0.18345   1.000
    O5335   O    0.98520   0.95767   0.18345   1.000
    O5336   O    0.99998   0.99997   0.19480   1.000
    O5337   O    0.99998   0.00002   0.19480   1.000
    O5338   O    0.69419   0.37566   0.64989   1.000
    O5339   O    0.68142   0.30581   0.64989   1.000
    O5340   O    0.02772   0.04128   0.79358   1.000
    O5341   O    0.02772   0.04123   0.79358   1.000
    O5342   O    0.02777   0.04128   0.79358   1.000
    O5343   O    0.95872   0.98648   0.79358   1.000
    O5344   O    0.95872   0.98643   0.79358   1.000
    O5345   O    0.95877   0.98648   0.79358   1.000
    O5346   O    0.01352   0.97228   0.79358   1.000
    O5347   O    0.01352   0.97223   0.79358   1.000
    O5348   O    0.01357   0.97228   0.79358   1.000
    O5349   O    0.95872   0.97228   0.29358   1.000
    O5350   O    0.95877   0.97228   0.29358   1.000
    O5351   O    0.95872   0.97223   0.29358   1.000
    O5352   O    0.01352   0.04128   0.29358   1.000
    O5353   O    0.01357   0.04128   0.29358   1.000
    O5354   O    0.01352   0.04123   0.29358   1.000
    O5355   O    0.02772   0.98648   0.29358   1.000
    O5356   O    0.02777   0.98648   0.29358   1.000
    O5357   O    0.02772   0.98643   0.29358   1.000
    O5358   O    0.04128   0.02772   0.70642   1.000
    O5359   O    0.04123   0.02772   0.70642   1.000
    O5360   O    0.04128   0.02777   0.70642   1.000
    O5361   O    0.98648   0.95872   0.70642   1.000
    O5362   O    0.98643   0.95872   0.70642   1.000
    O5363   O    0.98648   0.95877   0.70642   1.000
    O5364   O    0.97228   0.01352   0.70642   1.000
    O5365   O    0.97223   0.01352   0.70642   1.000
    O5366   O    0.97228   0.01357   0.70642   1.000
    O5367   O    0.97228   0.95872   0.20642   1.000
    O5368   O    0.97228   0.95877   0.20642   1.000
    O5369   O    0.97223   0.95872   0.20642   1.000
    O5370   O    0.04128   0.01352   0.20642   1.000
    O5371   O    0.04128   0.01357   0.20642   1.000
    O5372   O    0.04123   0.01352   0.20642   1.000
    O5373   O    0.98648   0.02772   0.20642   1.000
    O5374   O    0.98648   0.02777   0.20642   1.000
    O5375   O    0.98643   0.02772   0.20642   1.000
    O5376   O    0.03970   0.11163   0.81254   1.000
    O5377   O    0.88837   0.92807   0.81254   1.000
    O5378   O    0.07193   0.96030   0.81254   1.000
    O5379   O    0.88837   0.96030   0.31254   1.000
    O5380   O    0.07193   0.11163   0.31254   1.000
    O5381   O    0.03970   0.92807   0.31254   1.000
    O5382   O    0.11163   0.03970   0.68746   1.000
    O5383   O    0.92807   0.88837   0.68746   1.000
    O5384   O    0.96030   0.07193   0.68746   1.000
    O5385   O    0.96030   0.88837   0.18746   1.000
    O5386   O    0.11163   0.07193   0.18746   1.000
    O5387   O    0.92807   0.03970   0.18746   1.000
loop_
    _geom_bond_atom_site_label_1
    _geom_bond_atom_site_label_2
    _geom_bond_distance
    _geom_bond_site_symmetry_2
    _ccdc_geom_bond_type
    C1295  O2440     0.70623      .   S
    C1260  O2440     0.70623      .   S
    C1295  O2441     0.64104      .   S
    C1365  O2441     0.64104      .   S
    C1295  O2442     0.47585  1_554   S
    C1330  O2442     0.47585      .   S
    C1294  O2443     0.70623      .   S
    C1259  O2443     0.70623      .   S
    C1294  O2444     0.64104      .   S
    C1364  O2444     0.64104      .   S
    C1294  O2445     0.47585  1_554   S
    C1329  O2445     0.47585      .   S
    C1293  O2446     0.70623      .   S
    C1258  O2446     0.70623      .   S
    C1293  O2447     0.64104      .   S
    C1363  O2447     0.64104      .   S
    C1293  O2448     0.47585  1_554   S
    C1328  O2448     0.47585      .   S
    C1258  O2449     0.71857      .   S
    C1188  O2449     0.71857      .   S
    C1258  O2450     0.76684  1_554   S
    C1433  O2450     0.76684      .   S
    C1260  O2451     0.71857      .   S
    C1190  O2451     0.71857      .   S
    C1260  O2452     0.76684  1_554   S
    C1435  O2452     0.76684      .   S
    C1259  O2453     0.71857      .   S
    C1189  O2453     0.71857      .   S
    C1259  O2454     0.76684  1_554   S
    C1434  O2454     0.76684      .   S
    C1322  O2455     0.47585      .   S
    C1287  O2455     0.47585  1_556   S
    C1323  O2456     0.47585      .   S
    C1288  O2456     0.47585  1_556   S
    C1324  O2457     0.47585      .   S
    C1289  O2457     0.47585  1_556   S
    C1427  O2458     0.58021      .   S
    C307   O2458     0.58021      .   S
    C1427  O2459     0.75796      .   S
    C342   O2459     0.75796      .   S
    C1427  O2460     0.76684      .   S
    C1252  O2460     0.76684  1_556   S
    C1429  O2461     0.58021      .   S
    C309   O2461     0.58021      .   S
    C1429  O2462     0.75796      .   S
    C344   O2462     0.75796      .   S
    C1429  O2463     0.76684      .   S
    C1254  O2463     0.76684  1_556   S
    C1428  O2464     0.58021      .   S
    C308   O2464     0.58021      .   S
    C1428  O2465     0.75796      .   S
    C343   O2465     0.75796      .   S
    C1428  O2466     0.76684      .   S
    C1253  O2466     0.76684  1_556   S
    C308   O2467     0.93867      .   S
    C120   O2467     0.93867      .   S
    C309   O2468     0.93867      .   S
    C118   O2468     0.93867      .   S
    C307   O2469     0.93867      .   S
    C119   O2469     0.93867      .   S
    C1400  O2470     0.47528      .   S
    C1365  O2470     0.47528      .   S
    C1399  O2471     0.47528      .   S
    C1364  O2471     0.47528      .   S
    C1398  O2472     0.47528      .   S
    C1363  O2472     0.47528      .   S
    C342   O2473     0.90314      .   S
    C118   O2473     0.90314      .   S
    C343   O2474     0.90314      .   S
    C119   O2474     0.90314      .   S
    C344   O2475     0.90314      .   S
    C120   O2475     0.90314      .   S
    C1223  O2476     0.47466      .   S
    C1188  O2476     0.47466      .   S
    C1224  O2477     0.47466      .   S
    C1189  O2477     0.47466      .   S
    C1225  O2478     0.47466      .   S
    C1190  O2478     0.47466      .   S
    C1363  O2479     0.74374      .   S
    C1118  O2479     0.74374      .   S
    C1365  O2480     0.74374      .   S
    C1120  O2480     0.74374      .   S
    C1364  O2481     0.74374      .   S
    C1119  O2481     0.74374      .   S
    C1190  O2482     0.69257      .   S
    C1155  O2482     0.69257      .   S
    C1189  O2483     0.69257      .   S
    C1154  O2483     0.69257      .   S
    C1188  O2484     0.69257      .   S
    C1153  O2484     0.69257      .   S
    C118   O2485     0.98052      .   S
    C413   O2485     0.98052      .   S
    C119   O2486     0.98052      .   S
    C414   O2486     0.98052      .   S
    C120   O2487     0.97060      .   S
    C181   O2487     0.97060      .   S
    C120   O2488     0.98052      .   S
    C412   O2488     0.98052      .   S
    C1154  O2489     0.72625      .   S
    C1119  O2489     0.72625      .   S
    C1154  O2490     0.73625      .   S
    C664   O2490     0.73625      .   S
    C1153  O2491     0.72625      .   S
    C1118  O2491     0.72625      .   S
    C1153  O2492     0.73625      .   S
    C663   O2492     0.73625      .   S
    C1155  O2493     0.72625      .   S
    C1120  O2493     0.72625      .   S
    C1155  O2494     0.73625      .   S
    C665   O2494     0.73625      .   S
    C1119  O2495     0.71075      .   S
    C909   O2495     0.71075      .   S
    C1118  O2496     0.71075      .   S
    C908   O2496     0.71075      .   S
    C1120  O2497     0.71075      .   S
    C910   O2497     0.71075      .   S
    C630   O2498     0.44146      .   S
    C595   O2498     0.44146  1_565   S
    C629   O2499     0.44146      .   S
    C594   O2499     0.44146  1_455   S
    C628   O2500     0.44146      .   S
    C593   O2500     0.44146      .   S
    C181   O2501     0.94408      .   S
    C151   O2501     0.94408      .   S
    C594   O2502     0.73453      .   S
    C1084  O2502     0.73453      .   S
    C594   O2503     0.71569      .   S
    C874   O2503     0.71569      .   S
    C595   O2504     0.73453      .   S
    C1085  O2504     0.73453      .   S
    C595   O2505     0.71569      .   S
    C875   O2505     0.71569      .   S
    C593   O2506     0.73453      .   S
    C1083  O2506     0.73453      .   S
    C593   O2507     0.71569      .   S
    C873   O2507     0.71569      .   S
    C663   O2508     0.63220      .   S
    C1083  O2508     0.63220      .   S
    C663   O2509     0.44040      .   S
    C698   O2509     0.44040      .   S
    C664   O2510     0.63220      .   S
    C1084  O2510     0.63220      .   S
    C664   O2511     0.44040      .   S
    C699   O2511     0.44040      .   S
    C665   O2512     0.63220      .   S
    C1085  O2512     0.63220      .   S
    C665   O2513     0.44040      .   S
    C700   O2513     0.44040      .   S
    C909   O2514     0.71234      .   S
    C874   O2514     0.71234      .   S
    C909   O2515     0.65586      .   S
    C944   O2515     0.65586      .   S
    C910   O2516     0.71234      .   S
    C875   O2516     0.71234      .   S
    C910   O2517     0.65586      .   S
    C945   O2517     0.65586      .   S
    C908   O2518     0.71234      .   S
    C873   O2518     0.71234      .   S
    C908   O2519     0.65586      .   S
    C943   O2519     0.65586      .   S
    C1083  O2520     0.56653      .   S
    C278   O2520     0.56653      .   S
    C1084  O2521     0.56653  1_455   S
    C279   O2521     0.56653      .   S
    C1085  O2522     0.56653  1_565   S
    C280   O2522     0.56653      .   S
    C873   O2523     0.70858      .   S
    C803   O2523     0.70858      .   S
    C875   O2524     0.70858      .   S
    C805   O2524     0.70858      .   S
    C874   O2525     0.70858      .   S
    C804   O2525     0.70858      .   S
    C979   O2526     0.47349      .   S
    C944   O2526     0.47349      .   S
    C978   O2527     0.47349      .   S
    C943   O2527     0.47349      .   S
    C980   O2528     0.47349      .   S
    C945   O2528     0.47349      .   S
    C414   O2529     0.63553      .   S
    C1464  O2529     0.63553      .   S
    C413   O2530     0.63553      .   S
    C1463  O2530     0.63553      .   S
    C412   O2531     0.63553      .   S
    C1462  O2531     0.63553      .   S
    C943   O2532     0.71520      .   S
    C1013  O2532     0.71520      .   S
    C944   O2533     0.71520      .   S
    C1014  O2533     0.71520      .   S
    C945   O2534     0.71520      .   S
    C1015  O2534     0.71520      .   S
    C484   O2535     0.57416      .   S
    C2409  O2535     0.57416      .   S
    C483   O2536     0.57416      .   S
    C2408  O2536     0.57416      .   S
    C482   O2537     0.57416      .   S
    C2407  O2537     0.57416      .   S
    C803   O2538     0.47525      .   S
    C838   O2538     0.47525      .   S
    C803   O2539     0.68736      .   S
    C768   O2539     0.68736      .   S
    C804   O2540     0.47525      .   S
    C839   O2540     0.47525  1_655   S
    C804   O2541     0.68736      .   S
    C769   O2541     0.68736      .   S
    C805   O2542     0.47525      .   S
    C840   O2542     0.47525  1_545   S
    C805   O2543     0.68736      .   S
    C770   O2543     0.68736      .   S
    C1742  O2544     0.47299      .   S
    C1707  O2544     0.47299      .   S
    C1743  O2545     0.47299      .   S
    C1708  O2545     0.47299      .   S
    C1744  O2546     0.47299      .   S
    C1709  O2546     0.47299      .   S
    C1015  O2547     0.72287      .   S
    C770   O2547     0.72287      .   S
    C1015  O2548     0.47468      .   S
    C1050  O2548     0.47468      .   S
    C1014  O2549     0.72287      .   S
    C769   O2549     0.72287      .   S
    C1014  O2550     0.47468      .   S
    C1049  O2550     0.47468      .   S
    C1013  O2551     0.72287      .   S
    C768   O2551     0.72287      .   S
    C1013  O2552     0.47468      .   S
    C1048  O2552     0.47468      .   S
    C151   O2553     0.96427      .   S
    C378   O2553     0.96427      .   S
    C151   O2554     0.96449      .   S
    C377   O2554     0.96449      .   S
    C151   O2555     0.96534      .   S
    C379   O2555     0.96534      .   S
    C770   O2556     0.73978      .   S
    C735   O2556     0.73978      .   S
    C768   O2557     0.73978      .   S
    C733   O2557     0.73978      .   S
    C769   O2558     0.73978      .   S
    C734   O2558     0.73978      .   S
    C2409  O2559     0.74713      .   S
    C2269  O2559     0.74713      .   S
    C2409  O2560     0.73469      .   S
    C2339  O2560     0.73469      .   S
    C2408  O2561     0.74713      .   S
    C2268  O2561     0.74713      .   S
    C2408  O2562     0.73469      .   S
    C2338  O2562     0.73469      .   S
    C2407  O2563     0.74713      .   S
    C2267  O2563     0.74713      .   S
    C2407  O2564     0.73469      .   S
    C2337  O2564     0.73469      .   S
    C1464  O2565     0.62440      .   S
    C379   O2565     0.62440      .   S
    C1464  O2566     0.76076      .   S
    C1499  O2566     0.76076      .   S
    C1463  O2567     0.62440      .   S
    C378   O2567     0.62440      .   S
    C1463  O2568     0.76076      .   S
    C1498  O2568     0.76076      .   S
    C1462  O2569     0.62440      .   S
    C377   O2569     0.62440      .   S
    C1462  O2570     0.76076      .   S
    C1497  O2570     0.76076      .   S
    C1708  O2571     0.66105      .   S
    C1498  O2571     0.66105      .   S
    C1708  O2572     0.72263      .   S
    C1673  O2572     0.72263      .   S
    C1707  O2573     0.66105      .   S
    C1497  O2573     0.66105      .   S
    C1707  O2574     0.72263      .   S
    C1672  O2574     0.72263      .   S
    C1709  O2575     0.66105      .   S
    C1499  O2575     0.66105      .   S
    C1709  O2576     0.72263      .   S
    C1674  O2576     0.72263      .   S
    C2303  O2577     0.43939      .   S
    C2268  O2577     0.43939      .   S
    C2302  O2578     0.43939      .   S
    C2267  O2578     0.43939      .   S
    C2304  O2579     0.43939      .   S
    C2269  O2579     0.43939      .   S
    C2267  O2580     0.69464  1_455   S
    C1672  O2580     0.69464      .   S
    C2269  O2581     0.69464      .   S
    C1674  O2581     0.69464      .   S
    C2268  O2582     0.69464  1_565   S
    C1673  O2582     0.69464      .   S
    C733   O2583     0.61258      .   S
    C208   O2583     0.61258      .   S
    C733   O2584     0.67137      .   S
    C243   O2584     0.67137      .   S
    C734   O2585     0.61258      .   S
    C209   O2585     0.61258  1_655   S
    C734   O2586     0.67137      .   S
    C244   O2586     0.67137      .   S
    C735   O2587     0.61258      .   S
    C210   O2587     0.61258  1_545   S
    C735   O2588     0.67137      .   S
    C245   O2588     0.67137      .   S
    C1498  O2589     0.69208      .   S
    C1533  O2589     0.69208      .   S
    C1497  O2590     0.69208      .   S
    C1532  O2590     0.69208      .   S
    C1499  O2591     0.69208      .   S
    C1534  O2591     0.69208      .   S
    C2373  O2592     0.43963      .   S
    C2338  O2592     0.43963      .   S
    C2374  O2593     0.43963      .   S
    C2339  O2593     0.43963      .   S
    C2372  O2594     0.43963      .   S
    C2337  O2594     0.43963      .   S
    C209   O2595     0.95602      .   S
    C89    O2595     0.95602      .   S
    C208   O2596     0.95602      .   S
    C91    O2596     0.95602      .   S
    C210   O2597     0.95602      .   S
    C90    O2597     0.95602      .   S
    C2339  O2598     0.68343      .   S
    C2024  O2598     0.68343      .   S
    C2338  O2599     0.68343      .   S
    C2023  O2599     0.68343      .   S
    C2337  O2600     0.68343      .   S
    C2022  O2600     0.68343      .   S
    C1672  O2601     0.65693      .   S
    C1637  O2601     0.65693      .   S
    C1673  O2602     0.65693      .   S
    C1638  O2602     0.65693      .   S
    C1674  O2603     0.65693      .   S
    C1639  O2603     0.65693      .   S
    C243   O2604     0.93696      .   S
    C89    O2604     0.93696  1_545   S
    C244   O2605     0.93696      .   S
    C90    O2605     0.93696      .   S
    C245   O2606     0.93696      .   S
    C91    O2606     0.93696  1_655   S
    C1532  O2607     0.47538      .   S
    C1567  O2607     0.47538      .   S
    C1532  O2608     0.71927      .   S
    C1602  O2608     0.71927      .   S
    C1533  O2609     0.47538      .   S
    C1568  O2609     0.47538      .   S
    C1533  O2610     0.71927      .   S
    C1603  O2610     0.71927      .   S
    C1534  O2611     0.47538      .   S
    C1569  O2611     0.47538      .   S
    C1534  O2612     0.71927      .   S
    C1604  O2612     0.71927      .   S
    C91    O2613     0.93728      .   S
    C538   O2613     0.93728      .   S
    C90    O2614     0.96644      .   S
    C172   O2614     0.96644      .   S
    C90    O2615     0.93728      .   S
    C539   O2615     0.93728      .   S
    C89    O2616     0.96644      .   S
    C172   O2616     0.96644  1_455   S
    C89    O2617     0.93728      .   S
    C540   O2617     0.93728      .   S
    C1639  O2618     0.69090      .   S
    C1604  O2618     0.69090      .   S
    C1639  O2619     0.70758      .   S
    C1779  O2619     0.70758      .   S
    C1638  O2620     0.69090      .   S
    C1603  O2620     0.69090      .   S
    C1638  O2621     0.70758      .   S
    C1778  O2621     0.70758  1_565   S
    C1637  O2622     0.69090      .   S
    C1602  O2622     0.69090      .   S
    C1637  O2623     0.70758      .   S
    C1777  O2623     0.70758  1_455   S
    C2022  O2624     0.70761      .   S
    C1777  O2624     0.70761      .   S
    C2022  O2625     0.66931      .   S
    C1952  O2625     0.66931      .   S
    C2023  O2626     0.70761      .   S
    C1778  O2626     0.70761      .   S
    C2023  O2627     0.66931      .   S
    C1953  O2627     0.66931      .   S
    C2024  O2628     0.70761      .   S
    C1779  O2628     0.70761      .   S
    C2024  O2629     0.66931      .   S
    C1954  O2629     0.66931      .   S
    C1602  O2630     0.72430      .   S
    C2092  O2630     0.72430      .   S
    C1603  O2631     0.72430      .   S
    C2093  O2631     0.72430      .   S
    C1604  O2632     0.72430      .   S
    C2094  O2632     0.72430      .   S
    C1989  O2633     0.47401      .   S
    C1954  O2633     0.47401      .   S
    C1988  O2634     0.47401      .   S
    C1953  O2634     0.47401      .   S
    C1987  O2635     0.47401      .   S
    C1952  O2635     0.47401      .   S
    C1779  O2636     0.71781      .   S
    C1814  O2636     0.71781      .   S
    C1778  O2637     0.71781      .   S
    C1813  O2637     0.71781      .   S
    C1777  O2638     0.71781      .   S
    C1812  O2638     0.71781      .   S
    C1952  O2639     0.68738      .   S
    C1917  O2639     0.68738      .   S
    C1953  O2640     0.68738      .   S
    C1918  O2640     0.68738      .   S
    C1954  O2641     0.68738      .   S
    C1919  O2641     0.68738      .   S
    C539   O2642     0.59521      .   S
    C2079  O2642     0.59521      .   S
    C538   O2643     0.59521      .   S
    C2078  O2643     0.59521      .   S
    C540   O2644     0.59521      .   S
    C2080  O2644     0.59521      .   S
    C468   O2645     0.56083      .   S
    C2253  O2645     0.56083      .   S
    C469   O2646     0.56083      .   S
    C2254  O2646     0.56083      .   S
    C470   O2647     0.56083      .   S
    C2255  O2647     0.56083      .   S
    C2128  O2648     0.43889      .   S
    C2093  O2648     0.43889      .   S
    C2129  O2649     0.43889      .   S
    C2094  O2649     0.43889      .   S
    C2127  O2650     0.43889      .   S
    C2092  O2650     0.43889      .   S
    C2092  O2651     0.73227      .   S
    C2232  O2651     0.73227      .   S
    C2094  O2652     0.73227      .   S
    C2234  O2652     0.73227      .   S
    C2093  O2653     0.73227      .   S
    C2233  O2653     0.73227      .   S
    C1905  O2654     0.47404      .   S
    C1870  O2654     0.47404      .   S
    C1903  O2655     0.47404      .   S
    C1868  O2655     0.47404      .   S
    C1904  O2656     0.47404      .   S
    C1869  O2656     0.47404      .   S
    C2219  O2657     0.44151      .   S
    C2184  O2657     0.44151      .   S
    C2220  O2658     0.44151      .   S
    C2185  O2658     0.44151      .   S
    C2218  O2659     0.44151      .   S
    C2183  O2659     0.44151      .   S
    C1812  O2660     0.66841      .   S
    C1847  O2660     0.66841      .   S
    C1812  O2661     0.74020  1_455   S
    C2162  O2661     0.74020      .   S
    C1814  O2662     0.66841      .   S
    C1849  O2662     0.66841      .   S
    C1814  O2663     0.74020      .   S
    C2164  O2663     0.74020      .   S
    C1813  O2664     0.66841      .   S
    C1848  O2664     0.66841      .   S
    C1813  O2665     0.74020  1_565   S
    C2163  O2665     0.74020      .   S
    C1919  O2666     0.71283      .   S
    C1849  O2666     0.71283      .   S
    C1919  O2667     0.77729      .   S
    C2059  O2667     0.77729      .   S
    C1918  O2668     0.71283      .   S
    C1848  O2668     0.71283      .   S
    C1918  O2669     0.77729      .   S
    C2058  O2669     0.77729      .   S
    C1917  O2670     0.71283      .   S
    C1847  O2670     0.71283      .   S
    C1917  O2671     0.77729      .   S
    C2057  O2671     0.77729      .   S
    C2080  O2672     0.66986      .   S
    C575   O2672     0.66986      .   S
    C2080  O2673     0.77729      .   S
    C1940  O2673     0.77729      .   S
    C2079  O2674     0.66986      .   S
    C574   O2674     0.66986      .   S
    C2079  O2675     0.77729      .   S
    C1939  O2675     0.77729      .   S
    C2078  O2676     0.66986      .   S
    C573   O2676     0.66986      .   S
    C2078  O2677     0.77729      .   S
    C1938  O2677     0.77729      .   S
    C72    O2678     0.95489  1_455   S
    C575   O2678     0.95489      .   S
    C72    O2679     0.95489      .   S
    C574   O2679     0.95489      .   S
    C72    O2680     0.95489  1_445   S
    C573   O2680     0.95489      .   S
    C2255  O2681     0.72243      .   S
    C2185  O2681     0.72243      .   S
    C2255  O2682     0.73227      .   S
    C2115  O2682     0.73227      .   S
    C2253  O2683     0.72243      .   S
    C2183  O2683     0.72243      .   S
    C2253  O2684     0.73227      .   S
    C2113  O2684     0.73227      .   S
    C2254  O2685     0.72243      .   S
    C2184  O2685     0.72243      .   S
    C2254  O2686     0.73227      .   S
    C2114  O2686     0.73227      .   S
    C554   O2687     0.95489      .   S
    C79    O2687     0.95489      .   S
    C554   O2688     0.66986      .   S
    C2059  O2688     0.66986      .   S
    C553   O2689     0.95489      .   S
    C79    O2689     0.95489      .   S
    C553   O2690     0.66986      .   S
    C2058  O2690     0.66986      .   S
    C552   O2691     0.95489      .   S
    C79    O2691     0.95489      .   S
    C552   O2692     0.66986      .   S
    C2057  O2692     0.66986      .   S
    C2183  O2693     0.74020      .   S
    C1833  O2693     0.74020      .   S
    C2184  O2694     0.74020      .   S
    C1834  O2694     0.74020      .   S
    C2185  O2695     0.74020      .   S
    C1835  O2695     0.74020      .   S
    C1869  O2696     0.71283      .   S
    C1939  O2696     0.71283      .   S
    C1869  O2697     0.66841      .   S
    C1834  O2697     0.66841      .   S
    C1870  O2698     0.71283      .   S
    C1940  O2698     0.71283      .   S
    C1870  O2699     0.66841      .   S
    C1835  O2699     0.66841      .   S
    C1868  O2700     0.71283      .   S
    C1938  O2700     0.71283      .   S
    C1868  O2701     0.66841      .   S
    C1833  O2701     0.66841      .   S
    C1849  O2702     0.47404      .   S
    C1884  O2702     0.47404      .   S
    C1847  O2703     0.47404      .   S
    C1882  O2703     0.47404      .   S
    C1848  O2704     0.47404      .   S
    C1883  O2704     0.47404      .   S
    C2164  O2705     0.72243      .   S
    C2234  O2705     0.72243      .   S
    C2164  O2706     0.44151      .   S
    C2199  O2706     0.44151      .   S
    C2163  O2707     0.72243      .   S
    C2233  O2707     0.72243      .   S
    C2163  O2708     0.44151      .   S
    C2198  O2708     0.44151      .   S
    C2162  O2709     0.72243      .   S
    C2232  O2709     0.72243      .   S
    C2162  O2710     0.44151      .   S
    C2197  O2710     0.44151      .   S
    C2234  O2711     0.56083      .   S
    C449   O2711     0.56083      .   S
    C2233  O2712     0.56083      .   S
    C448   O2712     0.56083      .   S
    C2232  O2713     0.56083      .   S
    C447   O2713     0.56083      .   S
    C2059  O2714     0.59521      .   S
    C519   O2714     0.59521      .   S
    C2058  O2715     0.59521      .   S
    C518   O2715     0.59521      .   S
    C2057  O2716     0.59521      .   S
    C517   O2716     0.59521      .   S
    C1938  O2717     0.68738      .   S
    C1973  O2717     0.68738      .   S
    C1939  O2718     0.68738      .   S
    C1974  O2718     0.68738      .   S
    C1940  O2719     0.68738      .   S
    C1975  O2719     0.68738      .   S
    C1833  O2720     0.71781      .   S
    C1798  O2720     0.71781      .   S
    C1835  O2721     0.71781      .   S
    C1800  O2721     0.71781      .   S
    C1834  O2722     0.71781      .   S
    C1799  O2722     0.71781      .   S
    C2115  O2723     0.43889      .   S
    C2150  O2723     0.43889      .   S
    C2115  O2724     0.72430      .   S
    C1625  O2724     0.72430      .   S
    C2114  O2725     0.43889      .   S
    C2149  O2725     0.43889      .   S
    C2114  O2726     0.72430      .   S
    C1624  O2726     0.72430      .   S
    C2113  O2727     0.43889      .   S
    C2148  O2727     0.43889      .   S
    C2113  O2728     0.72430      .   S
    C1623  O2728     0.72430      .   S
    C519   O2729     0.93728      .   S
    C110   O2729     0.93728      .   S
    C517   O2730     0.93728      .   S
    C112   O2730     0.93728      .   S
    C518   O2731     0.93728      .   S
    C111   O2731     0.93728      .   S
    C1973  O2732     0.47401      .   S
    C2008  O2732     0.47401      .   S
    C1973  O2733     0.66931      .   S
    C2043  O2733     0.66931      .   S
    C1974  O2734     0.47401      .   S
    C2009  O2734     0.47401      .   S
    C1974  O2735     0.66931      .   S
    C2044  O2735     0.66931      .   S
    C1975  O2736     0.47401      .   S
    C2010  O2736     0.47401      .   S
    C1975  O2737     0.66931      .   S
    C2045  O2737     0.66931      .   S
    C1800  O2738     0.70761      .   S
    C2045  O2738     0.70761      .   S
    C1800  O2739     0.70758      .   S
    C1660  O2739     0.70758      .   S
    C1799  O2740     0.70761      .   S
    C2044  O2740     0.70761      .   S
    C1799  O2741     0.70758      .   S
    C1659  O2741     0.70758      .   S
    C1798  O2742     0.70761      .   S
    C2043  O2742     0.70761      .   S
    C1798  O2743     0.70758      .   S
    C1658  O2743     0.70758      .   S
    C179   O2744     0.96644      .   S
    C110   O2744     0.96644      .   S
    C179   O2745     0.96644      .   S
    C111   O2745     0.96644      .   S
    C1624  O2746     0.69090      .   S
    C1659  O2746     0.69090      .   S
    C1624  O2747     0.71927      .   S
    C1554  O2747     0.71927      .   S
    C1625  O2748     0.69090      .   S
    C1660  O2748     0.69090      .   S
    C1625  O2749     0.71927      .   S
    C1555  O2749     0.71927      .   S
    C1623  O2750     0.69090      .   S
    C1658  O2750     0.69090      .   S
    C1623  O2751     0.71927      .   S
    C1553  O2751     0.71927      .   S
    C2045  O2752     0.68343      .   S
    C2360  O2752     0.68343      .   S
    C2044  O2753     0.68343      .   S
    C2359  O2753     0.68343      .   S
    C2043  O2754     0.68343      .   S
    C2358  O2754     0.68343      .   S
    C1590  O2755     0.47538      .   S
    C1555  O2755     0.47538      .   S
    C1589  O2756     0.47538      .   S
    C1554  O2756     0.47538      .   S
    C1588  O2757     0.47538      .   S
    C1553  O2757     0.47538      .   S
    C1658  O2758     0.65693      .   S
    C1693  O2758     0.65693      .   S
    C1659  O2759     0.65693      .   S
    C1694  O2759     0.65693      .   S
    C1660  O2760     0.65693      .   S
    C1695  O2760     0.65693      .   S
    C110   O2761     0.93696      .   S
    C264   O2761     0.93696      .   S
    C110   O2762     0.95602      .   S
    C230   O2762     0.95602      .   S
    C112   O2763     0.93696      .   S
    C266   O2763     0.93696      .   S
    C112   O2764     0.95602      .   S
    C229   O2764     0.95602      .   S
    C111   O2765     0.93696      .   S
    C265   O2765     0.93696      .   S
    C111   O2766     0.95602      .   S
    C231   O2766     0.95602      .   S
    C1555  O2767     0.69208      .   S
    C1520  O2767     0.69208      .   S
    C1554  O2768     0.69208      .   S
    C1519  O2768     0.69208      .   S
    C1553  O2769     0.69208      .   S
    C1518  O2769     0.69208      .   S
    C265   O2770     0.67137      .   S
    C755   O2770     0.67137      .   S
    C266   O2771     0.67137      .   S
    C756   O2771     0.67137      .   S
    C264   O2772     0.67137      .   S
    C754   O2772     0.67137      .   S
    C1694  O2773     0.69464      .   S
    C2289  O2773     0.69464      .   S
    C1694  O2774     0.72263      .   S
    C1729  O2774     0.72263      .   S
    C1693  O2775     0.69464      .   S
    C2288  O2775     0.69464      .   S
    C1693  O2776     0.72263      .   S
    C1728  O2776     0.72263      .   S
    C1695  O2777     0.69464      .   S
    C2290  O2777     0.69464      .   S
    C1695  O2778     0.72263      .   S
    C1730  O2778     0.72263      .   S
    C2358  O2779     0.43963      .   S
    C2393  O2779     0.43963      .   S
    C2358  O2780     0.73469      .   S
    C2428  O2780     0.73469      .   S
    C2359  O2781     0.43963      .   S
    C2394  O2781     0.43963      .   S
    C2359  O2782     0.73469      .   S
    C2429  O2782     0.73469      .   S
    C2360  O2783     0.43963      .   S
    C2395  O2783     0.43963      .   S
    C2360  O2784     0.73469      .   S
    C2430  O2784     0.73469      .   S
    C231   O2785     0.61258      .   S
    C756   O2785     0.61258      .   S
    C229   O2786     0.61258      .   S
    C754   O2786     0.61258      .   S
    C230   O2787     0.61258      .   S
    C755   O2787     0.61258      .   S
    C1518  O2788     0.66105      .   S
    C1728  O2788     0.66105      .   S
    C1518  O2789     0.76076      .   S
    C1483  O2789     0.76076      .   S
    C1519  O2790     0.66105      .   S
    C1729  O2790     0.66105      .   S
    C1519  O2791     0.76076      .   S
    C1484  O2791     0.76076      .   S
    C1520  O2792     0.66105      .   S
    C1730  O2792     0.66105      .   S
    C1520  O2793     0.76076      .   S
    C1485  O2793     0.76076      .   S
    C756   O2794     0.73978      .   S
    C791   O2794     0.73978      .   S
    C755   O2795     0.73978      .   S
    C790   O2795     0.73978      .   S
    C754   O2796     0.73978      .   S
    C789   O2796     0.73978      .   S
    C400   O2797     0.62440      .   S
    C1485  O2797     0.62440      .   S
    C400   O2798     0.96534      .   S
    C162   O2798     0.96534      .   S
    C399   O2799     0.62440      .   S
    C1484  O2799     0.62440      .   S
    C399   O2800     0.96427      .   S
    C162   O2800     0.96427      .   S
    C398   O2801     0.62440      .   S
    C1483  O2801     0.62440      .   S
    C398   O2802     0.96449      .   S
    C162   O2802     0.96449      .   S
    C2290  O2803     0.43939      .   S
    C2325  O2803     0.43939      .   S
    C2290  O2804     0.74713      .   S
    C2430  O2804     0.74713      .   S
    C2288  O2805     0.43939      .   S
    C2323  O2805     0.43939      .   S
    C2288  O2806     0.74713      .   S
    C2428  O2806     0.74713      .   S
    C2289  O2807     0.43939      .   S
    C2324  O2807     0.43939      .   S
    C2289  O2808     0.74713      .   S
    C2429  O2808     0.74713      .   S
    C1730  O2809     0.47299      .   S
    C1765  O2809     0.47299      .   S
    C1729  O2810     0.47299      .   S
    C1764  O2810     0.47299      .   S
    C1728  O2811     0.47299      .   S
    C1763  O2811     0.47299      .   S
    C1484  O2812     0.63553      .   S
    C434   O2812     0.63553      .   S
    C1485  O2813     0.63553      .   S
    C435   O2813     0.63553      .   S
    C1483  O2814     0.63553      .   S
    C433   O2814     0.63553      .   S
    C2428  O2815     0.57416      .   S
    C503   O2815     0.57416      .   S
    C2429  O2816     0.57416      .   S
    C504   O2816     0.57416      .   S
    C2430  O2817     0.57416      .   S
    C505   O2817     0.57416      .   S
    C1071  O2818     0.47468      .   S
    C1036  O2818     0.47468      .   S
    C1070  O2819     0.47468      .   S
    C1035  O2819     0.47468      .   S
    C1069  O2820     0.47468      .   S
    C1034  O2820     0.47468      .   S
    C789   O2821     0.72287      .   S
    C1034  O2821     0.72287      .   S
    C789   O2822     0.68736      .   S
    C824   O2822     0.68736      .   S
    C790   O2823     0.72287      .   S
    C1035  O2823     0.72287      .   S
    C790   O2824     0.68736      .   S
    C825   O2824     0.68736      .   S
    C791   O2825     0.72287      .   S
    C1036  O2825     0.72287      .   S
    C791   O2826     0.68736      .   S
    C826   O2826     0.68736      .   S
    C162   O2827     0.94408      .   S
    C192   O2827     0.94408      .   S
    C859   O2828     0.47525      .   S
    C824   O2828     0.47525      .   S
    C860   O2829     0.47525      .   S
    C825   O2829     0.47525      .   S
    C861   O2830     0.47525      .   S
    C826   O2830     0.47525      .   S
    C1035  O2831     0.71520      .   S
    C965   O2831     0.71520      .   S
    C1036  O2832     0.71520      .   S
    C966   O2832     0.71520      .   S
    C1034  O2833     0.71520      .   S
    C964   O2833     0.71520      .   S
    C824   O2834     0.70858      .   S
    C894   O2834     0.70858      .   S
    C825   O2835     0.70858      .   S
    C895   O2835     0.70858      .   S
    C826   O2836     0.70858      .   S
    C896   O2836     0.70858      .   S
    C964   O2837     0.47349      .   S
    C999   O2837     0.47349      .   S
    C964   O2838     0.65586      .   S
    C929   O2838     0.65586      .   S
    C965   O2839     0.47349      .   S
    C1000  O2839     0.47349      .   S
    C965   O2840     0.65586      .   S
    C930   O2840     0.65586      .   S
    C966   O2841     0.47349      .   S
    C1001  O2841     0.47349      .   S
    C966   O2842     0.65586      .   S
    C931   O2842     0.65586      .   S
    C435   O2843     0.98052      .   S
    C140   O2843     0.98052      .   S
    C434   O2844     0.98052      .   S
    C139   O2844     0.98052      .   S
    C433   O2845     0.98052      .   S
    C141   O2845     0.98052      .   S
    C719   O2846     0.44040      .   S
    C684   O2846     0.44040  1_455   S
    C721   O2847     0.44040      .   S
    C686   O2847     0.44040  1_565   S
    C720   O2848     0.44040      .   S
    C685   O2848     0.44040      .   S
    C896   O2849     0.71234      .   S
    C931   O2849     0.71234      .   S
    C896   O2850     0.71569      .   S
    C616   O2850     0.71569      .   S
    C895   O2851     0.71234      .   S
    C930   O2851     0.71234      .   S
    C895   O2852     0.71569      .   S
    C615   O2852     0.71569      .   S
    C894   O2853     0.71234      .   S
    C929   O2853     0.71234      .   S
    C894   O2854     0.71569      .   S
    C614   O2854     0.71569      .   S
    C299   O2855     0.56653      .   S
    C1104  O2855     0.56653  1_455   S
    C301   O2856     0.56653      .   S
    C1106  O2856     0.56653  1_565   S
    C300   O2857     0.56653      .   S
    C1105  O2857     0.56653      .   S
    C1106  O2858     0.63220      .   S
    C686   O2858     0.63220      .   S
    C1106  O2859     0.73453      .   S
    C616   O2859     0.73453      .   S
    C1105  O2860     0.63220      .   S
    C685   O2860     0.63220      .   S
    C1105  O2861     0.73453      .   S
    C615   O2861     0.73453      .   S
    C1104  O2862     0.63220      .   S
    C684   O2862     0.63220      .   S
    C1104  O2863     0.73453      .   S
    C614   O2863     0.73453      .   S
    C931   O2864     0.71075      .   S
    C1141  O2864     0.71075      .   S
    C930   O2865     0.71075      .   S
    C1140  O2865     0.71075      .   S
    C929   O2866     0.71075      .   S
    C1139  O2866     0.71075      .   S
    C686   O2867     0.73625      .   S
    C1176  O2867     0.73625      .   S
    C685   O2868     0.73625      .   S
    C1175  O2868     0.73625      .   S
    C684   O2869     0.73625      .   S
    C1174  O2869     0.73625      .   S
    C614   O2870     0.44146      .   S
    C649   O2870     0.44146      .   S
    C616   O2871     0.44146      .   S
    C651   O2871     0.44146      .   S
    C615   O2872     0.44146      .   S
    C650   O2872     0.44146      .   S
    C192   O2873     0.97060      .   S
    C141   O2873     0.97060      .   S
    C1141  O2874     0.72625      .   S
    C1176  O2874     0.72625      .   S
    C1141  O2875     0.74374      .   S
    C1386  O2875     0.74374      .   S
    C1140  O2876     0.72625      .   S
    C1175  O2876     0.72625      .   S
    C1140  O2877     0.74374      .   S
    C1385  O2877     0.74374      .   S
    C1139  O2878     0.72625      .   S
    C1174  O2878     0.72625      .   S
    C1139  O2879     0.74374      .   S
    C1384  O2879     0.74374      .   S
    C1175  O2880     0.69257      .   S
    C1210  O2880     0.69257      .   S
    C1174  O2881     0.69257      .   S
    C1209  O2881     0.69257      .   S
    C1176  O2882     0.69257      .   S
    C1211  O2882     0.69257      .   S
    C141   O2883     0.90314      .   S
    C365   O2883     0.90314      .   S
    C141   O2884     0.93867      .   S
    C329   O2884     0.93867      .   S
    C140   O2885     0.90314      .   S
    C364   O2885     0.90314      .   S
    C140   O2886     0.93867      .   S
    C328   O2886     0.93867      .   S
    C139   O2887     0.90314      .   S
    C363   O2887     0.90314      .   S
    C139   O2888     0.93867      .   S
    C330   O2888     0.93867      .   S
    C1209  O2889     0.47466      .   S
    C1244  O2889     0.47466  1_655   S
    C1209  O2890     0.71857      .   S
    C1279  O2890     0.71857      .   S
    C1210  O2891     0.47466      .   S
    C1245  O2891     0.47466      .   S
    C1210  O2892     0.71857      .   S
    C1280  O2892     0.71857      .   S
    C1211  O2893     0.47466      .   S
    C1246  O2893     0.47466  1_545   S
    C1211  O2894     0.71857      .   S
    C1281  O2894     0.71857      .   S
    C1385  O2895     0.47528      .   S
    C1420  O2895     0.47528      .   S
    C1385  O2896     0.64104      .   S
    C1315  O2896     0.64104      .   S
    C1386  O2897     0.47528      .   S
    C1421  O2897     0.47528      .   S
    C1386  O2898     0.64104      .   S
    C1316  O2898     0.64104      .   S
    C1384  O2899     0.47528      .   S
    C1419  O2899     0.47528      .   S
    C1384  O2900     0.64104      .   S
    C1314  O2900     0.64104      .   S
    C365   O2901     0.75796      .   S
    C1450  O2901     0.75796      .   S
    C364   O2902     0.75796      .   S
    C1449  O2902     0.75796      .   S
    C363   O2903     0.75796      .   S
    C1448  O2903     0.75796      .   S
    C330   O2904     0.58021      .   S
    C1450  O2904     0.58021      .   S
    C329   O2905     0.58021      .   S
    C1449  O2905     0.58021      .   S
    C328   O2906     0.58021      .   S
    C1448  O2906     0.58021      .   S
    C1448  O2907     0.76684      .   S
    C1273  O2907     0.76684      .   S
    C1449  O2908     0.76684      .   S
    C1274  O2908     0.76684      .   S
    C1450  O2909     0.76684      .   S
    C1275  O2909     0.76684      .   S
    C1345  O2910     0.47585      .   S
    C1310  O2910     0.47585      .   S
    C1344  O2911     0.47585      .   S
    C1309  O2911     0.47585      .   S
    C1343  O2912     0.47585      .   S
    C1308  O2912     0.47585      .   S
    C1279  O2913     0.70623      .   S
    C1314  O2913     0.70623      .   S
    C1279  O2914     0.76684      .   S
    C1454  O2914     0.76684      .   S
    C1280  O2915     0.70623      .   S
    C1315  O2915     0.70623      .   S
    C1280  O2916     0.76684      .   S
    C1455  O2916     0.76684      .   S
    C1281  O2917     0.70623      .   S
    C1316  O2917     0.70623      .   S
    C1281  O2918     0.76684      .   S
    C1456  O2918     0.76684      .   S
    C1315  O2919     0.47585      .   S
    C1350  O2919     0.47585      .   S
    C1316  O2920     0.47585      .   S
    C1351  O2920     0.47585      .   S
    C1314  O2921     0.47585      .   S
    C1349  O2921     0.47585      .   S
    C1309  O2922     0.70623      .   S
    C1274  O2922     0.70623      .   S
    C1309  O2923     0.64104      .   S
    C1379  O2923     0.64104      .   S
    C1310  O2924     0.70623      .   S
    C1275  O2924     0.70623      .   S
    C1310  O2925     0.64104      .   S
    C1380  O2925     0.64104      .   S
    C1308  O2926     0.70623      .   S
    C1273  O2926     0.70623      .   S
    C1308  O2927     0.64104      .   S
    C1378  O2927     0.64104      .   S
    C1275  O2928     0.71857      .   S
    C1205  O2928     0.71857      .   S
    C1274  O2929     0.71857      .   S
    C1204  O2929     0.71857      .   S
    C1273  O2930     0.71857      .   S
    C1203  O2930     0.71857      .   S
    C1456  O2931     0.58021      .   S
    C336   O2931     0.58021  1_545   S
    C1456  O2932     0.75796      .   S
    C371   O2932     0.75796      .   S
    C1455  O2933     0.58021      .   S
    C335   O2933     0.58021      .   S
    C1455  O2934     0.75796      .   S
    C370   O2934     0.75796      .   S
    C1454  O2935     0.58021      .   S
    C334   O2935     0.58021  1_655   S
    C1454  O2936     0.75796      .   S
    C369   O2936     0.75796      .   S
    C336   O2937     0.93867      .   S
    C145   O2937     0.93867      .   S
    C335   O2938     0.93867      .   S
    C147   O2938     0.93867      .   S
    C334   O2939     0.93867      .   S
    C146   O2939     0.93867      .   S
    C1415  O2940     0.47528      .   S
    C1380  O2940     0.47528      .   S
    C1414  O2941     0.47528      .   S
    C1379  O2941     0.47528      .   S
    C1413  O2942     0.47528      .   S
    C1378  O2942     0.47528      .   S
    C371   O2943     0.90314  1_455   S
    C147   O2943     0.90314      .   S
    C369   O2944     0.90314      .   S
    C145   O2944     0.90314      .   S
    C370   O2945     0.90314  1_565   S
    C146   O2945     0.90314      .   S
    C1240  O2946     0.47466      .   S
    C1205  O2946     0.47466      .   S
    C1239  O2947     0.47466      .   S
    C1204  O2947     0.47466      .   S
    C1238  O2948     0.47466      .   S
    C1203  O2948     0.47466      .   S
    C1380  O2949     0.74374      .   S
    C1135  O2949     0.74374      .   S
    C1379  O2950     0.74374      .   S
    C1134  O2950     0.74374      .   S
    C1378  O2951     0.74374      .   S
    C1133  O2951     0.74374      .   S
    C1203  O2952     0.69257      .   S
    C1168  O2952     0.69257      .   S
    C1204  O2953     0.69257      .   S
    C1169  O2953     0.69257      .   S
    C1205  O2954     0.69257      .   S
    C1170  O2954     0.69257      .   S
    C145   O2955     0.97060      .   S
    C197   O2955     0.97060      .   S
    C146   O2956     0.97060      .   S
    C198   O2956     0.97060  1_565   S
    C147   O2957     0.97060      .   S
    C196   O2957     0.97060  1_455   S
    C1170  O2958     0.72625      .   S
    C1135  O2958     0.72625      .   S
    C1170  O2959     0.73625      .   S
    C680   O2959     0.73625      .   S
    C1168  O2960     0.72625      .   S
    C1133  O2960     0.72625      .   S
    C1168  O2961     0.73625      .   S
    C678   O2961     0.73625      .   S
    C1169  O2962     0.72625      .   S
    C1134  O2962     0.72625      .   S
    C1169  O2963     0.73625      .   S
    C679   O2963     0.73625      .   S
    C1133  O2964     0.71075  1_545   S
    C923   O2964     0.71075      .   S
    C1134  O2965     0.71075  1_655   S
    C924   O2965     0.71075      .   S
    C1135  O2966     0.71075      .   S
    C925   O2966     0.71075      .   S
    C643   O2967     0.44146      .   S
    C608   O2967     0.44146      .   S
    C644   O2968     0.44146      .   S
    C609   O2968     0.44146      .   S
    C645   O2969     0.44146      .   S
    C610   O2969     0.44146      .   S
    C198   O2970     0.94408      .   S
    C168   O2970     0.94408      .   S
    C197   O2971     0.94408      .   S
    C167   O2971     0.94408      .   S
    C196   O2972     0.94408      .   S
    C166   O2972     0.94408      .   S
    C609   O2973     0.73453      .   S
    C1099  O2973     0.73453  1_655   S
    C609   O2974     0.71569      .   S
    C889   O2974     0.71569      .   S
    C608   O2975     0.73453      .   S
    C1098  O2975     0.73453  1_545   S
    C608   O2976     0.71569      .   S
    C888   O2976     0.71569      .   S
    C610   O2977     0.73453      .   S
    C1100  O2977     0.73453      .   S
    C610   O2978     0.71569      .   S
    C890   O2978     0.71569      .   S
    C680   O2979     0.63220      .   S
    C1100  O2979     0.63220      .   S
    C680   O2980     0.44040      .   S
    C715   O2980     0.44040      .   S
    C679   O2981     0.63220      .   S
    C1099  O2981     0.63220      .   S
    C679   O2982     0.44040      .   S
    C714   O2982     0.44040      .   S
    C678   O2983     0.63220      .   S
    C1098  O2983     0.63220      .   S
    C678   O2984     0.44040      .   S
    C713   O2984     0.44040      .   S
    C925   O2985     0.71234      .   S
    C890   O2985     0.71234      .   S
    C925   O2986     0.65586      .   S
    C960   O2986     0.65586      .   S
    C924   O2987     0.71234      .   S
    C889   O2987     0.71234      .   S
    C924   O2988     0.65586      .   S
    C959   O2988     0.65586      .   S
    C923   O2989     0.71234      .   S
    C888   O2989     0.71234      .   S
    C923   O2990     0.65586      .   S
    C958   O2990     0.65586      .   S
    C1098  O2991     0.56653      .   S
    C293   O2991     0.56653      .   S
    C1099  O2992     0.56653      .   S
    C294   O2992     0.56653      .   S
    C1100  O2993     0.56653      .   S
    C295   O2993     0.56653      .   S
    C889   O2994     0.70858      .   S
    C819   O2994     0.70858      .   S
    C888   O2995     0.70858      .   S
    C818   O2995     0.70858      .   S
    C890   O2996     0.70858      .   S
    C820   O2996     0.70858      .   S
    C995   O2997     0.47349      .   S
    C960   O2997     0.47349      .   S
    C994   O2998     0.47349      .   S
    C959   O2998     0.47349      .   S
    C993   O2999     0.47349      .   S
    C958   O2999     0.47349      .   S
    C441   O3000     0.63553      .   S
    C1491  O3000     0.63553      .   S
    C439   O3001     0.63553      .   S
    C1489  O3001     0.63553      .   S
    C440   O3002     0.63553      .   S
    C1490  O3002     0.63553      .   S
    C958   O3003     0.71520      .   S
    C1028  O3003     0.71520      .   S
    C959   O3004     0.71520      .   S
    C1029  O3004     0.71520      .   S
    C960   O3005     0.71520      .   S
    C1030  O3005     0.71520      .   S
    C509   O3006     0.57416      .   S
    C2434  O3006     0.57416      .   S
    C510   O3007     0.57416      .   S
    C2435  O3007     0.57416      .   S
    C511   O3008     0.57416      .   S
    C2436  O3008     0.57416      .   S
    C818   O3009     0.47525      .   S
    C853   O3009     0.47525      .   S
    C818   O3010     0.68736      .   S
    C783   O3010     0.68736      .   S
    C820   O3011     0.47525      .   S
    C855   O3011     0.47525      .   S
    C820   O3012     0.68736      .   S
    C785   O3012     0.68736      .   S
    C819   O3013     0.47525      .   S
    C854   O3013     0.47525      .   S
    C819   O3014     0.68736      .   S
    C784   O3014     0.68736      .   S
    C1769  O3015     0.47299      .   S
    C1734  O3015     0.47299      .   S
    C1770  O3016     0.47299      .   S
    C1735  O3016     0.47299      .   S
    C1771  O3017     0.47299      .   S
    C1736  O3017     0.47299      .   S
    C1029  O3018     0.72287      .   S
    C784   O3018     0.72287      .   S
    C1029  O3019     0.47468      .   S
    C1064  O3019     0.47468      .   S
    C1028  O3020     0.72287      .   S
    C783   O3020     0.72287      .   S
    C1028  O3021     0.47468      .   S
    C1063  O3021     0.47468      .   S
    C1030  O3022     0.72287      .   S
    C785   O3022     0.72287      .   S
    C1030  O3023     0.47468      .   S
    C1065  O3023     0.47468      .   S
    C785   O3024     0.73978      .   S
    C750   O3024     0.73978      .   S
    C783   O3025     0.73978      .   S
    C748   O3025     0.73978      .   S
    C784   O3026     0.73978      .   S
    C749   O3026     0.73978      .   S
    C2436  O3027     0.74713      .   S
    C2296  O3027     0.74713      .   S
    C2436  O3028     0.73469      .   S
    C2366  O3028     0.73469      .   S
    C2435  O3029     0.74713      .   S
    C2295  O3029     0.74713      .   S
    C2435  O3030     0.73469      .   S
    C2365  O3030     0.73469      .   S
    C2434  O3031     0.74713      .   S
    C2294  O3031     0.74713      .   S
    C2434  O3032     0.73469      .   S
    C2364  O3032     0.73469      .   S
    C1490  O3033     0.62440      .   S
    C405   O3033     0.62440      .   S
    C1490  O3034     0.76076      .   S
    C1525  O3034     0.76076      .   S
    C1491  O3035     0.62440      .   S
    C406   O3035     0.62440      .   S
    C1491  O3036     0.76076      .   S
    C1526  O3036     0.76076      .   S
    C1489  O3037     0.62440      .   S
    C404   O3037     0.62440      .   S
    C1489  O3038     0.76076      .   S
    C1524  O3038     0.76076      .   S
    C1734  O3039     0.66105      .   S
    C1524  O3039     0.66105      .   S
    C1734  O3040     0.72263      .   S
    C1699  O3040     0.72263      .   S
    C1735  O3041     0.66105      .   S
    C1525  O3041     0.66105      .   S
    C1735  O3042     0.72263      .   S
    C1700  O3042     0.72263      .   S
    C1736  O3043     0.66105      .   S
    C1526  O3043     0.66105      .   S
    C1736  O3044     0.72263      .   S
    C1701  O3044     0.72263      .   S
    C2331  O3045     0.43939      .   S
    C2296  O3045     0.43939      .   S
    C2330  O3046     0.43939      .   S
    C2295  O3046     0.43939      .   S
    C2329  O3047     0.43939      .   S
    C2294  O3047     0.43939      .   S
    C2296  O3048     0.69464      .   S
    C1701  O3048     0.69464      .   S
    C2295  O3049     0.69464      .   S
    C1700  O3049     0.69464      .   S
    C2294  O3050     0.69464      .   S
    C1699  O3050     0.69464      .   S
    C749   O3051     0.61258      .   S
    C224   O3051     0.61258      .   S
    C749   O3052     0.67137      .   S
    C259   O3052     0.67137      .   S
    C750   O3053     0.61258      .   S
    C225   O3053     0.61258      .   S
    C750   O3054     0.67137      .   S
    C260   O3054     0.67137      .   S
    C748   O3055     0.61258      .   S
    C223   O3055     0.61258      .   S
    C748   O3056     0.67137      .   S
    C258   O3056     0.67137      .   S
    C1524  O3057     0.69208      .   S
    C1559  O3057     0.69208      .   S
    C1526  O3058     0.69208      .   S
    C1561  O3058     0.69208      .   S
    C1525  O3059     0.69208      .   S
    C1560  O3059     0.69208      .   S
    C2400  O3060     0.43963      .   S
    C2365  O3060     0.43963      .   S
    C2399  O3061     0.43963      .   S
    C2364  O3061     0.43963      .   S
    C2401  O3062     0.43963      .   S
    C2366  O3062     0.43963      .   S
    C225   O3063     0.95602      .   S
    C105   O3063     0.95602      .   S
    C224   O3064     0.95602      .   S
    C104   O3064     0.95602      .   S
    C223   O3065     0.95602      .   S
    C106   O3065     0.95602      .   S
    C2366  O3066     0.68343      .   S
    C2051  O3066     0.68343      .   S
    C2364  O3067     0.68343      .   S
    C2049  O3067     0.68343      .   S
    C2365  O3068     0.68343      .   S
    C2050  O3068     0.68343      .   S
    C1701  O3069     0.65693      .   S
    C1666  O3069     0.65693      .   S
    C1700  O3070     0.65693      .   S
    C1665  O3070     0.65693      .   S
    C1699  O3071     0.65693      .   S
    C1664  O3071     0.65693      .   S
    C260   O3072     0.93696      .   S
    C106   O3072     0.93696      .   S
    C259   O3073     0.93696      .   S
    C105   O3073     0.93696      .   S
    C258   O3074     0.93696      .   S
    C104   O3074     0.93696      .   S
    C1559  O3075     0.47538      .   S
    C1594  O3075     0.47538      .   S
    C1559  O3076     0.71927      .   S
    C1629  O3076     0.71927      .   S
    C1561  O3077     0.47538      .   S
    C1596  O3077     0.47538      .   S
    C1561  O3078     0.71927      .   S
    C1631  O3078     0.71927      .   S
    C1560  O3079     0.47538      .   S
    C1595  O3079     0.47538      .   S
    C1560  O3080     0.71927      .   S
    C1630  O3080     0.71927      .   S
    C106   O3081     0.96644      .   S
    C177   O3081     0.96644      .   S
    C106   O3082     0.93728      .   S
    C535   O3082     0.93728      .   S
    C105   O3083     0.93728      .   S
    C536   O3083     0.93728      .   S
    C104   O3084     0.96644      .   S
    C177   O3084     0.96644      .   S
    C104   O3085     0.93728      .   S
    C537   O3085     0.93728      .   S
    C1666  O3086     0.69090      .   S
    C1631  O3086     0.69090      .   S
    C1666  O3087     0.70758      .   S
    C1806  O3087     0.70758      .   S
    C1664  O3088     0.69090      .   S
    C1629  O3088     0.69090      .   S
    C1664  O3089     0.70758      .   S
    C1804  O3089     0.70758      .   S
    C1665  O3090     0.69090      .   S
    C1630  O3090     0.69090      .   S
    C1665  O3091     0.70758      .   S
    C1805  O3091     0.70758      .   S
    C2050  O3092     0.70761      .   S
    C1805  O3092     0.70761      .   S
    C2050  O3093     0.66931      .   S
    C1980  O3093     0.66931      .   S
    C2049  O3094     0.70761      .   S
    C1804  O3094     0.70761      .   S
    C2049  O3095     0.66931      .   S
    C1979  O3095     0.66931      .   S
    C2051  O3096     0.70761      .   S
    C1806  O3096     0.70761      .   S
    C2051  O3097     0.66931      .   S
    C1981  O3097     0.66931      .   S
    C1630  O3098     0.72430      .   S
    C2120  O3098     0.72430      .   S
    C1629  O3099     0.72430      .   S
    C2119  O3099     0.72430      .   S
    C1631  O3100     0.72430      .   S
    C2121  O3100     0.72430      .   S
    C2014  O3101     0.47401      .   S
    C1979  O3101     0.47401      .   S
    C2015  O3102     0.47401      .   S
    C1980  O3102     0.47401      .   S
    C2016  O3103     0.47401      .   S
    C1981  O3103     0.47401      .   S
    C1805  O3104     0.71781      .   S
    C1840  O3104     0.71781      .   S
    C1806  O3105     0.71781      .   S
    C1841  O3105     0.71781      .   S
    C1804  O3106     0.71781      .   S
    C1839  O3106     0.71781      .   S
    C1981  O3107     0.68738      .   S
    C1946  O3107     0.68738      .   S
    C1980  O3108     0.68738      .   S
    C1945  O3108     0.68738      .   S
    C1979  O3109     0.68738      .   S
    C1944  O3109     0.68738      .   S
    C537   O3110     0.59521      .   S
    C2077  O3110     0.59521      .   S
    C536   O3111     0.59521      .   S
    C2076  O3111     0.59521      .   S
    C535   O3112     0.59521      .   S
    C2075  O3112     0.59521      .   S
    C467   O3113     0.56083      .   S
    C2252  O3113     0.56083      .   S
    C466   O3114     0.56083      .   S
    C2251  O3114     0.56083      .   S
    C465   O3115     0.56083      .   S
    C2250  O3115     0.56083      .   S
    C2156  O3116     0.43889      .   S
    C2121  O3116     0.43889      .   S
    C2155  O3117     0.43889      .   S
    C2120  O3117     0.43889      .   S
    C2154  O3118     0.43889      .   S
    C2119  O3118     0.43889      .   S
    C2120  O3119     0.73227      .   S
    C2260  O3119     0.73227      .   S
    C2119  O3120     0.73227      .   S
    C2259  O3120     0.73227      .   S
    C2121  O3121     0.73227      .   S
    C2261  O3121     0.73227      .   S
    C1902  O3122     0.47404      .   S
    C1867  O3122     0.47404      .   S
    C1901  O3123     0.47404      .   S
    C1866  O3123     0.47404      .   S
    C1900  O3124     0.47404      .   S
    C1865  O3124     0.47404      .   S
    C2217  O3125     0.44151      .   S
    C2182  O3125     0.44151      .   S
    C2216  O3126     0.44151      .   S
    C2181  O3126     0.44151      .   S
    C2215  O3127     0.44151      .   S
    C2180  O3127     0.44151      .   S
    C1841  O3128     0.66841      .   S
    C1876  O3128     0.66841      .   S
    C1841  O3129     0.74020      .   S
    C2191  O3129     0.74020      .   S
    C1839  O3130     0.66841      .   S
    C1874  O3130     0.66841      .   S
    C1839  O3131     0.74020      .   S
    C2189  O3131     0.74020      .   S
    C1840  O3132     0.66841      .   S
    C1875  O3132     0.66841      .   S
    C1840  O3133     0.74020      .   S
    C2190  O3133     0.74020      .   S
    C1945  O3134     0.71283      .   S
    C1875  O3134     0.71283      .   S
    C1945  O3135     0.77729      .   S
    C2085  O3135     0.77729      .   S
    C1946  O3136     0.71283      .   S
    C1876  O3136     0.71283      .   S
    C1946  O3137     0.77729      .   S
    C2086  O3137     0.77729      .   S
    C1944  O3138     0.71283      .   S
    C1874  O3138     0.71283      .   S
    C1944  O3139     0.77729      .   S
    C2084  O3139     0.77729      .   S
    C2077  O3140     0.66986      .   S
    C572   O3140     0.66986      .   S
    C2077  O3141     0.77729      .   S
    C1937  O3141     0.77729      .   S
    C2076  O3142     0.66986      .   S
    C571   O3142     0.66986      .   S
    C2076  O3143     0.77729      .   S
    C1936  O3143     0.77729      .   S
    C2075  O3144     0.66986      .   S
    C570   O3144     0.66986      .   S
    C2075  O3145     0.77729      .   S
    C1935  O3145     0.77729      .   S
    C77    O3146     0.95489      .   S
    C572   O3146     0.95489      .   S
    C77    O3147     0.95489      .   S
    C571   O3147     0.95489      .   S
    C77    O3148     0.95489      .   S
    C570   O3148     0.95489      .   S
    C2252  O3149     0.72243      .   S
    C2182  O3149     0.72243      .   S
    C2252  O3150     0.73227      .   S
    C2112  O3150     0.73227      .   S
    C2251  O3151     0.72243      .   S
    C2181  O3151     0.72243      .   S
    C2251  O3152     0.73227      .   S
    C2111  O3152     0.73227      .   S
    C2250  O3153     0.72243      .   S
    C2180  O3153     0.72243      .   S
    C2250  O3154     0.73227      .   S
    C2110  O3154     0.73227      .   S
    C579   O3155     0.95489      .   S
    C74    O3155     0.95489      .   S
    C579   O3156     0.66986      .   S
    C2084  O3156     0.66986      .   S
    C580   O3157     0.95489      .   S
    C74    O3157     0.95489      .   S
    C580   O3158     0.66986      .   S
    C2085  O3158     0.66986      .   S
    C581   O3159     0.95489      .   S
    C74    O3159     0.95489      .   S
    C581   O3160     0.66986      .   S
    C2086  O3160     0.66986      .   S
    C2181  O3161     0.74020      .   S
    C1831  O3161     0.74020      .   S
    C2182  O3162     0.74020      .   S
    C1832  O3162     0.74020      .   S
    C2180  O3163     0.74020      .   S
    C1830  O3163     0.74020      .   S
    C1865  O3164     0.71283      .   S
    C1935  O3164     0.71283      .   S
    C1865  O3165     0.66841      .   S
    C1830  O3165     0.66841      .   S
    C1867  O3166     0.71283      .   S
    C1937  O3166     0.71283      .   S
    C1867  O3167     0.66841      .   S
    C1832  O3167     0.66841      .   S
    C1866  O3168     0.71283      .   S
    C1936  O3168     0.71283      .   S
    C1866  O3169     0.66841      .   S
    C1831  O3169     0.66841      .   S
    C1874  O3170     0.47404      .   S
    C1909  O3170     0.47404      .   S
    C1876  O3171     0.47404      .   S
    C1911  O3171     0.47404      .   S
    C1875  O3172     0.47404      .   S
    C1910  O3172     0.47404      .   S
    C2189  O3173     0.72243      .   S
    C2259  O3173     0.72243      .   S
    C2189  O3174     0.44151      .   S
    C2224  O3174     0.44151      .   S
    C2190  O3175     0.72243      .   S
    C2260  O3175     0.72243      .   S
    C2190  O3176     0.44151      .   S
    C2225  O3176     0.44151      .   S
    C2191  O3177     0.72243      .   S
    C2261  O3177     0.72243      .   S
    C2191  O3178     0.44151      .   S
    C2226  O3178     0.44151      .   S
    C2261  O3179     0.56083      .   S
    C476   O3179     0.56083      .   S
    C2259  O3180     0.56083      .   S
    C474   O3180     0.56083      .   S
    C2260  O3181     0.56083      .   S
    C475   O3181     0.56083      .   S
    C2084  O3182     0.59521      .   S
    C544   O3182     0.59521      .   S
    C2085  O3183     0.59521      .   S
    C545   O3183     0.59521      .   S
    C2086  O3184     0.59521      .   S
    C546   O3184     0.59521      .   S
    C1935  O3185     0.68738      .   S
    C1970  O3185     0.68738      .   S
    C1937  O3186     0.68738      .   S
    C1972  O3186     0.68738      .   S
    C1936  O3187     0.68738      .   S
    C1971  O3187     0.68738      .   S
    C1832  O3188     0.71781      .   S
    C1797  O3188     0.71781      .   S
    C1831  O3189     0.71781      .   S
    C1796  O3189     0.71781      .   S
    C1830  O3190     0.71781      .   S
    C1795  O3190     0.71781      .   S
    C2111  O3191     0.43889      .   S
    C2146  O3191     0.43889      .   S
    C2111  O3192     0.72430      .   S
    C1621  O3192     0.72430      .   S
    C2110  O3193     0.43889      .   S
    C2145  O3193     0.43889      .   S
    C2110  O3194     0.72430      .   S
    C1620  O3194     0.72430      .   S
    C2112  O3195     0.43889      .   S
    C2147  O3195     0.43889      .   S
    C2112  O3196     0.72430      .   S
    C1622  O3196     0.72430      .   S
    C544   O3197     0.93728      .   S
    C97    O3197     0.93728      .   S
    C546   O3198     0.93728      .   S
    C95    O3198     0.93728      .   S
    C545   O3199     0.93728      .   S
    C96    O3199     0.93728      .   S
    C1970  O3200     0.47401      .   S
    C2005  O3200     0.47401      .   S
    C1970  O3201     0.66931      .   S
    C2040  O3201     0.66931      .   S
    C1971  O3202     0.47401      .   S
    C2006  O3202     0.47401      .   S
    C1971  O3203     0.66931      .   S
    C2041  O3203     0.66931      .   S
    C1972  O3204     0.47401      .   S
    C2007  O3204     0.47401      .   S
    C1972  O3205     0.66931      .   S
    C2042  O3205     0.66931      .   S
    C1796  O3206     0.70761      .   S
    C2041  O3206     0.70761      .   S
    C1796  O3207     0.70758      .   S
    C1656  O3207     0.70758      .   S
    C1795  O3208     0.70761      .   S
    C2040  O3208     0.70761      .   S
    C1795  O3209     0.70758      .   S
    C1655  O3209     0.70758      .   S
    C1797  O3210     0.70761      .   S
    C2042  O3210     0.70761      .   S
    C1797  O3211     0.70758      .   S
    C1657  O3211     0.70758      .   S
    C174   O3212     0.96644      .   S
    C95    O3212     0.96644      .   S
    C174   O3213     0.96644      .   S
    C97    O3213     0.96644      .   S
    C1621  O3214     0.69090      .   S
    C1656  O3214     0.69090      .   S
    C1621  O3215     0.71927      .   S
    C1551  O3215     0.71927      .   S
    C1622  O3216     0.69090      .   S
    C1657  O3216     0.69090      .   S
    C1622  O3217     0.71927      .   S
    C1552  O3217     0.71927      .   S
    C1620  O3218     0.69090      .   S
    C1655  O3218     0.69090      .   S
    C1620  O3219     0.71927      .   S
    C1550  O3219     0.71927      .   S
    C2041  O3220     0.68343      .   S
    C2356  O3220     0.68343      .   S
    C2040  O3221     0.68343      .   S
    C2355  O3221     0.68343      .   S
    C2042  O3222     0.68343      .   S
    C2357  O3222     0.68343      .   S
    C1587  O3223     0.47538      .   S
    C1552  O3223     0.47538      .   S
    C1585  O3224     0.47538      .   S
    C1550  O3224     0.47538      .   S
    C1586  O3225     0.47538      .   S
    C1551  O3225     0.47538      .   S
    C1656  O3226     0.65693      .   S
    C1691  O3226     0.65693      .   S
    C1655  O3227     0.65693      .   S
    C1690  O3227     0.65693      .   S
    C1657  O3228     0.65693      .   S
    C1692  O3228     0.65693      .   S
    C96    O3229     0.93696      .   S
    C250   O3229     0.93696      .   S
    C96    O3230     0.95602      .   S
    C216   O3230     0.95602      .   S
    C95    O3231     0.93696      .   S
    C249   O3231     0.93696      .   S
    C95    O3232     0.95602      .   S
    C215   O3232     0.95602      .   S
    C97    O3233     0.93696      .   S
    C251   O3233     0.93696      .   S
    C97    O3234     0.95602      .   S
    C214   O3234     0.95602      .   S
    C1550  O3235     0.69208      .   S
    C1515  O3235     0.69208      .   S
    C1551  O3236     0.69208      .   S
    C1516  O3236     0.69208      .   S
    C1552  O3237     0.69208      .   S
    C1517  O3237     0.69208      .   S
    C249   O3238     0.67137      .   S
    C739   O3238     0.67137      .   S
    C250   O3239     0.67137      .   S
    C740   O3239     0.67137      .   S
    C251   O3240     0.67137      .   S
    C741   O3240     0.67137      .   S
    C1692  O3241     0.69464      .   S
    C2287  O3241     0.69464      .   S
    C1692  O3242     0.72263      .   S
    C1727  O3242     0.72263      .   S
    C1691  O3243     0.69464      .   S
    C2286  O3243     0.69464      .   S
    C1691  O3244     0.72263      .   S
    C1726  O3244     0.72263      .   S
    C1690  O3245     0.69464      .   S
    C2285  O3245     0.69464      .   S
    C1690  O3246     0.72263      .   S
    C1725  O3246     0.72263      .   S
    C2355  O3247     0.43963      .   S
    C2390  O3247     0.43963      .   S
    C2355  O3248     0.73469      .   S
    C2425  O3248     0.73469      .   S
    C2357  O3249     0.43963      .   S
    C2392  O3249     0.43963      .   S
    C2357  O3250     0.73469      .   S
    C2427  O3250     0.73469      .   S
    C2356  O3251     0.43963      .   S
    C2391  O3251     0.43963      .   S
    C2356  O3252     0.73469      .   S
    C2426  O3252     0.73469      .   S
    C214   O3253     0.61258      .   S
    C739   O3253     0.61258      .   S
    C215   O3254     0.61258      .   S
    C740   O3254     0.61258      .   S
    C216   O3255     0.61258      .   S
    C741   O3255     0.61258      .   S
    C1517  O3256     0.66105      .   S
    C1727  O3256     0.66105      .   S
    C1517  O3257     0.76076      .   S
    C1482  O3257     0.76076      .   S
    C1515  O3258     0.66105      .   S
    C1725  O3258     0.66105      .   S
    C1515  O3259     0.76076      .   S
    C1480  O3259     0.76076      .   S
    C1516  O3260     0.66105      .   S
    C1726  O3260     0.66105      .   S
    C1516  O3261     0.76076      .   S
    C1481  O3261     0.76076      .   S
    C740   O3262     0.73978      .   S
    C775   O3262     0.73978      .   S
    C741   O3263     0.73978      .   S
    C776   O3263     0.73978      .   S
    C739   O3264     0.73978      .   S
    C774   O3264     0.73978      .   S
    C395   O3265     0.62440      .   S
    C1480  O3265     0.62440      .   S
    C396   O3266     0.62440      .   S
    C1481  O3266     0.62440      .   S
    C397   O3267     0.62440      .   S
    C1482  O3267     0.62440      .   S
    C2285  O3268     0.43939      .   S
    C2320  O3268     0.43939      .   S
    C2285  O3269     0.74713      .   S
    C2425  O3269     0.74713      .   S
    C2286  O3270     0.43939      .   S
    C2321  O3270     0.43939      .   S
    C2286  O3271     0.74713      .   S
    C2426  O3271     0.74713      .   S
    C2287  O3272     0.43939      .   S
    C2322  O3272     0.43939      .   S
    C2287  O3273     0.74713      .   S
    C2427  O3273     0.74713      .   S
    C1727  O3274     0.47299      .   S
    C1762  O3274     0.47299      .   S
    C1726  O3275     0.47299      .   S
    C1761  O3275     0.47299      .   S
    C1725  O3276     0.47299      .   S
    C1760  O3276     0.47299      .   S
    C1481  O3277     0.63553      .   S
    C431   O3277     0.63553      .   S
    C1480  O3278     0.63553      .   S
    C430   O3278     0.63553      .   S
    C1482  O3279     0.63553      .   S
    C432   O3279     0.63553      .   S
    C2425  O3280     0.57416      .   S
    C500   O3280     0.57416      .   S
    C2427  O3281     0.57416      .   S
    C502   O3281     0.57416      .   S
    C2426  O3282     0.57416      .   S
    C501   O3282     0.57416      .   S
    C1054  O3283     0.47468      .   S
    C1019  O3283     0.47468      .   S
    C1055  O3284     0.47468      .   S
    C1020  O3284     0.47468      .   S
    C1056  O3285     0.47468      .   S
    C1021  O3285     0.47468      .   S
    C776   O3286     0.72287      .   S
    C1021  O3286     0.72287      .   S
    C776   O3287     0.68736      .   S
    C811   O3287     0.68736      .   S
    C775   O3288     0.72287      .   S
    C1020  O3288     0.72287      .   S
    C775   O3289     0.68736      .   S
    C810   O3289     0.68736      .   S
    C774   O3290     0.72287      .   S
    C1019  O3290     0.72287      .   S
    C774   O3291     0.68736      .   S
    C809   O3291     0.68736      .   S
    C161   O3292     0.94408      .   S
    C191   O3292     0.94408      .   S
    C160   O3293     0.94408      .   S
    C190   O3293     0.94408      .   S
    C159   O3294     0.94408      .   S
    C189   O3294     0.94408      .   S
    C1020  O3295     0.71520      .   S
    C950   O3295     0.71520      .   S
    C1019  O3296     0.71520      .   S
    C949   O3296     0.71520      .   S
    C1021  O3297     0.71520      .   S
    C951   O3297     0.71520      .   S
    C846   O3298     0.47525      .   S
    C811   O3298     0.47525      .   S
    C845   O3299     0.47525      .   S
    C810   O3299     0.47525      .   S
    C844   O3300     0.47525      .   S
    C809   O3300     0.47525      .   S
    C811   O3301     0.70858      .   S
    C881   O3301     0.70858      .   S
    C810   O3302     0.70858      .   S
    C880   O3302     0.70858      .   S
    C809   O3303     0.70858      .   S
    C879   O3303     0.70858      .   S
    C951   O3304     0.47349      .   S
    C986   O3304     0.47349      .   S
    C951   O3305     0.65586      .   S
    C916   O3305     0.65586      .   S
    C950   O3306     0.47349      .   S
    C985   O3306     0.47349      .   S
    C950   O3307     0.65586      .   S
    C915   O3307     0.65586      .   S
    C949   O3308     0.47349      .   S
    C984   O3308     0.47349      .   S
    C949   O3309     0.65586      .   S
    C914   O3309     0.65586      .   S
    C706   O3310     0.44040      .   S
    C671   O3310     0.44040      .   S
    C704   O3311     0.44040      .   S
    C669   O3311     0.44040      .   S
    C705   O3312     0.44040      .   S
    C670   O3312     0.44040      .   S
    C879   O3313     0.71234      .   S
    C914   O3313     0.71234      .   S
    C879   O3314     0.71569      .   S
    C599   O3314     0.71569      .   S
    C880   O3315     0.71234      .   S
    C915   O3315     0.71234      .   S
    C880   O3316     0.71569      .   S
    C600   O3316     0.71569      .   S
    C881   O3317     0.71234      .   S
    C916   O3317     0.71234      .   S
    C881   O3318     0.71569      .   S
    C601   O3318     0.71569      .   S
    C284   O3319     0.56653      .   S
    C1089  O3319     0.56653      .   S
    C286   O3320     0.56653      .   S
    C1091  O3320     0.56653      .   S
    C285   O3321     0.56653      .   S
    C1090  O3321     0.56653      .   S
    C1091  O3322     0.63220      .   S
    C671   O3322     0.63220      .   S
    C1091  O3323     0.73453      .   S
    C601   O3323     0.73453      .   S
    C1090  O3324     0.63220      .   S
    C670   O3324     0.63220      .   S
    C1090  O3325     0.73453  1_565   S
    C600   O3325     0.73453      .   S
    C1089  O3326     0.63220      .   S
    C669   O3326     0.63220      .   S
    C1089  O3327     0.73453  1_455   S
    C599   O3327     0.73453      .   S
    C915   O3328     0.71075      .   S
    C1125  O3328     0.71075  1_565   S
    C914   O3329     0.71075      .   S
    C1124  O3329     0.71075  1_455   S
    C916   O3330     0.71075      .   S
    C1126  O3330     0.71075      .   S
    C671   O3331     0.73625      .   S
    C1161  O3331     0.73625      .   S
    C670   O3332     0.73625      .   S
    C1160  O3332     0.73625      .   S
    C669   O3333     0.73625      .   S
    C1159  O3333     0.73625      .   S
    C599   O3334     0.44146      .   S
    C634   O3334     0.44146      .   S
    C600   O3335     0.44146      .   S
    C635   O3335     0.44146      .   S
    C601   O3336     0.44146      .   S
    C636   O3336     0.44146      .   S
    C190   O3337     0.97060      .   S
    C136   O3337     0.97060      .   S
    C189   O3338     0.97060  1_545   S
    C138   O3338     0.97060      .   S
    C191   O3339     0.97060  1_655   S
    C137   O3339     0.97060      .   S
    C1124  O3340     0.72625      .   S
    C1159  O3340     0.72625      .   S
    C1124  O3341     0.74374      .   S
    C1369  O3341     0.74374      .   S
    C1125  O3342     0.72625      .   S
    C1160  O3342     0.72625      .   S
    C1125  O3343     0.74374      .   S
    C1370  O3343     0.74374      .   S
    C1126  O3344     0.72625      .   S
    C1161  O3344     0.72625      .   S
    C1126  O3345     0.74374      .   S
    C1371  O3345     0.74374      .   S
    C1161  O3346     0.69257      .   S
    C1196  O3346     0.69257      .   S
    C1160  O3347     0.69257      .   S
    C1195  O3347     0.69257      .   S
    C1159  O3348     0.69257      .   S
    C1194  O3348     0.69257      .   S
    C137   O3349     0.90314      .   S
    C361   O3349     0.90314  1_655   S
    C137   O3350     0.93867      .   S
    C325   O3350     0.93867      .   S
    C136   O3351     0.90314      .   S
    C360   O3351     0.90314      .   S
    C136   O3352     0.93867      .   S
    C327   O3352     0.93867      .   S
    C138   O3353     0.90314      .   S
    C362   O3353     0.90314  1_545   S
    C138   O3354     0.93867      .   S
    C326   O3354     0.93867      .   S
    C1195  O3355     0.47466      .   S
    C1230  O3355     0.47466      .   S
    C1195  O3356     0.71857      .   S
    C1265  O3356     0.71857      .   S
    C1196  O3357     0.47466      .   S
    C1231  O3357     0.47466      .   S
    C1196  O3358     0.71857      .   S
    C1266  O3358     0.71857      .   S
    C1194  O3359     0.47466      .   S
    C1229  O3359     0.47466      .   S
    C1194  O3360     0.71857      .   S
    C1264  O3360     0.71857      .   S
    C1371  O3361     0.47528      .   S
    C1406  O3361     0.47528      .   S
    C1371  O3362     0.64104      .   S
    C1301  O3362     0.64104      .   S
    C1370  O3363     0.47528      .   S
    C1405  O3363     0.47528      .   S
    C1370  O3364     0.64104      .   S
    C1300  O3364     0.64104      .   S
    C1369  O3365     0.47528      .   S
    C1404  O3365     0.47528      .   S
    C1369  O3366     0.64104      .   S
    C1299  O3366     0.64104      .   S
    C360   O3367     0.75796      .   S
    C1445  O3367     0.75796      .   S
    C361   O3368     0.75796      .   S
    C1446  O3368     0.75796      .   S
    C362   O3369     0.75796      .   S
    C1447  O3369     0.75796      .   S
    C325   O3370     0.58021  1_565   S
    C1445  O3370     0.58021      .   S
    C326   O3371     0.58021      .   S
    C1446  O3371     0.58021      .   S
    C327   O3372     0.58021  1_455   S
    C1447  O3372     0.58021      .   S
    C1447  O3373     0.76684      .   S
    C1272  O3373     0.76684      .   S
    C1446  O3374     0.76684      .   S
    C1271  O3374     0.76684      .   S
    C1445  O3375     0.76684      .   S
    C1270  O3375     0.76684      .   S
    C1340  O3376     0.47585      .   S
    C1305  O3376     0.47585      .   S
    C1341  O3377     0.47585      .   S
    C1306  O3377     0.47585      .   S
    C1342  O3378     0.47585      .   S
    C1307  O3378     0.47585      .   S
    C1264  O3379     0.70623      .   S
    C1299  O3379     0.70623      .   S
    C1264  O3380     0.76684      .   S
    C1439  O3380     0.76684      .   S
    C1265  O3381     0.70623      .   S
    C1300  O3381     0.70623      .   S
    C1265  O3382     0.76684      .   S
    C1440  O3382     0.76684      .   S
    C1266  O3383     0.70623      .   S
    C1301  O3383     0.70623      .   S
    C1266  O3384     0.76684      .   S
    C1441  O3384     0.76684      .   S
    C1299  O3385     0.47585      .   S
    C1334  O3385     0.47585      .   S
    C1300  O3386     0.47585      .   S
    C1335  O3386     0.47585      .   S
    C1301  O3387     0.47585      .   S
    C1336  O3387     0.47585      .   S
    C1306  O3388     0.70623      .   S
    C1271  O3388     0.70623      .   S
    C1306  O3389     0.64104      .   S
    C1376  O3389     0.64104      .   S
    C1305  O3390     0.70623      .   S
    C1270  O3390     0.70623      .   S
    C1305  O3391     0.64104      .   S
    C1375  O3391     0.64104      .   S
    C1307  O3392     0.70623      .   S
    C1272  O3392     0.70623      .   S
    C1307  O3393     0.64104      .   S
    C1377  O3393     0.64104      .   S
    C1272  O3394     0.71857      .   S
    C1202  O3394     0.71857      .   S
    C1270  O3395     0.71857      .   S
    C1200  O3395     0.71857      .   S
    C1271  O3396     0.71857      .   S
    C1201  O3396     0.71857      .   S
    C1440  O3397     0.58021      .   S
    C320   O3397     0.58021      .   S
    C1440  O3398     0.75796      .   S
    C355   O3398     0.75796      .   S
    C1439  O3399     0.58021      .   S
    C319   O3399     0.58021      .   S
    C1439  O3400     0.75796      .   S
    C354   O3400     0.75796      .   S
    C1441  O3401     0.58021      .   S
    C321   O3401     0.58021      .   S
    C1441  O3402     0.75796      .   S
    C356   O3402     0.75796      .   S
    C321   O3403     0.93867      .   S
    C130   O3403     0.93867      .   S
    C319   O3404     0.93867      .   S
    C131   O3404     0.93867      .   S
    C320   O3405     0.93867      .   S
    C132   O3405     0.93867      .   S
    C1410  O3406     0.47528      .   S
    C1375  O3406     0.47528      .   S
    C1412  O3407     0.47528      .   S
    C1377  O3407     0.47528      .   S
    C1411  O3408     0.47528      .   S
    C1376  O3408     0.47528      .   S
    C354   O3409     0.90314      .   S
    C130   O3409     0.90314      .   S
    C356   O3410     0.90314      .   S
    C132   O3410     0.90314      .   S
    C355   O3411     0.90314      .   S
    C131   O3411     0.90314      .   S
    C1235  O3412     0.47466  1_565   S
    C1200  O3412     0.47466      .   S
    C1236  O3413     0.47466      .   S
    C1201  O3413     0.47466      .   S
    C1237  O3414     0.47466  1_455   S
    C1202  O3414     0.47466      .   S
    C1375  O3415     0.74374      .   S
    C1130  O3415     0.74374      .   S
    C1376  O3416     0.74374      .   S
    C1131  O3416     0.74374      .   S
    C1377  O3417     0.74374      .   S
    C1132  O3417     0.74374      .   S
    C1201  O3418     0.69257      .   S
    C1166  O3418     0.69257      .   S
    C1202  O3419     0.69257      .   S
    C1167  O3419     0.69257      .   S
    C1200  O3420     0.69257      .   S
    C1165  O3420     0.69257      .   S
    C130   O3421     0.98052      .   S
    C425   O3421     0.98052      .   S
    C131   O3422     0.98052      .   S
    C426   O3422     0.98052      .   S
    C132   O3423     0.97060      .   S
    C187   O3423     0.97060      .   S
    C132   O3424     0.98052      .   S
    C424   O3424     0.98052      .   S
    C1167  O3425     0.72625      .   S
    C1132  O3425     0.72625      .   S
    C1167  O3426     0.73625      .   S
    C677   O3426     0.73625      .   S
    C1166  O3427     0.72625      .   S
    C1131  O3427     0.72625      .   S
    C1166  O3428     0.73625      .   S
    C676   O3428     0.73625      .   S
    C1165  O3429     0.72625      .   S
    C1130  O3429     0.72625      .   S
    C1165  O3430     0.73625      .   S
    C675   O3430     0.73625      .   S
    C1130  O3431     0.71075      .   S
    C920   O3431     0.71075      .   S
    C1131  O3432     0.71075      .   S
    C921   O3432     0.71075      .   S
    C1132  O3433     0.71075      .   S
    C922   O3433     0.71075      .   S
    C641   O3434     0.44146      .   S
    C606   O3434     0.44146      .   S
    C640   O3435     0.44146      .   S
    C605   O3435     0.44146      .   S
    C642   O3436     0.44146      .   S
    C607   O3436     0.44146      .   S
    C187   O3437     0.94408      .   S
    C157   O3437     0.94408      .   S
    C606   O3438     0.73453      .   S
    C1096  O3438     0.73453      .   S
    C606   O3439     0.71569      .   S
    C886   O3439     0.71569      .   S
    C607   O3440     0.73453      .   S
    C1097  O3440     0.73453      .   S
    C607   O3441     0.71569      .   S
    C887   O3441     0.71569      .   S
    C605   O3442     0.73453      .   S
    C1095  O3442     0.73453      .   S
    C605   O3443     0.71569      .   S
    C885   O3443     0.71569      .   S
    C676   O3444     0.63220      .   S
    C1096  O3444     0.63220      .   S
    C676   O3445     0.44040      .   S
    C711   O3445     0.44040      .   S
    C675   O3446     0.63220      .   S
    C1095  O3446     0.63220      .   S
    C675   O3447     0.44040  1_545   S
    C710   O3447     0.44040      .   S
    C677   O3448     0.63220      .   S
    C1097  O3448     0.63220      .   S
    C677   O3449     0.44040  1_655   S
    C712   O3449     0.44040      .   S
    C921   O3450     0.71234      .   S
    C886   O3450     0.71234      .   S
    C921   O3451     0.65586      .   S
    C956   O3451     0.65586      .   S
    C920   O3452     0.71234      .   S
    C885   O3452     0.71234      .   S
    C920   O3453     0.65586      .   S
    C955   O3453     0.65586      .   S
    C922   O3454     0.71234      .   S
    C887   O3454     0.71234      .   S
    C922   O3455     0.65586      .   S
    C957   O3455     0.65586      .   S
    C1097  O3456     0.56653  1_655   S
    C292   O3456     0.56653      .   S
    C1095  O3457     0.56653  1_545   S
    C290   O3457     0.56653      .   S
    C1096  O3458     0.56653      .   S
    C291   O3458     0.56653      .   S
    C887   O3459     0.70858      .   S
    C817   O3459     0.70858      .   S
    C886   O3460     0.70858      .   S
    C816   O3460     0.70858      .   S
    C885   O3461     0.70858      .   S
    C815   O3461     0.70858      .   S
    C990   O3462     0.47349      .   S
    C955   O3462     0.47349      .   S
    C992   O3463     0.47349      .   S
    C957   O3463     0.47349      .   S
    C991   O3464     0.47349      .   S
    C956   O3464     0.47349      .   S
    C426   O3465     0.63553      .   S
    C1476  O3465     0.63553      .   S
    C425   O3466     0.63553      .   S
    C1475  O3466     0.63553      .   S
    C424   O3467     0.63553      .   S
    C1474  O3467     0.63553      .   S
    C955   O3468     0.71520      .   S
    C1025  O3468     0.71520      .   S
    C957   O3469     0.71520      .   S
    C1027  O3469     0.71520      .   S
    C956   O3470     0.71520      .   S
    C1026  O3470     0.71520      .   S
    C496   O3471     0.57416      .   S
    C2421  O3471     0.57416      .   S
    C495   O3472     0.57416      .   S
    C2420  O3472     0.57416      .   S
    C494   O3473     0.57416      .   S
    C2419  O3473     0.57416      .   S
    C817   O3474     0.47525      .   S
    C852   O3474     0.47525      .   S
    C817   O3475     0.68736      .   S
    C782   O3475     0.68736      .   S
    C816   O3476     0.47525      .   S
    C851   O3476     0.47525      .   S
    C816   O3477     0.68736      .   S
    C781   O3477     0.68736      .   S
    C815   O3478     0.47525      .   S
    C850   O3478     0.47525      .   S
    C815   O3479     0.68736      .   S
    C780   O3479     0.68736      .   S
    C1755  O3480     0.47299      .   S
    C1720  O3480     0.47299      .   S
    C1754  O3481     0.47299      .   S
    C1719  O3481     0.47299      .   S
    C1756  O3482     0.47299      .   S
    C1721  O3482     0.47299      .   S
    C1027  O3483     0.72287      .   S
    C782   O3483     0.72287      .   S
    C1027  O3484     0.47468      .   S
    C1062  O3484     0.47468      .   S
    C1026  O3485     0.72287      .   S
    C781   O3485     0.72287      .   S
    C1026  O3486     0.47468      .   S
    C1061  O3486     0.47468      .   S
    C1025  O3487     0.72287      .   S
    C780   O3487     0.72287      .   S
    C1025  O3488     0.47468      .   S
    C1060  O3488     0.47468      .   S
    C157   O3489     0.96427      .   S
    C390   O3489     0.96427      .   S
    C157   O3490     0.96449      .   S
    C389   O3490     0.96449      .   S
    C157   O3491     0.96534      .   S
    C391   O3491     0.96534      .   S
    C781   O3492     0.73978      .   S
    C746   O3492     0.73978      .   S
    C782   O3493     0.73978      .   S
    C747   O3493     0.73978      .   S
    C780   O3494     0.73978      .   S
    C745   O3494     0.73978      .   S
    C2420  O3495     0.74713      .   S
    C2280  O3495     0.74713      .   S
    C2420  O3496     0.73469      .   S
    C2350  O3496     0.73469      .   S
    C2421  O3497     0.74713      .   S
    C2281  O3497     0.74713      .   S
    C2421  O3498     0.73469      .   S
    C2351  O3498     0.73469      .   S
    C2419  O3499     0.74713      .   S
    C2279  O3499     0.74713      .   S
    C2419  O3500     0.73469      .   S
    C2349  O3500     0.73469      .   S
    C1474  O3501     0.62440      .   S
    C389   O3501     0.62440      .   S
    C1474  O3502     0.76076      .   S
    C1509  O3502     0.76076      .   S
    C1475  O3503     0.62440      .   S
    C390   O3503     0.62440      .   S
    C1475  O3504     0.76076      .   S
    C1510  O3504     0.76076      .   S
    C1476  O3505     0.62440      .   S
    C391   O3505     0.62440      .   S
    C1476  O3506     0.76076      .   S
    C1511  O3506     0.76076      .   S
    C1719  O3507     0.66105      .   S
    C1509  O3507     0.66105      .   S
    C1719  O3508     0.72263      .   S
    C1684  O3508     0.72263      .   S
    C1721  O3509     0.66105      .   S
    C1511  O3509     0.66105      .   S
    C1721  O3510     0.72263      .   S
    C1686  O3510     0.72263      .   S
    C1720  O3511     0.66105      .   S
    C1510  O3511     0.66105      .   S
    C1720  O3512     0.72263      .   S
    C1685  O3512     0.72263      .   S
    C2314  O3513     0.43939      .   S
    C2279  O3513     0.43939      .   S
    C2315  O3514     0.43939      .   S
    C2280  O3514     0.43939      .   S
    C2316  O3515     0.43939      .   S
    C2281  O3515     0.43939      .   S
    C2281  O3516     0.69464      .   S
    C1686  O3516     0.69464      .   S
    C2280  O3517     0.69464      .   S
    C1685  O3517     0.69464      .   S
    C2279  O3518     0.69464      .   S
    C1684  O3518     0.69464      .   S
    C745   O3519     0.61258      .   S
    C220   O3519     0.61258      .   S
    C745   O3520     0.67137      .   S
    C255   O3520     0.67137      .   S
    C747   O3521     0.61258      .   S
    C222   O3521     0.61258      .   S
    C747   O3522     0.67137      .   S
    C257   O3522     0.67137      .   S
    C746   O3523     0.61258      .   S
    C221   O3523     0.61258      .   S
    C746   O3524     0.67137      .   S
    C256   O3524     0.67137      .   S
    C1511  O3525     0.69208      .   S
    C1546  O3525     0.69208      .   S
    C1510  O3526     0.69208      .   S
    C1545  O3526     0.69208      .   S
    C1509  O3527     0.69208      .   S
    C1544  O3527     0.69208      .   S
    C2385  O3528     0.43963      .   S
    C2350  O3528     0.43963      .   S
    C2386  O3529     0.43963      .   S
    C2351  O3529     0.43963      .   S
    C2384  O3530     0.43963      .   S
    C2349  O3530     0.43963      .   S
    C220   O3531     0.95602      .   S
    C103   O3531     0.95602      .   S
    C222   O3532     0.95602      .   S
    C102   O3532     0.95602      .   S
    C221   O3533     0.95602      .   S
    C101   O3533     0.95602      .   S
    C2350  O3534     0.68343      .   S
    C2035  O3534     0.68343      .   S
    C2351  O3535     0.68343      .   S
    C2036  O3535     0.68343      .   S
    C2349  O3536     0.68343      .   S
    C2034  O3536     0.68343      .   S
    C1685  O3537     0.65693      .   S
    C1650  O3537     0.65693      .   S
    C1684  O3538     0.65693      .   S
    C1649  O3538     0.65693      .   S
    C1686  O3539     0.65693      .   S
    C1651  O3539     0.65693      .   S
    C255   O3540     0.93696      .   S
    C101   O3540     0.93696      .   S
    C256   O3541     0.93696      .   S
    C102   O3541     0.93696      .   S
    C257   O3542     0.93696      .   S
    C103   O3542     0.93696      .   S
    C1545  O3543     0.47538      .   S
    C1580  O3543     0.47538      .   S
    C1545  O3544     0.71927      .   S
    C1615  O3544     0.71927      .   S
    C1544  O3545     0.47538      .   S
    C1579  O3545     0.47538      .   S
    C1544  O3546     0.71927      .   S
    C1614  O3546     0.71927      .   S
    C1546  O3547     0.47538      .   S
    C1581  O3547     0.47538      .   S
    C1546  O3548     0.71927      .   S
    C1616  O3548     0.71927      .   S
    C101   O3549     0.96644      .   S
    C176   O3549     0.96644      .   S
    C101   O3550     0.93728      .   S
    C516   O3550     0.93728      .   S
    C102   O3551     0.93728      .   S
    C515   O3551     0.93728      .   S
    C103   O3552     0.96644      .   S
    C176   O3552     0.96644      .   S
    C103   O3553     0.93728      .   S
    C15    O3553     0.93728      .   S
    C1650  O3554     0.69090      .   S
    C1615  O3554     0.69090      .   S
    C1650  O3555     0.70758      .   S
    C1790  O3555     0.70758      .   S
    C1649  O3556     0.69090      .   S
    C1614  O3556     0.69090      .   S
    C1649  O3557     0.70758      .   S
    C1789  O3557     0.70758      .   S
    C1651  O3558     0.69090      .   S
    C1616  O3558     0.69090      .   S
    C1651  O3559     0.70758      .   S
    C1791  O3559     0.70758      .   S
    C2035  O3560     0.70761      .   S
    C1790  O3560     0.70761      .   S
    C2035  O3561     0.66931      .   S
    C1965  O3561     0.66931      .   S
    C2034  O3562     0.70761      .   S
    C1789  O3562     0.70761      .   S
    C2034  O3563     0.66931      .   S
    C1964  O3563     0.66931      .   S
    C2036  O3564     0.70761      .   S
    C1791  O3564     0.70761      .   S
    C2036  O3565     0.66931      .   S
    C1966  O3565     0.66931      .   S
    C1616  O3566     0.72430      .   S
    C2106  O3566     0.72430      .   S
    C1615  O3567     0.72430      .   S
    C2105  O3567     0.72430      .   S
    C1614  O3568     0.72430      .   S
    C2104  O3568     0.72430      .   S
    C2001  O3569     0.47401      .   S
    C1966  O3569     0.47401      .   S
    C2000  O3570     0.47401      .   S
    C1965  O3570     0.47401      .   S
    C1999  O3571     0.47401      .   S
    C1964  O3571     0.47401      .   S
    C1791  O3572     0.71781      .   S
    C1826  O3572     0.71781      .   S
    C1790  O3573     0.71781      .   S
    C1825  O3573     0.71781      .   S
    C1789  O3574     0.71781      .   S
    C1824  O3574     0.71781      .   S
    C1964  O3575     0.68738      .   S
    C1929  O3575     0.68738      .   S
    C1966  O3576     0.68738      .   S
    C1931  O3576     0.68738      .   S
    C1965  O3577     0.68738      .   S
    C1930  O3577     0.68738      .   S
    C15    O3578     0.59521      .   S
    C59    O3578     0.59521      .   S
    C516   O3579     0.59521      .   S
    C2056  O3579     0.59521      .   S
    C515   O3580     0.59521      .   S
    C2055  O3580     0.59521      .   S
    C13    O3581     0.56083      .   S
    C64    O3581     0.56083      .   S
    C445   O3582     0.56083      .   S
    C2230  O3582     0.56083      .   S
    C446   O3583     0.56083      .   S
    C2231  O3583     0.56083      .   S
    C2141  O3584     0.43889      .   S
    C2106  O3584     0.43889      .   S
    C2139  O3585     0.43889      .   S
    C2104  O3585     0.43889      .   S
    C2140  O3586     0.43889      .   S
    C2105  O3586     0.43889      .   S
    C2104  O3587     0.73227      .   S
    C2244  O3587     0.73227      .   S
    C2105  O3588     0.73227      .   S
    C2245  O3588     0.73227      .   S
    C2106  O3589     0.73227      .   S
    C2246  O3589     0.73227      .   S
    C54    O3590     0.47404      .   S
    C53    O3590     0.47404      .   S
    C1881  O3591     0.47404      .   S
    C1846  O3591     0.47404      .   S
    C1880  O3592     0.47404      .   S
    C1845  O3592     0.47404      .   S
    C2196  O3593     0.44151      .   S
    C2161  O3593     0.44151      .   S
    C63    O3594     0.44151      .   S
    C62    O3594     0.44151      .   S
    C2195  O3595     0.44151      .   S
    C2160  O3595     0.44151      .   S
    C1826  O3596     0.66841      .   S
    C1861  O3596     0.66841      .   S
    C1826  O3597     0.74020      .   S
    C2176  O3597     0.74020      .   S
    C1824  O3598     0.66841      .   S
    C1859  O3598     0.66841      .   S
    C1824  O3599     0.74020      .   S
    C2174  O3599     0.74020      .   S
    C1825  O3600     0.66841      .   S
    C1860  O3600     0.66841      .   S
    C1825  O3601     0.74020      .   S
    C2175  O3601     0.74020      .   S
    C1931  O3602     0.71283      .   S
    C1861  O3602     0.71283      .   S
    C1931  O3603     0.77729      .   S
    C2071  O3603     0.77729      .   S
    C1929  O3604     0.71283      .   S
    C1859  O3604     0.71283      .   S
    C1929  O3605     0.77729      .   S
    C2069  O3605     0.77729      .   S
    C1930  O3606     0.71283      .   S
    C1860  O3606     0.71283      .   S
    C1930  O3607     0.77729      .   S
    C2070  O3607     0.77729      .   S
    C59    O3608     0.66986      .   S
    C16    O3608     0.66986      .   S
    C59    O3609     0.77729      .   S
    C55    O3609     0.77729      .   S
    C2055  O3610     0.66986      .   S
    C550   O3610     0.66986      .   S
    C2055  O3611     0.77729      .   S
    C1915  O3611     0.77729      .   S
    C2056  O3612     0.66986      .   S
    C551   O3612     0.66986      .   S
    C2056  O3613     0.77729      .   S
    C1916  O3613     0.77729      .   S
    C76    O3614     0.95489      .   S
    C16    O3614     0.95489      .   S
    C76    O3615     0.95489      .   S
    C551   O3615     0.95489      .   S
    C76    O3616     0.95489      .   S
    C550   O3616     0.95489      .   S
    C64    O3617     0.72243      .   S
    C62    O3617     0.72243      .   S
    C64    O3618     0.73227      .   S
    C60    O3618     0.73227      .   S
    C2230  O3619     0.72243      .   S
    C2160  O3619     0.72243      .   S
    C2230  O3620     0.73227      .   S
    C2090  O3620     0.73227      .   S
    C2231  O3621     0.72243      .   S
    C2161  O3621     0.72243      .   S
    C2231  O3622     0.73227      .   S
    C2091  O3622     0.73227      .   S
    C566   O3623     0.95489      .   S
    C71    O3623     0.95489  1_545   S
    C566   O3624     0.66986      .   S
    C2071  O3624     0.66986      .   S
    C565   O3625     0.95489      .   S
    C71    O3625     0.95489      .   S
    C565   O3626     0.66986      .   S
    C2070  O3626     0.66986      .   S
    C564   O3627     0.95489      .   S
    C71    O3627     0.95489  1_445   S
    C564   O3628     0.66986      .   S
    C2069  O3628     0.66986      .   S
    C2161  O3629     0.74020      .   S
    C1811  O3629     0.74020      .   S
    C2160  O3630     0.74020      .   S
    C1810  O3630     0.74020  1_655   S
    C62    O3631     0.74020      .   S
    C52    O3631     0.74020  1_545   S
    C53    O3632     0.71283      .   S
    C55    O3632     0.71283      .   S
    C53    O3633     0.66841      .   S
    C52    O3633     0.66841      .   S
    C1845  O3634     0.71283      .   S
    C1915  O3634     0.71283      .   S
    C1845  O3635     0.66841      .   S
    C1810  O3635     0.66841      .   S
    C1846  O3636     0.71283      .   S
    C1916  O3636     0.71283      .   S
    C1846  O3637     0.66841      .   S
    C1811  O3637     0.66841      .   S
    C1859  O3638     0.47404      .   S
    C1894  O3638     0.47404      .   S
    C1860  O3639     0.47404      .   S
    C1895  O3639     0.47404      .   S
    C1861  O3640     0.47404      .   S
    C1896  O3640     0.47404      .   S
    C2174  O3641     0.72243      .   S
    C2244  O3641     0.72243      .   S
    C2174  O3642     0.44151      .   S
    C2209  O3642     0.44151      .   S
    C2175  O3643     0.72243      .   S
    C2245  O3643     0.72243      .   S
    C2175  O3644     0.44151      .   S
    C2210  O3644     0.44151      .   S
    C2176  O3645     0.72243      .   S
    C2246  O3645     0.72243      .   S
    C2176  O3646     0.44151      .   S
    C2211  O3646     0.44151      .   S
    C2246  O3647     0.56083      .   S
    C461   O3647     0.56083      .   S
    C2245  O3648     0.56083      .   S
    C460   O3648     0.56083      .   S
    C2244  O3649     0.56083      .   S
    C459   O3649     0.56083      .   S
    C2071  O3650     0.59521      .   S
    C531   O3650     0.59521      .   S
    C2070  O3651     0.59521      .   S
    C530   O3651     0.59521      .   S
    C2069  O3652     0.59521      .   S
    C529   O3652     0.59521      .   S
    C55    O3653     0.68738      .   S
    C56    O3653     0.68738      .   S
    C1916  O3654     0.68738      .   S
    C1951  O3654     0.68738      .   S
    C1915  O3655     0.68738      .   S
    C1950  O3655     0.68738      .   S
    C52    O3656     0.71781      .   S
    C51    O3656     0.71781      .   S
    C1810  O3657     0.71781      .   S
    C1775  O3657     0.71781      .   S
    C1811  O3658     0.71781      .   S
    C1776  O3658     0.71781      .   S
    C2090  O3659     0.43889      .   S
    C2125  O3659     0.43889      .   S
    C2090  O3660     0.72430      .   S
    C1600  O3660     0.72430      .   S
    C2091  O3661     0.43889      .   S
    C2126  O3661     0.43889      .   S
    C2091  O3662     0.72430      .   S
    C1601  O3662     0.72430      .   S
    C60    O3663     0.43889      .   S
    C61    O3663     0.43889      .   S
    C60    O3664     0.72430      .   S
    C46    O3664     0.72430      .   S
    C530   O3665     0.93728      .   S
    C87    O3665     0.93728      .   S
    C529   O3666     0.93728      .   S
    C88    O3666     0.93728      .   S
    C531   O3667     0.93728      .   S
    C86    O3667     0.93728      .   S
    C1951  O3668     0.47401      .   S
    C1986  O3668     0.47401      .   S
    C1951  O3669     0.66931      .   S
    C2021  O3669     0.66931      .   S
    C1950  O3670     0.47401      .   S
    C1985  O3670     0.47401      .   S
    C1950  O3671     0.66931      .   S
    C2020  O3671     0.66931      .   S
    C56    O3672     0.47401      .   S
    C57    O3672     0.47401      .   S
    C56    O3673     0.66931      .   S
    C58    O3673     0.66931      .   S
    C1775  O3674     0.70761      .   S
    C2020  O3674     0.70761      .   S
    C1775  O3675     0.70758  1_655   S
    C1635  O3675     0.70758      .   S
    C1776  O3676     0.70761      .   S
    C2021  O3676     0.70761      .   S
    C1776  O3677     0.70758      .   S
    C1636  O3677     0.70758      .   S
    C51    O3678     0.70761      .   S
    C58    O3678     0.70761      .   S
    C51    O3679     0.70758  1_545   S
    C47    O3679     0.70758      .   S
    C171   O3680     0.96644  1_545   S
    C86    O3680     0.96644      .   S
    C171   O3681     0.96644      .   S
    C87    O3681     0.96644      .   S
    C46    O3682     0.69090      .   S
    C47    O3682     0.69090      .   S
    C46    O3683     0.71927      .   S
    C44    O3683     0.71927      .   S
    C1600  O3684     0.69090      .   S
    C1635  O3684     0.69090      .   S
    C1600  O3685     0.71927      .   S
    C1530  O3685     0.71927      .   S
    C1601  O3686     0.69090      .   S
    C1636  O3686     0.69090      .   S
    C1601  O3687     0.71927      .   S
    C1531  O3687     0.71927      .   S
    C2021  O3688     0.68343      .   S
    C2336  O3688     0.68343      .   S
    C58    O3689     0.68343      .   S
    C67    O3689     0.68343      .   S
    C2020  O3690     0.68343      .   S
    C2335  O3690     0.68343      .   S
    C45    O3691     0.47538      .   S
    C44    O3691     0.47538      .   S
    C1566  O3692     0.47538      .   S
    C1531  O3692     0.47538      .   S
    C1565  O3693     0.47538      .   S
    C1530  O3693     0.47538      .   S
    C1635  O3694     0.65693      .   S
    C1670  O3694     0.65693      .   S
    C47    O3695     0.65693      .   S
    C48    O3695     0.65693      .   S
    C1636  O3696     0.65693      .   S
    C1671  O3696     0.65693      .   S
    C88    O3697     0.93696  1_565   S
    C242   O3697     0.93696      .   S
    C88    O3698     0.95602      .   S
    C205   O3698     0.95602      .   S
    C86    O3699     0.93696  1_455   S
    C240   O3699     0.93696      .   S
    C86    O3700     0.95602      .   S
    C206   O3700     0.95602      .   S
    C87    O3701     0.93696      .   S
    C241   O3701     0.93696      .   S
    C87    O3702     0.95602      .   S
    C207   O3702     0.95602      .   S
    C1530  O3703     0.69208      .   S
    C1495  O3703     0.69208      .   S
    C1531  O3704     0.69208      .   S
    C1496  O3704     0.69208      .   S
    C44    O3705     0.69208      .   S
    C43    O3705     0.69208      .   S
    C242   O3706     0.67137      .   S
    C732   O3706     0.67137      .   S
    C241   O3707     0.67137      .   S
    C731   O3707     0.67137      .   S
    C240   O3708     0.67137      .   S
    C730   O3708     0.67137      .   S
    C1670  O3709     0.69464      .   S
    C2265  O3709     0.69464  1_655   S
    C1670  O3710     0.72263      .   S
    C1705  O3710     0.72263      .   S
    C1671  O3711     0.69464      .   S
    C2266  O3711     0.69464      .   S
    C1671  O3712     0.72263      .   S
    C1706  O3712     0.72263      .   S
    C48    O3713     0.69464      .   S
    C65    O3713     0.69464  1_545   S
    C48    O3714     0.72263      .   S
    C49    O3714     0.72263      .   S
    C2335  O3715     0.43963      .   S
    C2370  O3715     0.43963      .   S
    C2335  O3716     0.73469      .   S
    C2405  O3716     0.73469      .   S
    C2336  O3717     0.43963      .   S
    C2371  O3717     0.43963      .   S
    C2336  O3718     0.73469      .   S
    C2406  O3718     0.73469      .   S
    C67    O3719     0.43963      .   S
    C68    O3719     0.43963      .   S
    C67    O3720     0.73469      .   S
    C69    O3720     0.73469      .   S
    C206   O3721     0.61258  1_565   S
    C731   O3721     0.61258      .   S
    C207   O3722     0.61258  1_455   S
    C732   O3722     0.61258      .   S
    C205   O3723     0.61258      .   S
    C730   O3723     0.61258      .   S
    C1496  O3724     0.66105      .   S
    C1706  O3724     0.66105      .   S
    C1496  O3725     0.76076      .   S
    C1461  O3725     0.76076      .   S
    C43    O3726     0.66105      .   S
    C49    O3726     0.66105      .   S
    C43    O3727     0.76076      .   S
    C42    O3727     0.76076      .   S
    C1495  O3728     0.66105      .   S
    C1705  O3728     0.66105      .   S
    C1495  O3729     0.76076      .   S
    C1460  O3729     0.76076      .   S
    C730   O3730     0.73978      .   S
    C765   O3730     0.73978      .   S
    C732   O3731     0.73978      .   S
    C767   O3731     0.73978      .   S
    C731   O3732     0.73978      .   S
    C766   O3732     0.73978      .   S
    C376   O3733     0.62440      .   S
    C1461  O3733     0.62440      .   S
    C376   O3734     0.96534      .   S
    C3     O3734     0.96534      .   S
    C11    O3735     0.62440      .   S
    C42    O3735     0.62440      .   S
    C11    O3736     0.96449      .   S
    C3     O3736     0.96449      .   S
    C375   O3737     0.62440      .   S
    C1460  O3737     0.62440      .   S
    C375   O3738     0.96427      .   S
    C3     O3738     0.96427      .   S
    C65    O3739     0.43939      .   S
    C66    O3739     0.43939      .   S
    C65    O3740     0.74713      .   S
    C69    O3740     0.74713      .   S
    C2265  O3741     0.43939      .   S
    C2300  O3741     0.43939      .   S
    C2265  O3742     0.74713      .   S
    C2405  O3742     0.74713      .   S
    C2266  O3743     0.43939      .   S
    C2301  O3743     0.43939      .   S
    C2266  O3744     0.74713      .   S
    C2406  O3744     0.74713      .   S
    C49    O3745     0.47299      .   S
    C50    O3745     0.47299      .   S
    C1706  O3746     0.47299      .   S
    C1741  O3746     0.47299      .   S
    C1705  O3747     0.47299      .   S
    C1740  O3747     0.47299      .   S
    C1460  O3748     0.63553      .   S
    C410   O3748     0.63553      .   S
    C42    O3749     0.63553      .   S
    C12    O3749     0.63553      .   S
    C1461  O3750     0.63553      .   S
    C411   O3750     0.63553      .   S
    C69    O3751     0.57416      .   S
    C14    O3751     0.57416      .   S
    C2405  O3752     0.57416      .   S
    C480   O3752     0.57416      .   S
    C2406  O3753     0.57416      .   S
    C481   O3753     0.57416      .   S
    C1047  O3754     0.47468      .   S
    C1012  O3754     0.47468      .   S
    C1046  O3755     0.47468      .   S
    C1011  O3755     0.47468      .   S
    C1045  O3756     0.47468      .   S
    C1010  O3756     0.47468      .   S
    C765   O3757     0.72287      .   S
    C1010  O3757     0.72287      .   S
    C765   O3758     0.68736      .   S
    C800   O3758     0.68736      .   S
    C767   O3759     0.72287      .   S
    C1012  O3759     0.72287      .   S
    C767   O3760     0.68736      .   S
    C802   O3760     0.68736      .   S
    C766   O3761     0.72287      .   S
    C1011  O3761     0.72287      .   S
    C766   O3762     0.68736      .   S
    C801   O3762     0.68736      .   S
    C3     O3763     0.94408      .   S
    C5     O3763     0.94408      .   S
    C836   O3764     0.47525  1_565   S
    C801   O3764     0.47525      .   S
    C835   O3765     0.47525      .   S
    C800   O3765     0.47525      .   S
    C1012  O3766     0.71520      .   S
    C942   O3766     0.71520      .   S
    C1010  O3767     0.71520      .   S
    C940   O3767     0.71520      .   S
    C1011  O3768     0.71520      .   S
    C941   O3768     0.71520      .   S
    C837   O3769     0.47525  1_455   S
    C802   O3769     0.47525      .   S
    C800   O3770     0.70858      .   S
    C870   O3770     0.70858      .   S
    C802   O3771     0.70858      .   S
    C872   O3771     0.70858      .   S
    C801   O3772     0.70858      .   S
    C871   O3772     0.70858      .   S
    C942   O3773     0.47349      .   S
    C977   O3773     0.47349      .   S
    C942   O3774     0.65586      .   S
    C907   O3774     0.65586      .   S
    C940   O3775     0.47349      .   S
    C975   O3775     0.47349      .   S
    C940   O3776     0.65586      .   S
    C905   O3776     0.65586      .   S
    C941   O3777     0.47349      .   S
    C976   O3777     0.47349      .   S
    C941   O3778     0.65586      .   S
    C906   O3778     0.65586      .   S
    C12    O3779     0.98052      .   S
    C117   O3779     0.98052      .   S
    C410   O3780     0.98052      .   S
    C2     O3780     0.98052      .   S
    C411   O3781     0.98052      .   S
    C116   O3781     0.98052      .   S
    C695   O3782     0.44040      .   S
    C660   O3782     0.44040      .   S
    C696   O3783     0.44040      .   S
    C661   O3783     0.44040      .   S
    C697   O3784     0.44040      .   S
    C662   O3784     0.44040      .   S
    C870   O3785     0.71234      .   S
    C905   O3785     0.71234      .   S
    C870   O3786     0.71569      .   S
    C590   O3786     0.71569      .   S
    C871   O3787     0.71234      .   S
    C906   O3787     0.71234      .   S
    C871   O3788     0.71569      .   S
    C591   O3788     0.71569      .   S
    C872   O3789     0.71234      .   S
    C907   O3789     0.71234      .   S
    C872   O3790     0.71569      .   S
    C592   O3790     0.71569      .   S
    C275   O3791     0.56653      .   S
    C1080  O3791     0.56653      .   S
    C276   O3792     0.56653      .   S
    C1081  O3792     0.56653  1_545   S
    C277   O3793     0.56653      .   S
    C1082  O3793     0.56653  1_655   S
    C1082  O3794     0.63220      .   S
    C662   O3794     0.63220      .   S
    C1082  O3795     0.73453      .   S
    C592   O3795     0.73453      .   S
    C1081  O3796     0.63220      .   S
    C661   O3796     0.63220      .   S
    C1081  O3797     0.73453      .   S
    C591   O3797     0.73453      .   S
    C1080  O3798     0.63220      .   S
    C660   O3798     0.63220      .   S
    C1080  O3799     0.73453      .   S
    C590   O3799     0.73453      .   S
    C907   O3800     0.71075      .   S
    C1117  O3800     0.71075      .   S
    C905   O3801     0.71075      .   S
    C1115  O3801     0.71075      .   S
    C906   O3802     0.71075      .   S
    C1116  O3802     0.71075      .   S
    C660   O3803     0.73625      .   S
    C1150  O3803     0.73625      .   S
    C662   O3804     0.73625      .   S
    C1152  O3804     0.73625      .   S
    C661   O3805     0.73625      .   S
    C1151  O3805     0.73625      .   S
    C592   O3806     0.44146  1_655   S
    C627   O3806     0.44146      .   S
    C591   O3807     0.44146  1_545   S
    C626   O3807     0.44146      .   S
    C590   O3808     0.44146      .   S
    C625   O3808     0.44146      .   S
    C5     O3809     0.97060      .   S
    C117   O3809     0.97060      .   S
    C1117  O3810     0.72625      .   S
    C1152  O3810     0.72625      .   S
    C1117  O3811     0.74374      .   S
    C1362  O3811     0.74374      .   S
    C1116  O3812     0.72625      .   S
    C1151  O3812     0.72625      .   S
    C1116  O3813     0.74374      .   S
    C1361  O3813     0.74374      .   S
    C1115  O3814     0.72625      .   S
    C1150  O3814     0.72625      .   S
    C1115  O3815     0.74374      .   S
    C1360  O3815     0.74374      .   S
    C1152  O3816     0.69257      .   S
    C1187  O3816     0.69257      .   S
    C1150  O3817     0.69257      .   S
    C1185  O3817     0.69257      .   S
    C1151  O3818     0.69257      .   S
    C1186  O3818     0.69257      .   S
    C2     O3819     0.90314      .   S
    C10    O3819     0.90314      .   S
    C2     O3820     0.93867      .   S
    C306   O3820     0.93867      .   S
    C117   O3821     0.90314      .   S
    C341   O3821     0.90314      .   S
    C117   O3822     0.93867      .   S
    C305   O3822     0.93867      .   S
    C116   O3823     0.90314      .   S
    C340   O3823     0.90314      .   S
    C116   O3824     0.93867      .   S
    C9     O3824     0.93867      .   S
    C1185  O3825     0.47466      .   S
    C1220  O3825     0.47466      .   S
    C1185  O3826     0.71857      .   S
    C1255  O3826     0.71857      .   S
    C1186  O3827     0.47466      .   S
    C1221  O3827     0.47466      .   S
    C1186  O3828     0.71857      .   S
    C1256  O3828     0.71857      .   S
    C1187  O3829     0.47466      .   S
    C1222  O3829     0.47466      .   S
    C1187  O3830     0.71857      .   S
    C1257  O3830     0.71857      .   S
    C1361  O3831     0.47528      .   S
    C1396  O3831     0.47528      .   S
    C1361  O3832     0.64104      .   S
    C1291  O3832     0.64104      .   S
    C1362  O3833     0.47528      .   S
    C1397  O3833     0.47528      .   S
    C1362  O3834     0.64104      .   S
    C1292  O3834     0.64104      .   S
    C1360  O3835     0.47528      .   S
    C1395  O3835     0.47528      .   S
    C1360  O3836     0.64104      .   S
    C1290  O3836     0.64104      .   S
    C10    O3837     0.75796      .   S
    C41    O3837     0.75796      .   S
    C340   O3838     0.75796      .   S
    C1425  O3838     0.75796      .   S
    C341   O3839     0.75796      .   S
    C1426  O3839     0.75796      .   S
    C9     O3840     0.58021      .   S
    C41    O3840     0.58021      .   S
    C305   O3841     0.58021      .   S
    C1425  O3841     0.58021      .   S
    C306   O3842     0.58021      .   S
    C1426  O3842     0.58021      .   S
    C41    O3843     0.76684      .   S
    C36    O3843     0.76684      .   S
    C1425  O3844     0.76684      .   S
    C1250  O3844     0.76684      .   S
    C1426  O3845     0.76684      .   S
    C1251  O3845     0.76684      .   S
    C1321  O3846     0.47585      .   S
    C1286  O3846     0.47585      .   S
    C1320  O3847     0.47585      .   S
    C1285  O3847     0.47585      .   S
    C38    O3848     0.47585      .   S
    C37    O3848     0.47585      .   S
    C1257  O3849     0.70623      .   S
    C1292  O3849     0.70623      .   S
    C1257  O3850     0.76684      .   S
    C1432  O3850     0.76684      .   S
    C1256  O3851     0.70623      .   S
    C1291  O3851     0.70623      .   S
    C1256  O3852     0.76684      .   S
    C1431  O3852     0.76684      .   S
    C1255  O3853     0.70623      .   S
    C1290  O3853     0.70623      .   S
    C1255  O3854     0.76684      .   S
    C1430  O3854     0.76684      .   S
    C1292  O3855     0.47585      .   S
    C1327  O3855     0.47585      .   S
    C1291  O3856     0.47585      .   S
    C1326  O3856     0.47585      .   S
    C1290  O3857     0.47585      .   S
    C1325  O3857     0.47585      .   S
    C1286  O3858     0.70623      .   S
    C1251  O3858     0.70623      .   S
    C1286  O3859     0.64104      .   S
    C1356  O3859     0.64104      .   S
    C1285  O3860     0.70623      .   S
    C1250  O3860     0.70623      .   S
    C1285  O3861     0.64104      .   S
    C1355  O3861     0.64104      .   S
    C37    O3862     0.70623      .   S
    C36    O3862     0.70623      .   S
    C37    O3863     0.64104      .   S
    C39    O3863     0.64104      .   S
    C36    O3864     0.71857      .   S
    C34    O3864     0.71857      .   S
    C1250  O3865     0.71857      .   S
    C1180  O3865     0.71857      .   S
    C1251  O3866     0.71857      .   S
    C1181  O3866     0.71857      .   S
    C1432  O3867     0.58021      .   S
    C312   O3867     0.58021      .   S
    C1432  O3868     0.75796      .   S
    C347   O3868     0.75796      .   S
    C1431  O3869     0.58021      .   S
    C311   O3869     0.58021      .   S
    C1431  O3870     0.75796      .   S
    C346   O3870     0.75796      .   S
    C1430  O3871     0.58021      .   S
    C310   O3871     0.58021      .   S
    C1430  O3872     0.75796      .   S
    C345   O3872     0.75796      .   S
    C311   O3873     0.93867      .   S
    C123   O3873     0.93867      .   S
    C312   O3874     0.93867      .   S
    C121   O3874     0.93867      .   S
    C310   O3875     0.93867      .   S
    C122   O3875     0.93867      .   S
    C40    O3876     0.47528      .   S
    C39    O3876     0.47528      .   S
    C1390  O3877     0.47528      .   S
    C1355  O3877     0.47528      .   S
    C1391  O3878     0.47528      .   S
    C1356  O3878     0.47528      .   S
    C345   O3879     0.90314      .   S
    C121   O3879     0.90314      .   S
    C346   O3880     0.90314      .   S
    C122   O3880     0.90314      .   S
    C347   O3881     0.90314      .   S
    C123   O3881     0.90314      .   S
    C35    O3882     0.47466      .   S
    C34    O3882     0.47466      .   S
    C1215  O3883     0.47466      .   S
    C1180  O3883     0.47466      .   S
    C1216  O3884     0.47466      .   S
    C1181  O3884     0.47466      .   S
    C39    O3885     0.74374      .   S
    C32    O3885     0.74374      .   S
    C1355  O3886     0.74374      .   S
    C1110  O3886     0.74374      .   S
    C1356  O3887     0.74374      .   S
    C1111  O3887     0.74374      .   S
    C34    O3888     0.69257      .   S
    C33    O3888     0.69257      .   S
    C1180  O3889     0.69257      .   S
    C1145  O3889     0.69257      .   S
    C1181  O3890     0.69257      .   S
    C1146  O3890     0.69257      .   S
    C122   O3891     0.98052      .   S
    C417   O3891     0.98052      .   S
    C121   O3892     0.98052      .   S
    C416   O3892     0.98052      .   S
    C123   O3893     0.97060      .   S
    C182   O3893     0.97060      .   S
    C123   O3894     0.98052      .   S
    C415   O3894     0.98052      .   S
    C33    O3895     0.72625      .   S
    C32    O3895     0.72625      .   S
    C33    O3896     0.73625      .   S
    C19    O3896     0.73625      .   S
    C1145  O3897     0.72625      .   S
    C1110  O3897     0.72625      .   S
    C1145  O3898     0.73625      .   S
    C655   O3898     0.73625      .   S
    C1146  O3899     0.72625      .   S
    C1111  O3899     0.72625      .   S
    C1146  O3900     0.73625      .   S
    C656   O3900     0.73625      .   S
    C32    O3901     0.71075      .   S
    C26    O3901     0.71075      .   S
    C1110  O3902     0.71075      .   S
    C900   O3902     0.71075      .   S
    C1111  O3903     0.71075      .   S
    C901   O3903     0.71075      .   S
    C620   O3904     0.44146      .   S
    C585   O3904     0.44146  1_565   S
    C621   O3905     0.44146      .   S
    C586   O3905     0.44146  1_455   S
    C18    O3906     0.44146      .   S
    C17    O3906     0.44146      .   S
    C182   O3907     0.94408      .   S
    C152   O3907     0.94408      .   S
    C585   O3908     0.73453      .   S
    C1075  O3908     0.73453      .   S
    C585   O3909     0.71569      .   S
    C865   O3909     0.71569      .   S
    C17    O3910     0.73453      .   S
    C31    O3910     0.73453      .   S
    C17    O3911     0.71569      .   S
    C25    O3911     0.71569      .   S
    C586   O3912     0.73453      .   S
    C1076  O3912     0.73453      .   S
    C586   O3913     0.71569      .   S
    C866   O3913     0.71569      .   S
    C19    O3914     0.63220      .   S
    C31    O3914     0.63220      .   S
    C19    O3915     0.44040      .   S
    C20    O3915     0.44040      .   S
    C655   O3916     0.63220      .   S
    C1075  O3916     0.63220      .   S
    C655   O3917     0.44040      .   S
    C690   O3917     0.44040      .   S
    C656   O3918     0.63220      .   S
    C1076  O3918     0.63220      .   S
    C656   O3919     0.44040      .   S
    C691   O3919     0.44040      .   S
    C26    O3920     0.71234      .   S
    C25    O3920     0.71234      .   S
    C26    O3921     0.65586      .   S
    C27    O3921     0.65586      .   S
    C900   O3922     0.71234      .   S
    C865   O3922     0.71234      .   S
    C900   O3923     0.65586      .   S
    C935   O3923     0.65586      .   S
    C901   O3924     0.71234      .   S
    C866   O3924     0.71234      .   S
    C901   O3925     0.65586      .   S
    C936   O3925     0.65586      .   S
    C31    O3926     0.56653      .   S
    C8     O3926     0.56653      .   S
    C1076  O3927     0.56653  1_455   S
    C271   O3927     0.56653      .   S
    C1075  O3928     0.56653  1_565   S
    C270   O3928     0.56653      .   S
    C865   O3929     0.70858      .   S
    C795   O3929     0.70858      .   S
    C866   O3930     0.70858      .   S
    C796   O3930     0.70858      .   S
    C25    O3931     0.70858      .   S
    C23    O3931     0.70858      .   S
    C28    O3932     0.47349      .   S
    C27    O3932     0.47349      .   S
    C971   O3933     0.47349      .   S
    C936   O3933     0.47349      .   S
    C970   O3934     0.47349      .   S
    C935   O3934     0.47349      .   S
    C415   O3935     0.63553      .   S
    C1465  O3935     0.63553      .   S
    C416   O3936     0.63553      .   S
    C1466  O3936     0.63553      .   S
    C417   O3937     0.63553      .   S
    C1467  O3937     0.63553      .   S
    C936   O3938     0.71520      .   S
    C1006  O3938     0.71520      .   S
    C935   O3939     0.71520      .   S
    C1005  O3939     0.71520      .   S
    C27    O3940     0.71520      .   S
    C29    O3940     0.71520      .   S
    C485   O3941     0.57416      .   S
    C2410  O3941     0.57416      .   S
    C486   O3942     0.57416      .   S
    C2411  O3942     0.57416      .   S
    C487   O3943     0.57416      .   S
    C2412  O3943     0.57416      .   S
    C23    O3944     0.47525      .   S
    C24    O3944     0.47525      .   S
    C23    O3945     0.68736      .   S
    C22    O3945     0.68736      .   S
    C795   O3946     0.47525      .   S
    C830   O3946     0.47525  1_545   S
    C795   O3947     0.68736      .   S
    C760   O3947     0.68736      .   S
    C796   O3948     0.47525      .   S
    C831   O3948     0.47525  1_655   S
    C796   O3949     0.68736      .   S
    C761   O3949     0.68736      .   S
    C1747  O3950     0.47299      .   S
    C1712  O3950     0.47299      .   S
    C1745  O3951     0.47299      .   S
    C1710  O3951     0.47299      .   S
    C1746  O3952     0.47299      .   S
    C1711  O3952     0.47299      .   S
    C1006  O3953     0.72287      .   S
    C761   O3953     0.72287      .   S
    C1006  O3954     0.47468      .   S
    C1041  O3954     0.47468      .   S
    C1005  O3955     0.72287      .   S
    C760   O3955     0.72287      .   S
    C1005  O3956     0.47468      .   S
    C1040  O3956     0.47468      .   S
    C29    O3957     0.72287      .   S
    C22    O3957     0.72287      .   S
    C29    O3958     0.47468      .   S
    C30    O3958     0.47468      .   S
    C152   O3959     0.96534      .   S
    C382   O3959     0.96534      .   S
    C152   O3960     0.96427      .   S
    C381   O3960     0.96427      .   S
    C152   O3961     0.96449      .   S
    C380   O3961     0.96449      .   S
    C761   O3962     0.73978      .   S
    C726   O3962     0.73978      .   S
    C22    O3963     0.73978      .   S
    C21    O3963     0.73978      .   S
    C760   O3964     0.73978      .   S
    C725   O3964     0.73978      .   S
    C2410  O3965     0.74713      .   S
    C2270  O3965     0.74713      .   S
    C2410  O3966     0.73469      .   S
    C2340  O3966     0.73469      .   S
    C2411  O3967     0.74713      .   S
    C2271  O3967     0.74713      .   S
    C2411  O3968     0.73469      .   S
    C2341  O3968     0.73469      .   S
    C2412  O3969     0.74713      .   S
    C2272  O3969     0.74713      .   S
    C2412  O3970     0.73469      .   S
    C2342  O3970     0.73469      .   S
    C1465  O3971     0.62440      .   S
    C380   O3971     0.62440      .   S
    C1465  O3972     0.76076      .   S
    C1500  O3972     0.76076      .   S
    C1466  O3973     0.62440      .   S
    C381   O3973     0.62440      .   S
    C1466  O3974     0.76076      .   S
    C1501  O3974     0.76076      .   S
    C1467  O3975     0.62440      .   S
    C382   O3975     0.62440      .   S
    C1467  O3976     0.76076      .   S
    C1502  O3976     0.76076      .   S
    C1710  O3977     0.66105      .   S
    C1500  O3977     0.66105      .   S
    C1710  O3978     0.72263      .   S
    C1675  O3978     0.72263      .   S
    C1711  O3979     0.66105      .   S
    C1501  O3979     0.66105      .   S
    C1711  O3980     0.72263      .   S
    C1676  O3980     0.72263      .   S
    C1712  O3981     0.66105      .   S
    C1502  O3981     0.66105      .   S
    C1712  O3982     0.72263      .   S
    C1677  O3982     0.72263      .   S
    C2306  O3983     0.43939      .   S
    C2271  O3983     0.43939      .   S
    C2305  O3984     0.43939      .   S
    C2270  O3984     0.43939      .   S
    C2307  O3985     0.43939      .   S
    C2272  O3985     0.43939      .   S
    C2271  O3986     0.69464  1_455   S
    C1676  O3986     0.69464      .   S
    C2270  O3987     0.69464  1_565   S
    C1675  O3987     0.69464      .   S
    C2272  O3988     0.69464      .   S
    C1677  O3988     0.69464      .   S
    C725   O3989     0.61258      .   S
    C200   O3989     0.61258  1_545   S
    C725   O3990     0.67137      .   S
    C235   O3990     0.67137      .   S
    C726   O3991     0.61258      .   S
    C201   O3991     0.61258  1_655   S
    C726   O3992     0.67137      .   S
    C236   O3992     0.67137      .   S
    C21    O3993     0.61258      .   S
    C6     O3993     0.61258      .   S
    C21    O3994     0.67137      .   S
    C7     O3994     0.67137      .   S
    C1501  O3995     0.69208      .   S
    C1536  O3995     0.69208      .   S
    C1500  O3996     0.69208      .   S
    C1535  O3996     0.69208      .   S
    C1502  O3997     0.69208      .   S
    C1537  O3997     0.69208      .   S
    C2376  O3998     0.43963      .   S
    C2341  O3998     0.43963      .   S
    C2375  O3999     0.43963      .   S
    C2340  O3999     0.43963      .   S
    C2377  O4000     0.43963      .   S
    C2342  O4000     0.43963      .   S
    C6     O4001     0.95602      .   S
    C82    O4001     0.95602      .   S
    C201   O4002     0.95602      .   S
    C81    O4002     0.95602      .   S
    C200   O4003     0.95602      .   S
    C1     O4003     0.95602      .   S
    C2341  O4004     0.68343      .   S
    C2026  O4004     0.68343      .   S
    C2342  O4005     0.68343      .   S
    C2027  O4005     0.68343      .   S
    C2340  O4006     0.68343      .   S
    C2025  O4006     0.68343      .   S
    C1676  O4007     0.65693      .   S
    C1641  O4007     0.65693      .   S
    C1677  O4008     0.65693      .   S
    C1642  O4008     0.65693      .   S
    C1675  O4009     0.65693      .   S
    C1640  O4009     0.65693      .   S
    C7     O4010     0.93696      .   S
    C1     O4010     0.93696  1_655   S
    C235   O4011     0.93696      .   S
    C81    O4011     0.93696      .   S
    C236   O4012     0.93696      .   S
    C82    O4012     0.93696  1_545   S
    C1535  O4013     0.47538      .   S
    C1570  O4013     0.47538      .   S
    C1535  O4014     0.71927      .   S
    C1605  O4014     0.71927      .   S
    C1536  O4015     0.47538      .   S
    C1571  O4015     0.47538      .   S
    C1536  O4016     0.71927      .   S
    C1606  O4016     0.71927      .   S
    C1537  O4017     0.47538      .   S
    C1572  O4017     0.47538      .   S
    C1537  O4018     0.71927      .   S
    C1607  O4018     0.71927      .   S
    C1     O4019     0.96644      .   S
    C4     O4019     0.96644  1_455   S
    C1     O4020     0.93728      .   S
    C549   O4020     0.93728      .   S
    C82    O4021     0.96644      .   S
    C4     O4021     0.96644      .   S
    C82    O4022     0.93728      .   S
    C547   O4022     0.93728      .   S
    C81    O4023     0.93728      .   S
    C548   O4023     0.93728      .   S
    C1642  O4024     0.69090      .   S
    C1607  O4024     0.69090      .   S
    C1642  O4025     0.70758      .   S
    C1782  O4025     0.70758      .   S
    C1641  O4026     0.69090      .   S
    C1606  O4026     0.69090      .   S
    C1641  O4027     0.70758      .   S
    C1781  O4027     0.70758  1_455   S
    C1640  O4028     0.69090      .   S
    C1605  O4028     0.69090      .   S
    C1640  O4029     0.70758      .   S
    C1780  O4029     0.70758  1_565   S
    C2025  O4030     0.70761      .   S
    C1780  O4030     0.70761      .   S
    C2025  O4031     0.66931      .   S
    C1955  O4031     0.66931      .   S
    C2026  O4032     0.70761      .   S
    C1781  O4032     0.70761      .   S
    C2026  O4033     0.66931      .   S
    C1956  O4033     0.66931      .   S
    C2027  O4034     0.70761      .   S
    C1782  O4034     0.70761      .   S
    C2027  O4035     0.66931      .   S
    C1957  O4035     0.66931      .   S
    C1605  O4036     0.72430      .   S
    C2095  O4036     0.72430      .   S
    C1606  O4037     0.72430      .   S
    C2096  O4037     0.72430      .   S
    C1607  O4038     0.72430      .   S
    C2097  O4038     0.72430      .   S
    C1990  O4039     0.47401      .   S
    C1955  O4039     0.47401      .   S
    C1991  O4040     0.47401      .   S
    C1956  O4040     0.47401      .   S
    C1992  O4041     0.47401      .   S
    C1957  O4041     0.47401      .   S
    C1782  O4042     0.71781      .   S
    C1817  O4042     0.71781      .   S
    C1781  O4043     0.71781      .   S
    C1816  O4043     0.71781      .   S
    C1780  O4044     0.71781      .   S
    C1815  O4044     0.71781      .   S
    C1957  O4045     0.68738      .   S
    C1922  O4045     0.68738      .   S
    C1956  O4046     0.68738      .   S
    C1921  O4046     0.68738      .   S
    C1955  O4047     0.68738      .   S
    C1920  O4047     0.68738      .   S
    C549   O4048     0.59521      .   S
    C2089  O4048     0.59521      .   S
    C548   O4049     0.59521      .   S
    C2088  O4049     0.59521      .   S
    C547   O4050     0.59521      .   S
    C2087  O4050     0.59521      .   S
    C477   O4051     0.56083      .   S
    C2262  O4051     0.56083      .   S
    C478   O4052     0.56083      .   S
    C2263  O4052     0.56083      .   S
    C479   O4053     0.56083      .   S
    C2264  O4053     0.56083      .   S
    C2130  O4054     0.43889      .   S
    C2095  O4054     0.43889      .   S
    C2131  O4055     0.43889      .   S
    C2096  O4055     0.43889      .   S
    C2132  O4056     0.43889      .   S
    C2097  O4056     0.43889      .   S
    C2097  O4057     0.73227      .   S
    C2237  O4057     0.73227      .   S
    C2096  O4058     0.73227      .   S
    C2236  O4058     0.73227      .   S
    C2095  O4059     0.73227      .   S
    C2235  O4059     0.73227      .   S
    C1914  O4060     0.47404      .   S
    C1879  O4060     0.47404      .   S
    C1913  O4061     0.47404      .   S
    C1878  O4061     0.47404      .   S
    C1912  O4062     0.47404      .   S
    C1877  O4062     0.47404      .   S
    C2229  O4063     0.44151      .   S
    C2194  O4063     0.44151      .   S
    C2228  O4064     0.44151      .   S
    C2193  O4064     0.44151      .   S
    C2227  O4065     0.44151      .   S
    C2192  O4065     0.44151      .   S
    C1817  O4066     0.66841      .   S
    C1852  O4066     0.66841      .   S
    C1817  O4067     0.74020      .   S
    C2167  O4067     0.74020      .   S
    C1815  O4068     0.66841      .   S
    C1850  O4068     0.66841      .   S
    C1815  O4069     0.74020  1_565   S
    C2165  O4069     0.74020      .   S
    C1816  O4070     0.66841      .   S
    C1851  O4070     0.66841      .   S
    C1816  O4071     0.74020  1_455   S
    C2166  O4071     0.74020      .   S
    C1920  O4072     0.71283      .   S
    C1850  O4072     0.71283      .   S
    C1920  O4073     0.77729      .   S
    C2060  O4073     0.77729      .   S
    C1921  O4074     0.71283      .   S
    C1851  O4074     0.71283      .   S
    C1921  O4075     0.77729      .   S
    C2061  O4075     0.77729      .   S
    C1922  O4076     0.71283      .   S
    C1852  O4076     0.71283      .   S
    C1922  O4077     0.77729      .   S
    C2062  O4077     0.77729      .   S
    C2089  O4078     0.66986      .   S
    C584   O4078     0.66986      .   S
    C2089  O4079     0.77729      .   S
    C1949  O4079     0.77729      .   S
    C2088  O4080     0.66986      .   S
    C583   O4080     0.66986      .   S
    C2088  O4081     0.77729      .   S
    C1948  O4081     0.77729      .   S
    C2087  O4082     0.66986      .   S
    C582   O4082     0.66986      .   S
    C2087  O4083     0.77729      .   S
    C1947  O4083     0.77729      .   S
    C0     O4084     0.95489  1_455   S
    C584   O4084     0.95489      .   S
    C0     O4085     0.95489  1_445   S
    C583   O4085     0.95489      .   S
    C0     O4086     0.95489      .   S
    C582   O4086     0.95489      .   S
    C2264  O4087     0.72243      .   S
    C2194  O4087     0.72243      .   S
    C2264  O4088     0.73227      .   S
    C2124  O4088     0.73227      .   S
    C2262  O4089     0.72243      .   S
    C2192  O4089     0.72243      .   S
    C2262  O4090     0.73227      .   S
    C2122  O4090     0.73227      .   S
    C2263  O4091     0.72243      .   S
    C2193  O4091     0.72243      .   S
    C2263  O4092     0.73227      .   S
    C2123  O4092     0.73227      .   S
    C556   O4093     0.95489      .   S
    C78    O4093     0.95489      .   S
    C556   O4094     0.66986      .   S
    C2061  O4094     0.66986      .   S
    C555   O4095     0.95489      .   S
    C78    O4095     0.95489      .   S
    C555   O4096     0.66986      .   S
    C2060  O4096     0.66986      .   S
    C557   O4097     0.95489      .   S
    C78    O4097     0.95489      .   S
    C557   O4098     0.66986      .   S
    C2062  O4098     0.66986      .   S
    C2194  O4099     0.74020      .   S
    C1844  O4099     0.74020      .   S
    C2193  O4100     0.74020      .   S
    C1843  O4100     0.74020      .   S
    C2192  O4101     0.74020      .   S
    C1842  O4101     0.74020      .   S
    C1879  O4102     0.71283      .   S
    C1949  O4102     0.71283      .   S
    C1879  O4103     0.66841      .   S
    C1844  O4103     0.66841      .   S
    C1878  O4104     0.71283      .   S
    C1948  O4104     0.71283      .   S
    C1878  O4105     0.66841      .   S
    C1843  O4105     0.66841      .   S
    C1877  O4106     0.71283      .   S
    C1947  O4106     0.71283      .   S
    C1877  O4107     0.66841      .   S
    C1842  O4107     0.66841      .   S
    C1852  O4108     0.47404      .   S
    C1887  O4108     0.47404      .   S
    C1851  O4109     0.47404      .   S
    C1886  O4109     0.47404      .   S
    C1850  O4110     0.47404      .   S
    C1885  O4110     0.47404      .   S
    C2167  O4111     0.72243      .   S
    C2237  O4111     0.72243      .   S
    C2167  O4112     0.44151      .   S
    C2202  O4112     0.44151      .   S
    C2165  O4113     0.72243      .   S
    C2235  O4113     0.72243      .   S
    C2165  O4114     0.44151      .   S
    C2200  O4114     0.44151      .   S
    C2166  O4115     0.72243      .   S
    C2236  O4115     0.72243      .   S
    C2166  O4116     0.44151      .   S
    C2201  O4116     0.44151      .   S
    C2237  O4117     0.56083      .   S
    C452   O4117     0.56083      .   S
    C2235  O4118     0.56083      .   S
    C450   O4118     0.56083      .   S
    C2236  O4119     0.56083      .   S
    C451   O4119     0.56083      .   S
    C2062  O4120     0.59521      .   S
    C522   O4120     0.59521      .   S
    C2061  O4121     0.59521      .   S
    C521   O4121     0.59521      .   S
    C2060  O4122     0.59521      .   S
    C520   O4122     0.59521      .   S
    C1948  O4123     0.68738      .   S
    C1983  O4123     0.68738      .   S
    C1949  O4124     0.68738      .   S
    C1984  O4124     0.68738      .   S
    C1947  O4125     0.68738      .   S
    C1982  O4125     0.68738      .   S
    C1842  O4126     0.71781      .   S
    C1807  O4126     0.71781      .   S
    C1844  O4127     0.71781      .   S
    C1809  O4127     0.71781      .   S
    C1843  O4128     0.71781      .   S
    C1808  O4128     0.71781      .   S
    C2124  O4129     0.43889      .   S
    C2159  O4129     0.43889      .   S
    C2124  O4130     0.72430      .   S
    C1634  O4130     0.72430      .   S
    C2123  O4131     0.43889      .   S
    C2158  O4131     0.43889      .   S
    C2123  O4132     0.72430      .   S
    C1633  O4132     0.72430      .   S
    C2122  O4133     0.43889      .   S
    C2157  O4133     0.43889      .   S
    C2122  O4134     0.72430      .   S
    C1632  O4134     0.72430      .   S
    C522   O4135     0.93728      .   S
    C107   O4135     0.93728      .   S
    C521   O4136     0.93728      .   S
    C108   O4136     0.93728      .   S
    C520   O4137     0.93728      .   S
    C109   O4137     0.93728      .   S
    C1982  O4138     0.47401      .   S
    C2017  O4138     0.47401      .   S
    C1982  O4139     0.66931      .   S
    C2052  O4139     0.66931      .   S
    C1983  O4140     0.47401      .   S
    C2018  O4140     0.47401      .   S
    C1983  O4141     0.66931      .   S
    C2053  O4141     0.66931      .   S
    C1984  O4142     0.47401      .   S
    C2019  O4142     0.47401      .   S
    C1984  O4143     0.66931      .   S
    C2054  O4143     0.66931      .   S
    C1809  O4144     0.70761      .   S
    C2054  O4144     0.70761      .   S
    C1809  O4145     0.70758      .   S
    C1669  O4145     0.70758      .   S
    C1807  O4146     0.70761      .   S
    C2052  O4146     0.70761      .   S
    C1807  O4147     0.70758      .   S
    C1667  O4147     0.70758      .   S
    C1808  O4148     0.70761      .   S
    C2053  O4148     0.70761      .   S
    C1808  O4149     0.70758      .   S
    C1668  O4149     0.70758      .   S
    C178   O4150     0.96644      .   S
    C107   O4150     0.96644      .   S
    C178   O4151     0.96644      .   S
    C109   O4151     0.96644      .   S
    C1632  O4152     0.69090      .   S
    C1667  O4152     0.69090      .   S
    C1632  O4153     0.71927      .   S
    C1562  O4153     0.71927      .   S
    C1633  O4154     0.69090      .   S
    C1668  O4154     0.69090      .   S
    C1633  O4155     0.71927      .   S
    C1563  O4155     0.71927      .   S
    C1634  O4156     0.69090      .   S
    C1669  O4156     0.69090      .   S
    C1634  O4157     0.71927      .   S
    C1564  O4157     0.71927      .   S
    C2054  O4158     0.68343      .   S
    C2369  O4158     0.68343      .   S
    C2053  O4159     0.68343      .   S
    C2368  O4159     0.68343      .   S
    C2052  O4160     0.68343      .   S
    C2367  O4160     0.68343      .   S
    C1597  O4161     0.47538      .   S
    C1562  O4161     0.47538      .   S
    C1598  O4162     0.47538      .   S
    C1563  O4162     0.47538      .   S
    C1599  O4163     0.47538      .   S
    C1564  O4163     0.47538      .   S
    C1669  O4164     0.65693      .   S
    C1704  O4164     0.65693      .   S
    C1668  O4165     0.65693      .   S
    C1703  O4165     0.65693      .   S
    C1667  O4166     0.65693      .   S
    C1702  O4166     0.65693      .   S
    C108   O4167     0.93696      .   S
    C262   O4167     0.93696      .   S
    C108   O4168     0.95602      .   S
    C228   O4168     0.95602      .   S
    C107   O4169     0.93696      .   S
    C261   O4169     0.93696      .   S
    C107   O4170     0.95602      .   S
    C227   O4170     0.95602      .   S
    C109   O4171     0.93696      .   S
    C263   O4171     0.93696      .   S
    C109   O4172     0.95602      .   S
    C226   O4172     0.95602      .   S
    C1564  O4173     0.69208      .   S
    C1529  O4173     0.69208      .   S
    C1562  O4174     0.69208      .   S
    C1527  O4174     0.69208      .   S
    C1563  O4175     0.69208      .   S
    C1528  O4175     0.69208      .   S
    C261   O4176     0.67137      .   S
    C751   O4176     0.67137      .   S
    C262   O4177     0.67137      .   S
    C752   O4177     0.67137      .   S
    C263   O4178     0.67137      .   S
    C753   O4178     0.67137      .   S
    C1703  O4179     0.69464      .   S
    C2298  O4179     0.69464      .   S
    C1703  O4180     0.72263      .   S
    C1738  O4180     0.72263      .   S
    C1702  O4181     0.69464      .   S
    C2297  O4181     0.69464      .   S
    C1702  O4182     0.72263      .   S
    C1737  O4182     0.72263      .   S
    C1704  O4183     0.69464      .   S
    C2299  O4183     0.69464      .   S
    C1704  O4184     0.72263      .   S
    C1739  O4184     0.72263      .   S
    C2367  O4185     0.43963      .   S
    C2402  O4185     0.43963      .   S
    C2367  O4186     0.73469      .   S
    C2437  O4186     0.73469      .   S
    C2368  O4187     0.43963      .   S
    C2403  O4187     0.43963      .   S
    C2368  O4188     0.73469      .   S
    C2438  O4188     0.73469      .   S
    C2369  O4189     0.43963      .   S
    C2404  O4189     0.43963      .   S
    C2369  O4190     0.73469      .   S
    C2439  O4190     0.73469      .   S
    C228   O4191     0.61258      .   S
    C753   O4191     0.61258      .   S
    C227   O4192     0.61258      .   S
    C752   O4192     0.61258      .   S
    C226   O4193     0.61258      .   S
    C751   O4193     0.61258      .   S
    C1527  O4194     0.66105      .   S
    C1737  O4194     0.66105      .   S
    C1527  O4195     0.76076      .   S
    C1492  O4195     0.76076      .   S
    C1528  O4196     0.66105      .   S
    C1738  O4196     0.66105      .   S
    C1528  O4197     0.76076      .   S
    C1493  O4197     0.76076      .   S
    C1529  O4198     0.66105      .   S
    C1739  O4198     0.66105      .   S
    C1529  O4199     0.76076      .   S
    C1494  O4199     0.76076      .   S
    C752   O4200     0.73978      .   S
    C787   O4200     0.73978      .   S
    C751   O4201     0.73978      .   S
    C786   O4201     0.73978      .   S
    C753   O4202     0.73978      .   S
    C788   O4202     0.73978      .   S
    C407   O4203     0.62440      .   S
    C1492  O4203     0.62440      .   S
    C407   O4204     0.96449      .   S
    C169   O4204     0.96449      .   S
    C408   O4205     0.62440      .   S
    C1493  O4205     0.62440      .   S
    C408   O4206     0.96427      .   S
    C169   O4206     0.96427      .   S
    C409   O4207     0.62440      .   S
    C1494  O4207     0.62440      .   S
    C409   O4208     0.96534      .   S
    C169   O4208     0.96534      .   S
    C2299  O4209     0.43939      .   S
    C2334  O4209     0.43939      .   S
    C2299  O4210     0.74713      .   S
    C2439  O4210     0.74713      .   S
    C2298  O4211     0.43939      .   S
    C2333  O4211     0.43939      .   S
    C2298  O4212     0.74713      .   S
    C2438  O4212     0.74713      .   S
    C2297  O4213     0.43939      .   S
    C2332  O4213     0.43939      .   S
    C2297  O4214     0.74713      .   S
    C2437  O4214     0.74713      .   S
    C1737  O4215     0.47299      .   S
    C1772  O4215     0.47299      .   S
    C1738  O4216     0.47299      .   S
    C1773  O4216     0.47299      .   S
    C1739  O4217     0.47299      .   S
    C1774  O4217     0.47299      .   S
    C1494  O4218     0.63553      .   S
    C444   O4218     0.63553      .   S
    C1493  O4219     0.63553      .   S
    C443   O4219     0.63553      .   S
    C1492  O4220     0.63553      .   S
    C442   O4220     0.63553      .   S
    C2439  O4221     0.57416      .   S
    C514   O4221     0.57416      .   S
    C2438  O4222     0.57416      .   S
    C513   O4222     0.57416      .   S
    C2437  O4223     0.57416      .   S
    C512   O4223     0.57416      .   S
    C1066  O4224     0.47468      .   S
    C1031  O4224     0.47468      .   S
    C1067  O4225     0.47468      .   S
    C1032  O4225     0.47468      .   S
    C1068  O4226     0.47468      .   S
    C1033  O4226     0.47468      .   S
    C786   O4227     0.72287      .   S
    C1031  O4227     0.72287      .   S
    C786   O4228     0.68736      .   S
    C821   O4228     0.68736      .   S
    C787   O4229     0.72287      .   S
    C1032  O4229     0.72287      .   S
    C787   O4230     0.68736      .   S
    C822   O4230     0.68736      .   S
    C788   O4231     0.72287      .   S
    C1033  O4231     0.72287      .   S
    C788   O4232     0.68736      .   S
    C823   O4232     0.68736      .   S
    C169   O4233     0.94408      .   S
    C199   O4233     0.94408      .   S
    C1033  O4234     0.71520      .   S
    C963   O4234     0.71520      .   S
    C1031  O4235     0.71520      .   S
    C961   O4235     0.71520      .   S
    C1032  O4236     0.71520      .   S
    C962   O4236     0.71520      .   S
    C856   O4237     0.47525      .   S
    C821   O4237     0.47525      .   S
    C857   O4238     0.47525      .   S
    C822   O4238     0.47525      .   S
    C858   O4239     0.47525      .   S
    C823   O4239     0.47525      .   S
    C821   O4240     0.70858      .   S
    C891   O4240     0.70858      .   S
    C822   O4241     0.70858      .   S
    C892   O4241     0.70858      .   S
    C823   O4242     0.70858      .   S
    C893   O4242     0.70858      .   S
    C963   O4243     0.47349      .   S
    C998   O4243     0.47349      .   S
    C963   O4244     0.65586      .   S
    C928   O4244     0.65586      .   S
    C962   O4245     0.47349      .   S
    C997   O4245     0.47349      .   S
    C962   O4246     0.65586      .   S
    C927   O4246     0.65586      .   S
    C961   O4247     0.47349      .   S
    C996   O4247     0.47349      .   S
    C961   O4248     0.65586      .   S
    C926   O4248     0.65586      .   S
    C442   O4249     0.98052      .   S
    C150   O4249     0.98052      .   S
    C443   O4250     0.98052      .   S
    C148   O4250     0.98052      .   S
    C444   O4251     0.98052      .   S
    C149   O4251     0.98052      .   S
    C716   O4252     0.44040      .   S
    C681   O4252     0.44040  1_565   S
    C718   O4253     0.44040      .   S
    C683   O4253     0.44040  1_455   S
    C717   O4254     0.44040      .   S
    C682   O4254     0.44040      .   S
    C892   O4255     0.71234      .   S
    C927   O4255     0.71234      .   S
    C892   O4256     0.71569      .   S
    C612   O4256     0.71569      .   S
    C893   O4257     0.71234      .   S
    C928   O4257     0.71234      .   S
    C893   O4258     0.71569      .   S
    C613   O4258     0.71569      .   S
    C891   O4259     0.71234      .   S
    C926   O4259     0.71234      .   S
    C891   O4260     0.71569      .   S
    C611   O4260     0.71569      .   S
    C298   O4261     0.56653      .   S
    C1103  O4261     0.56653  1_455   S
    C297   O4262     0.56653      .   S
    C1102  O4262     0.56653      .   S
    C296   O4263     0.56653      .   S
    C1101  O4263     0.56653  1_565   S
    C1101  O4264     0.63220      .   S
    C681   O4264     0.63220      .   S
    C1101  O4265     0.73453      .   S
    C611   O4265     0.73453      .   S
    C1103  O4266     0.63220      .   S
    C683   O4266     0.63220      .   S
    C1103  O4267     0.73453      .   S
    C613   O4267     0.73453      .   S
    C1102  O4268     0.63220      .   S
    C682   O4268     0.63220      .   S
    C1102  O4269     0.73453      .   S
    C612   O4269     0.73453      .   S
    C928   O4270     0.71075      .   S
    C1138  O4270     0.71075      .   S
    C926   O4271     0.71075      .   S
    C1136  O4271     0.71075      .   S
    C927   O4272     0.71075      .   S
    C1137  O4272     0.71075      .   S
    C681   O4273     0.73625      .   S
    C1171  O4273     0.73625      .   S
    C683   O4274     0.73625      .   S
    C1173  O4274     0.73625      .   S
    C682   O4275     0.73625      .   S
    C1172  O4275     0.73625      .   S
    C613   O4276     0.44146      .   S
    C648   O4276     0.44146      .   S
    C612   O4277     0.44146      .   S
    C647   O4277     0.44146      .   S
    C611   O4278     0.44146      .   S
    C646   O4278     0.44146      .   S
    C199   O4279     0.97060      .   S
    C150   O4279     0.97060      .   S
    C1138  O4280     0.72625      .   S
    C1173  O4280     0.72625      .   S
    C1138  O4281     0.74374      .   S
    C1383  O4281     0.74374      .   S
    C1137  O4282     0.72625      .   S
    C1172  O4282     0.72625      .   S
    C1137  O4283     0.74374      .   S
    C1382  O4283     0.74374      .   S
    C1136  O4284     0.72625      .   S
    C1171  O4284     0.72625      .   S
    C1136  O4285     0.74374      .   S
    C1381  O4285     0.74374      .   S
    C1171  O4286     0.69257      .   S
    C1206  O4286     0.69257      .   S
    C1172  O4287     0.69257      .   S
    C1207  O4287     0.69257      .   S
    C1173  O4288     0.69257      .   S
    C1208  O4288     0.69257      .   S
    C148   O4289     0.90314      .   S
    C372   O4289     0.90314      .   S
    C148   O4290     0.93867      .   S
    C339   O4290     0.93867      .   S
    C149   O4291     0.90314      .   S
    C373   O4291     0.90314      .   S
    C149   O4292     0.93867      .   S
    C337   O4292     0.93867      .   S
    C150   O4293     0.90314      .   S
    C374   O4293     0.90314      .   S
    C150   O4294     0.93867      .   S
    C338   O4294     0.93867      .   S
    C1208  O4295     0.47466      .   S
    C1243  O4295     0.47466  1_655   S
    C1208  O4296     0.71857      .   S
    C1278  O4296     0.71857      .   S
    C1207  O4297     0.47466      .   S
    C1242  O4297     0.47466      .   S
    C1207  O4298     0.71857      .   S
    C1277  O4298     0.71857      .   S
    C1206  O4299     0.47466      .   S
    C1241  O4299     0.47466  1_545   S
    C1206  O4300     0.71857      .   S
    C1276  O4300     0.71857      .   S
    C1383  O4301     0.47528      .   S
    C1418  O4301     0.47528      .   S
    C1383  O4302     0.64104      .   S
    C1313  O4302     0.64104      .   S
    C1382  O4303     0.47528      .   S
    C1417  O4303     0.47528      .   S
    C1382  O4304     0.64104      .   S
    C1312  O4304     0.64104      .   S
    C1381  O4305     0.47528      .   S
    C1416  O4305     0.47528      .   S
    C1381  O4306     0.64104      .   S
    C1311  O4306     0.64104      .   S
    C374   O4307     0.75796      .   S
    C1459  O4307     0.75796      .   S
    C372   O4308     0.75796      .   S
    C1457  O4308     0.75796      .   S
    C373   O4309     0.75796      .   S
    C1458  O4309     0.75796      .   S
    C338   O4310     0.58021      .   S
    C1458  O4310     0.58021      .   S
    C339   O4311     0.58021      .   S
    C1459  O4311     0.58021      .   S
    C337   O4312     0.58021      .   S
    C1457  O4312     0.58021      .   S
    C1458  O4313     0.76684      .   S
    C1283  O4313     0.76684      .   S
    C1459  O4314     0.76684      .   S
    C1284  O4314     0.76684      .   S
    C1457  O4315     0.76684      .   S
    C1282  O4315     0.76684      .   S
    C1354  O4316     0.47585      .   S
    C1319  O4316     0.47585      .   S
    C1353  O4317     0.47585      .   S
    C1318  O4317     0.47585      .   S
    C1352  O4318     0.47585      .   S
    C1317  O4318     0.47585      .   S
    C1276  O4319     0.70623      .   S
    C1311  O4319     0.70623      .   S
    C1276  O4320     0.76684      .   S
    C1451  O4320     0.76684      .   S
    C1278  O4321     0.70623      .   S
    C1313  O4321     0.70623      .   S
    C1278  O4322     0.76684      .   S
    C1453  O4322     0.76684      .   S
    C1277  O4323     0.70623      .   S
    C1312  O4323     0.70623      .   S
    C1277  O4324     0.76684      .   S
    C1452  O4324     0.76684      .   S
    C1313  O4325     0.47585      .   S
    C1348  O4325     0.47585      .   S
    C1312  O4326     0.47585      .   S
    C1347  O4326     0.47585      .   S
    C1311  O4327     0.47585      .   S
    C1346  O4327     0.47585      .   S
    C1319  O4328     0.70623      .   S
    C1284  O4328     0.70623      .   S
    C1319  O4329     0.64104      .   S
    C1389  O4329     0.64104      .   S
    C1317  O4330     0.70623      .   S
    C1282  O4330     0.70623      .   S
    C1317  O4331     0.64104      .   S
    C1387  O4331     0.64104      .   S
    C1318  O4332     0.70623      .   S
    C1283  O4332     0.70623      .   S
    C1318  O4333     0.64104      .   S
    C1388  O4333     0.64104      .   S
    C1284  O4334     0.71857      .   S
    C1214  O4334     0.71857      .   S
    C1282  O4335     0.71857      .   S
    C1212  O4335     0.71857      .   S
    C1283  O4336     0.71857      .   S
    C1213  O4336     0.71857      .   S
    C1453  O4337     0.58021      .   S
    C333   O4337     0.58021  1_655   S
    C1453  O4338     0.75796      .   S
    C368   O4338     0.75796      .   S
    C1451  O4339     0.58021      .   S
    C331   O4339     0.58021  1_545   S
    C1451  O4340     0.75796      .   S
    C366   O4340     0.75796      .   S
    C1452  O4341     0.58021      .   S
    C332   O4341     0.58021      .   S
    C1452  O4342     0.75796      .   S
    C367   O4342     0.75796      .   S
    C331   O4343     0.93867      .   S
    C143   O4343     0.93867      .   S
    C332   O4344     0.93867      .   S
    C144   O4344     0.93867      .   S
    C333   O4345     0.93867      .   S
    C142   O4345     0.93867      .   S
    C1424  O4346     0.47528      .   S
    C1389  O4346     0.47528      .   S
    C1422  O4347     0.47528      .   S
    C1387  O4347     0.47528      .   S
    C1423  O4348     0.47528      .   S
    C1388  O4348     0.47528      .   S
    C366   O4349     0.90314      .   S
    C142   O4349     0.90314      .   S
    C367   O4350     0.90314  1_455   S
    C143   O4350     0.90314      .   S
    C368   O4351     0.90314  1_565   S
    C144   O4351     0.90314      .   S
    C1249  O4352     0.47466      .   S
    C1214  O4352     0.47466      .   S
    C1248  O4353     0.47466      .   S
    C1213  O4353     0.47466      .   S
    C1247  O4354     0.47466      .   S
    C1212  O4354     0.47466      .   S
    C1389  O4355     0.74374      .   S
    C1144  O4355     0.74374      .   S
    C1388  O4356     0.74374      .   S
    C1143  O4356     0.74374      .   S
    C1387  O4357     0.74374      .   S
    C1142  O4357     0.74374      .   S
    C1212  O4358     0.69257      .   S
    C1177  O4358     0.69257      .   S
    C1213  O4359     0.69257      .   S
    C1178  O4359     0.69257      .   S
    C1214  O4360     0.69257      .   S
    C1179  O4360     0.69257      .   S
    C144   O4361     0.97060      .   S
    C193   O4361     0.97060  1_565   S
    C143   O4362     0.97060      .   S
    C195   O4362     0.97060  1_455   S
    C142   O4363     0.97060      .   S
    C194   O4363     0.97060      .   S
    C1179  O4364     0.72625      .   S
    C1144  O4364     0.72625      .   S
    C1179  O4365     0.73625      .   S
    C689   O4365     0.73625      .   S
    C1177  O4366     0.72625      .   S
    C1142  O4366     0.72625      .   S
    C1177  O4367     0.73625      .   S
    C687   O4367     0.73625      .   S
    C1178  O4368     0.72625      .   S
    C1143  O4368     0.72625      .   S
    C1178  O4369     0.73625      .   S
    C688   O4369     0.73625      .   S
    C1142  O4370     0.71075  1_655   S
    C932   O4370     0.71075      .   S
    C1143  O4371     0.71075  1_545   S
    C933   O4371     0.71075      .   S
    C1144  O4372     0.71075      .   S
    C934   O4372     0.71075      .   S
    C654   O4373     0.44146      .   S
    C619   O4373     0.44146      .   S
    C653   O4374     0.44146      .   S
    C618   O4374     0.44146      .   S
    C652   O4375     0.44146      .   S
    C617   O4375     0.44146      .   S
    C193   O4376     0.94408      .   S
    C163   O4376     0.94408      .   S
    C194   O4377     0.94408      .   S
    C164   O4377     0.94408      .   S
    C195   O4378     0.94408      .   S
    C165   O4378     0.94408      .   S
    C619   O4379     0.73453      .   S
    C1109  O4379     0.73453      .   S
    C619   O4380     0.71569      .   S
    C899   O4380     0.71569      .   S
    C618   O4381     0.73453      .   S
    C1108  O4381     0.73453  1_545   S
    C618   O4382     0.71569      .   S
    C898   O4382     0.71569      .   S
    C617   O4383     0.73453      .   S
    C1107  O4383     0.73453  1_655   S
    C617   O4384     0.71569      .   S
    C897   O4384     0.71569      .   S
    C688   O4385     0.63220      .   S
    C1108  O4385     0.63220      .   S
    C688   O4386     0.44040      .   S
    C723   O4386     0.44040      .   S
    C687   O4387     0.63220      .   S
    C1107  O4387     0.63220      .   S
    C687   O4388     0.44040      .   S
    C722   O4388     0.44040      .   S
    C689   O4389     0.63220      .   S
    C1109  O4389     0.63220      .   S
    C689   O4390     0.44040      .   S
    C724   O4390     0.44040      .   S
    C932   O4391     0.71234      .   S
    C897   O4391     0.71234      .   S
    C932   O4392     0.65586      .   S
    C967   O4392     0.65586      .   S
    C933   O4393     0.71234      .   S
    C898   O4393     0.71234      .   S
    C933   O4394     0.65586      .   S
    C968   O4394     0.65586      .   S
    C934   O4395     0.71234      .   S
    C899   O4395     0.71234      .   S
    C934   O4396     0.65586      .   S
    C969   O4396     0.65586      .   S
    C1109  O4397     0.56653      .   S
    C304   O4397     0.56653      .   S
    C1107  O4398     0.56653      .   S
    C302   O4398     0.56653      .   S
    C1108  O4399     0.56653      .   S
    C303   O4399     0.56653      .   S
    C899   O4400     0.70858      .   S
    C829   O4400     0.70858      .   S
    C898   O4401     0.70858      .   S
    C828   O4401     0.70858      .   S
    C897   O4402     0.70858      .   S
    C827   O4402     0.70858      .   S
    C1004  O4403     0.47349      .   S
    C969   O4403     0.47349      .   S
    C1003  O4404     0.47349      .   S
    C968   O4404     0.47349      .   S
    C1002  O4405     0.47349      .   S
    C967   O4405     0.47349      .   S
    C437   O4406     0.63553      .   S
    C1487  O4406     0.63553      .   S
    C436   O4407     0.63553      .   S
    C1486  O4407     0.63553      .   S
    C438   O4408     0.63553      .   S
    C1488  O4408     0.63553      .   S
    C967   O4409     0.71520      .   S
    C1037  O4409     0.71520      .   S
    C968   O4410     0.71520      .   S
    C1038  O4410     0.71520      .   S
    C969   O4411     0.71520      .   S
    C1039  O4411     0.71520      .   S
    C508   O4412     0.57416      .   S
    C2433  O4412     0.57416      .   S
    C507   O4413     0.57416      .   S
    C2432  O4413     0.57416      .   S
    C506   O4414     0.57416      .   S
    C2431  O4414     0.57416      .   S
    C827   O4415     0.47525      .   S
    C862   O4415     0.47525      .   S
    C827   O4416     0.68736      .   S
    C792   O4416     0.68736      .   S
    C829   O4417     0.47525      .   S
    C864   O4417     0.47525      .   S
    C829   O4418     0.68736      .   S
    C794   O4418     0.68736      .   S
    C828   O4419     0.47525      .   S
    C863   O4419     0.47525      .   S
    C828   O4420     0.68736      .   S
    C793   O4420     0.68736      .   S
    C1768  O4421     0.47299      .   S
    C1733  O4421     0.47299      .   S
    C1767  O4422     0.47299      .   S
    C1732  O4422     0.47299      .   S
    C1766  O4423     0.47299      .   S
    C1731  O4423     0.47299      .   S
    C1039  O4424     0.72287      .   S
    C794   O4424     0.72287      .   S
    C1039  O4425     0.47468      .   S
    C1074  O4425     0.47468      .   S
    C1038  O4426     0.72287      .   S
    C793   O4426     0.72287      .   S
    C1038  O4427     0.47468      .   S
    C1073  O4427     0.47468      .   S
    C1037  O4428     0.72287      .   S
    C792   O4428     0.72287      .   S
    C1037  O4429     0.47468      .   S
    C1072  O4429     0.47468      .   S
    C793   O4430     0.73978      .   S
    C758   O4430     0.73978      .   S
    C794   O4431     0.73978      .   S
    C759   O4431     0.73978      .   S
    C792   O4432     0.73978      .   S
    C757   O4432     0.73978      .   S
    C2432  O4433     0.74713      .   S
    C2292  O4433     0.74713      .   S
    C2432  O4434     0.73469      .   S
    C2362  O4434     0.73469      .   S
    C2431  O4435     0.74713      .   S
    C2291  O4435     0.74713      .   S
    C2431  O4436     0.73469      .   S
    C2361  O4436     0.73469      .   S
    C2433  O4437     0.74713      .   S
    C2293  O4437     0.74713      .   S
    C2433  O4438     0.73469      .   S
    C2363  O4438     0.73469      .   S
    C1487  O4439     0.62440      .   S
    C402   O4439     0.62440      .   S
    C1487  O4440     0.76076      .   S
    C1522  O4440     0.76076      .   S
    C1486  O4441     0.62440      .   S
    C401   O4441     0.62440      .   S
    C1486  O4442     0.76076      .   S
    C1521  O4442     0.76076      .   S
    C1488  O4443     0.62440      .   S
    C403   O4443     0.62440      .   S
    C1488  O4444     0.76076      .   S
    C1523  O4444     0.76076      .   S
    C1731  O4445     0.66105      .   S
    C1521  O4445     0.66105      .   S
    C1731  O4446     0.72263      .   S
    C1696  O4446     0.72263      .   S
    C1732  O4447     0.66105      .   S
    C1522  O4447     0.66105      .   S
    C1732  O4448     0.72263      .   S
    C1697  O4448     0.72263      .   S
    C1733  O4449     0.66105      .   S
    C1523  O4449     0.66105      .   S
    C1733  O4450     0.72263      .   S
    C1698  O4450     0.72263      .   S
    C2326  O4451     0.43939      .   S
    C2291  O4451     0.43939      .   S
    C2327  O4452     0.43939      .   S
    C2292  O4452     0.43939      .   S
    C2328  O4453     0.43939      .   S
    C2293  O4453     0.43939      .   S
    C2292  O4454     0.69464      .   S
    C1697  O4454     0.69464      .   S
    C2291  O4455     0.69464      .   S
    C1696  O4455     0.69464      .   S
    C2293  O4456     0.69464      .   S
    C1698  O4456     0.69464      .   S
    C759   O4457     0.61258      .   S
    C234   O4457     0.61258      .   S
    C759   O4458     0.67137      .   S
    C269   O4458     0.67137      .   S
    C757   O4459     0.61258      .   S
    C232   O4459     0.61258      .   S
    C757   O4460     0.67137      .   S
    C267   O4460     0.67137      .   S
    C758   O4461     0.61258      .   S
    C233   O4461     0.61258      .   S
    C758   O4462     0.67137      .   S
    C268   O4462     0.67137      .   S
    C1522  O4463     0.69208      .   S
    C1557  O4463     0.69208      .   S
    C1523  O4464     0.69208      .   S
    C1558  O4464     0.69208      .   S
    C1521  O4465     0.69208      .   S
    C1556  O4465     0.69208      .   S
    C2396  O4466     0.43963      .   S
    C2361  O4466     0.43963      .   S
    C2398  O4467     0.43963      .   S
    C2363  O4467     0.43963      .   S
    C2397  O4468     0.43963      .   S
    C2362  O4468     0.43963      .   S
    C233   O4469     0.95602      .   S
    C113   O4469     0.95602      .   S
    C234   O4470     0.95602      .   S
    C114   O4470     0.95602      .   S
    C232   O4471     0.95602      .   S
    C115   O4471     0.95602      .   S
    C2361  O4472     0.68343      .   S
    C2046  O4472     0.68343      .   S
    C2362  O4473     0.68343      .   S
    C2047  O4473     0.68343      .   S
    C2363  O4474     0.68343      .   S
    C2048  O4474     0.68343      .   S
    C1697  O4475     0.65693      .   S
    C1662  O4475     0.65693      .   S
    C1696  O4476     0.65693      .   S
    C1661  O4476     0.65693      .   S
    C1698  O4477     0.65693      .   S
    C1663  O4477     0.65693      .   S
    C267   O4478     0.93696      .   S
    C113   O4478     0.93696      .   S
    C269   O4479     0.93696      .   S
    C115   O4479     0.93696      .   S
    C268   O4480     0.93696      .   S
    C114   O4480     0.93696      .   S
    C1556  O4481     0.47538      .   S
    C1591  O4481     0.47538      .   S
    C1556  O4482     0.71927      .   S
    C1626  O4482     0.71927      .   S
    C1558  O4483     0.47538      .   S
    C1593  O4483     0.47538      .   S
    C1558  O4484     0.71927      .   S
    C1628  O4484     0.71927      .   S
    C1557  O4485     0.47538      .   S
    C1592  O4485     0.47538      .   S
    C1557  O4486     0.71927      .   S
    C1627  O4486     0.71927      .   S
    C113   O4487     0.96644      .   S
    C180   O4487     0.96644      .   S
    C113   O4488     0.93728      .   S
    C528   O4488     0.93728      .   S
    C115   O4489     0.93728      .   S
    C526   O4489     0.93728      .   S
    C114   O4490     0.96644      .   S
    C180   O4490     0.96644      .   S
    C114   O4491     0.93728      .   S
    C527   O4491     0.93728      .   S
    C1662  O4492     0.69090      .   S
    C1627  O4492     0.69090      .   S
    C1662  O4493     0.70758      .   S
    C1802  O4493     0.70758      .   S
    C1661  O4494     0.69090      .   S
    C1626  O4494     0.69090      .   S
    C1661  O4495     0.70758      .   S
    C1801  O4495     0.70758      .   S
    C1663  O4496     0.69090      .   S
    C1628  O4496     0.69090      .   S
    C1663  O4497     0.70758      .   S
    C1803  O4497     0.70758      .   S
    C2046  O4498     0.70761      .   S
    C1801  O4498     0.70761      .   S
    C2046  O4499     0.66931      .   S
    C1976  O4499     0.66931      .   S
    C2048  O4500     0.70761      .   S
    C1803  O4500     0.70761      .   S
    C2048  O4501     0.66931      .   S
    C1978  O4501     0.66931      .   S
    C2047  O4502     0.70761      .   S
    C1802  O4502     0.70761      .   S
    C2047  O4503     0.66931      .   S
    C1977  O4503     0.66931      .   S
    C1628  O4504     0.72430      .   S
    C2118  O4504     0.72430      .   S
    C1627  O4505     0.72430      .   S
    C2117  O4505     0.72430      .   S
    C1626  O4506     0.72430      .   S
    C2116  O4506     0.72430      .   S
    C2011  O4507     0.47401      .   S
    C1976  O4507     0.47401      .   S
    C2013  O4508     0.47401      .   S
    C1978  O4508     0.47401      .   S
    C2012  O4509     0.47401      .   S
    C1977  O4509     0.47401      .   S
    C1802  O4510     0.71781      .   S
    C1837  O4510     0.71781      .   S
    C1801  O4511     0.71781      .   S
    C1836  O4511     0.71781      .   S
    C1803  O4512     0.71781      .   S
    C1838  O4512     0.71781      .   S
    C1978  O4513     0.68738      .   S
    C1943  O4513     0.68738      .   S
    C1977  O4514     0.68738      .   S
    C1942  O4514     0.68738      .   S
    C1976  O4515     0.68738      .   S
    C1941  O4515     0.68738      .   S
    C526   O4516     0.59521      .   S
    C2066  O4516     0.59521      .   S
    C528   O4517     0.59521      .   S
    C2068  O4517     0.59521      .   S
    C527   O4518     0.59521      .   S
    C2067  O4518     0.59521      .   S
    C457   O4519     0.56083      .   S
    C2242  O4519     0.56083      .   S
    C456   O4520     0.56083      .   S
    C2241  O4520     0.56083      .   S
    C458   O4521     0.56083      .   S
    C2243  O4521     0.56083      .   S
    C2151  O4522     0.43889      .   S
    C2116  O4522     0.43889      .   S
    C2152  O4523     0.43889      .   S
    C2117  O4523     0.43889      .   S
    C2153  O4524     0.43889      .   S
    C2118  O4524     0.43889      .   S
    C2117  O4525     0.73227      .   S
    C2257  O4525     0.73227      .   S
    C2116  O4526     0.73227      .   S
    C2256  O4526     0.73227      .   S
    C2118  O4527     0.73227      .   S
    C2258  O4527     0.73227      .   S
    C1891  O4528     0.47404      .   S
    C1856  O4528     0.47404      .   S
    C1892  O4529     0.47404      .   S
    C1857  O4529     0.47404      .   S
    C1893  O4530     0.47404      .   S
    C1858  O4530     0.47404      .   S
    C2206  O4531     0.44151      .   S
    C2171  O4531     0.44151      .   S
    C2207  O4532     0.44151      .   S
    C2172  O4532     0.44151      .   S
    C2208  O4533     0.44151      .   S
    C2173  O4533     0.44151      .   S
    C1838  O4534     0.66841      .   S
    C1873  O4534     0.66841      .   S
    C1838  O4535     0.74020      .   S
    C2188  O4535     0.74020      .   S
    C1836  O4536     0.66841      .   S
    C1871  O4536     0.66841      .   S
    C1836  O4537     0.74020      .   S
    C2186  O4537     0.74020      .   S
    C1837  O4538     0.66841      .   S
    C1872  O4538     0.66841      .   S
    C1837  O4539     0.74020      .   S
    C2187  O4539     0.74020      .   S
    C1943  O4540     0.71283      .   S
    C1873  O4540     0.71283      .   S
    C1943  O4541     0.77729      .   S
    C2083  O4541     0.77729      .   S
    C1942  O4542     0.71283      .   S
    C1872  O4542     0.71283      .   S
    C1942  O4543     0.77729      .   S
    C2082  O4543     0.77729      .   S
    C1941  O4544     0.71283      .   S
    C1871  O4544     0.71283      .   S
    C1941  O4545     0.77729      .   S
    C2081  O4545     0.77729      .   S
    C2066  O4546     0.66986      .   S
    C561   O4546     0.66986      .   S
    C2066  O4547     0.77729      .   S
    C1926  O4547     0.77729      .   S
    C2067  O4548     0.66986      .   S
    C562   O4548     0.66986      .   S
    C2067  O4549     0.77729      .   S
    C1927  O4549     0.77729      .   S
    C2068  O4550     0.66986      .   S
    C563   O4550     0.66986      .   S
    C2068  O4551     0.77729      .   S
    C1928  O4551     0.77729      .   S
    C80    O4552     0.95489      .   S
    C561   O4552     0.95489      .   S
    C80    O4553     0.95489      .   S
    C562   O4553     0.95489      .   S
    C80    O4554     0.95489      .   S
    C563   O4554     0.95489      .   S
    C2242  O4555     0.72243      .   S
    C2172  O4555     0.72243      .   S
    C2242  O4556     0.73227      .   S
    C2102  O4556     0.73227      .   S
    C2241  O4557     0.72243      .   S
    C2171  O4557     0.72243      .   S
    C2241  O4558     0.73227      .   S
    C2101  O4558     0.73227      .   S
    C2243  O4559     0.72243      .   S
    C2173  O4559     0.72243      .   S
    C2243  O4560     0.73227      .   S
    C2103  O4560     0.73227      .   S
    C576   O4561     0.95489      .   S
    C75    O4561     0.95489      .   S
    C576   O4562     0.66986      .   S
    C2081  O4562     0.66986      .   S
    C577   O4563     0.95489      .   S
    C75    O4563     0.95489      .   S
    C577   O4564     0.66986      .   S
    C2082  O4564     0.66986      .   S
    C578   O4565     0.95489      .   S
    C75    O4565     0.95489      .   S
    C578   O4566     0.66986      .   S
    C2083  O4566     0.66986      .   S
    C2171  O4567     0.74020      .   S
    C1821  O4567     0.74020      .   S
    C2172  O4568     0.74020      .   S
    C1822  O4568     0.74020      .   S
    C2173  O4569     0.74020      .   S
    C1823  O4569     0.74020      .   S
    C1858  O4570     0.71283      .   S
    C1928  O4570     0.71283      .   S
    C1858  O4571     0.66841      .   S
    C1823  O4571     0.66841      .   S
    C1856  O4572     0.71283      .   S
    C1926  O4572     0.71283      .   S
    C1856  O4573     0.66841      .   S
    C1821  O4573     0.66841      .   S
    C1857  O4574     0.71283      .   S
    C1927  O4574     0.71283      .   S
    C1857  O4575     0.66841      .   S
    C1822  O4575     0.66841      .   S
    C1871  O4576     0.47404      .   S
    C1906  O4576     0.47404      .   S
    C1872  O4577     0.47404      .   S
    C1907  O4577     0.47404      .   S
    C1873  O4578     0.47404      .   S
    C1908  O4578     0.47404      .   S
    C2187  O4579     0.72243      .   S
    C2257  O4579     0.72243      .   S
    C2187  O4580     0.44151      .   S
    C2222  O4580     0.44151      .   S
    C2188  O4581     0.72243      .   S
    C2258  O4581     0.72243      .   S
    C2188  O4582     0.44151      .   S
    C2223  O4582     0.44151      .   S
    C2186  O4583     0.72243      .   S
    C2256  O4583     0.72243      .   S
    C2186  O4584     0.44151      .   S
    C2221  O4584     0.44151      .   S
    C2257  O4585     0.56083      .   S
    C472   O4585     0.56083      .   S
    C2256  O4586     0.56083      .   S
    C471   O4586     0.56083      .   S
    C2258  O4587     0.56083      .   S
    C473   O4587     0.56083      .   S
    C2081  O4588     0.59521      .   S
    C541   O4588     0.59521      .   S
    C2083  O4589     0.59521      .   S
    C543   O4589     0.59521      .   S
    C2082  O4590     0.59521      .   S
    C542   O4590     0.59521      .   S
    C1926  O4591     0.68738      .   S
    C1961  O4591     0.68738      .   S
    C1928  O4592     0.68738      .   S
    C1963  O4592     0.68738      .   S
    C1927  O4593     0.68738      .   S
    C1962  O4593     0.68738      .   S
    C1822  O4594     0.71781      .   S
    C1787  O4594     0.71781      .   S
    C1821  O4595     0.71781      .   S
    C1786  O4595     0.71781      .   S
    C1823  O4596     0.71781      .   S
    C1788  O4596     0.71781      .   S
    C2101  O4597     0.43889      .   S
    C2136  O4597     0.43889      .   S
    C2101  O4598     0.72430      .   S
    C1611  O4598     0.72430      .   S
    C2102  O4599     0.43889      .   S
    C2137  O4599     0.43889      .   S
    C2102  O4600     0.72430      .   S
    C1612  O4600     0.72430      .   S
    C2103  O4601     0.43889      .   S
    C2138  O4601     0.43889      .   S
    C2103  O4602     0.72430      .   S
    C1613  O4602     0.72430      .   S
    C541   O4603     0.93728      .   S
    C100   O4603     0.93728      .   S
    C542   O4604     0.93728      .   S
    C99    O4604     0.93728      .   S
    C543   O4605     0.93728      .   S
    C98    O4605     0.93728      .   S
    C1961  O4606     0.47401      .   S
    C1996  O4606     0.47401      .   S
    C1961  O4607     0.66931      .   S
    C2031  O4607     0.66931      .   S
    C1962  O4608     0.47401      .   S
    C1997  O4608     0.47401      .   S
    C1962  O4609     0.66931      .   S
    C2032  O4609     0.66931      .   S
    C1963  O4610     0.47401      .   S
    C1998  O4610     0.47401      .   S
    C1963  O4611     0.66931      .   S
    C2033  O4611     0.66931      .   S
    C1788  O4612     0.70761      .   S
    C2033  O4612     0.70761      .   S
    C1788  O4613     0.70758      .   S
    C1648  O4613     0.70758      .   S
    C1786  O4614     0.70761      .   S
    C2031  O4614     0.70761      .   S
    C1786  O4615     0.70758      .   S
    C1646  O4615     0.70758      .   S
    C1787  O4616     0.70761      .   S
    C2032  O4616     0.70761      .   S
    C1787  O4617     0.70758      .   S
    C1647  O4617     0.70758      .   S
    C175   O4618     0.96644      .   S
    C99    O4618     0.96644      .   S
    C175   O4619     0.96644      .   S
    C98    O4619     0.96644      .   S
    C1613  O4620     0.69090      .   S
    C1648  O4620     0.69090      .   S
    C1613  O4621     0.71927      .   S
    C1543  O4621     0.71927      .   S
    C1611  O4622     0.69090      .   S
    C1646  O4622     0.69090      .   S
    C1611  O4623     0.71927      .   S
    C1541  O4623     0.71927      .   S
    C1612  O4624     0.69090      .   S
    C1647  O4624     0.69090      .   S
    C1612  O4625     0.71927      .   S
    C1542  O4625     0.71927      .   S
    C2032  O4626     0.68343      .   S
    C2347  O4626     0.68343      .   S
    C2033  O4627     0.68343      .   S
    C2348  O4627     0.68343      .   S
    C2031  O4628     0.68343      .   S
    C2346  O4628     0.68343      .   S
    C1578  O4629     0.47538      .   S
    C1543  O4629     0.47538      .   S
    C1577  O4630     0.47538      .   S
    C1542  O4630     0.47538      .   S
    C1576  O4631     0.47538      .   S
    C1541  O4631     0.47538      .   S
    C1648  O4632     0.65693      .   S
    C1683  O4632     0.65693      .   S
    C1647  O4633     0.65693      .   S
    C1682  O4633     0.65693      .   S
    C1646  O4634     0.65693      .   S
    C1681  O4634     0.65693      .   S
    C99    O4635     0.93696      .   S
    C253   O4635     0.93696      .   S
    C99    O4636     0.95602      .   S
    C219   O4636     0.95602      .   S
    C98    O4637     0.93696      .   S
    C252   O4637     0.93696      .   S
    C98    O4638     0.95602      .   S
    C218   O4638     0.95602      .   S
    C100   O4639     0.93696      .   S
    C254   O4639     0.93696      .   S
    C100   O4640     0.95602      .   S
    C217   O4640     0.95602      .   S
    C1542  O4641     0.69208      .   S
    C1507  O4641     0.69208      .   S
    C1541  O4642     0.69208      .   S
    C1506  O4642     0.69208      .   S
    C1543  O4643     0.69208      .   S
    C1508  O4643     0.69208      .   S
    C252   O4644     0.67137      .   S
    C742   O4644     0.67137      .   S
    C253   O4645     0.67137      .   S
    C743   O4645     0.67137      .   S
    C254   O4646     0.67137      .   S
    C744   O4646     0.67137      .   S
    C1683  O4647     0.69464      .   S
    C2278  O4647     0.69464      .   S
    C1683  O4648     0.72263      .   S
    C1718  O4648     0.72263      .   S
    C1681  O4649     0.69464      .   S
    C2276  O4649     0.69464      .   S
    C1681  O4650     0.72263      .   S
    C1716  O4650     0.72263      .   S
    C1682  O4651     0.69464      .   S
    C2277  O4651     0.69464      .   S
    C1682  O4652     0.72263      .   S
    C1717  O4652     0.72263      .   S
    C2346  O4653     0.43963      .   S
    C2381  O4653     0.43963      .   S
    C2346  O4654     0.73469      .   S
    C2416  O4654     0.73469      .   S
    C2347  O4655     0.43963      .   S
    C2382  O4655     0.43963      .   S
    C2347  O4656     0.73469      .   S
    C2417  O4656     0.73469      .   S
    C2348  O4657     0.43963      .   S
    C2383  O4657     0.43963      .   S
    C2348  O4658     0.73469      .   S
    C2418  O4658     0.73469      .   S
    C218   O4659     0.61258      .   S
    C743   O4659     0.61258      .   S
    C219   O4660     0.61258      .   S
    C744   O4660     0.61258      .   S
    C217   O4661     0.61258      .   S
    C742   O4661     0.61258      .   S
    C1508  O4662     0.66105      .   S
    C1718  O4662     0.66105      .   S
    C1508  O4663     0.76076      .   S
    C1473  O4663     0.76076      .   S
    C1507  O4664     0.66105      .   S
    C1717  O4664     0.66105      .   S
    C1507  O4665     0.76076      .   S
    C1472  O4665     0.76076      .   S
    C1506  O4666     0.66105      .   S
    C1716  O4666     0.66105      .   S
    C1506  O4667     0.76076      .   S
    C1471  O4667     0.76076      .   S
    C744   O4668     0.73978      .   S
    C779   O4668     0.73978      .   S
    C742   O4669     0.73978      .   S
    C777   O4669     0.73978      .   S
    C743   O4670     0.73978      .   S
    C778   O4670     0.73978      .   S
    C387   O4671     0.62440      .   S
    C1472  O4671     0.62440      .   S
    C386   O4672     0.62440      .   S
    C1471  O4672     0.62440      .   S
    C388   O4673     0.62440      .   S
    C1473  O4673     0.62440      .   S
    C2278  O4674     0.43939      .   S
    C2313  O4674     0.43939      .   S
    C2278  O4675     0.74713      .   S
    C2418  O4675     0.74713      .   S
    C2277  O4676     0.43939      .   S
    C2312  O4676     0.43939      .   S
    C2277  O4677     0.74713      .   S
    C2417  O4677     0.74713      .   S
    C2276  O4678     0.43939      .   S
    C2311  O4678     0.43939      .   S
    C2276  O4679     0.74713      .   S
    C2416  O4679     0.74713      .   S
    C1717  O4680     0.47299      .   S
    C1752  O4680     0.47299      .   S
    C1718  O4681     0.47299      .   S
    C1753  O4681     0.47299      .   S
    C1716  O4682     0.47299      .   S
    C1751  O4682     0.47299      .   S
    C1471  O4683     0.63553      .   S
    C421   O4683     0.63553      .   S
    C1472  O4684     0.63553      .   S
    C422   O4684     0.63553      .   S
    C1473  O4685     0.63553      .   S
    C423   O4685     0.63553      .   S
    C2418  O4686     0.57416      .   S
    C493   O4686     0.57416      .   S
    C2417  O4687     0.57416      .   S
    C492   O4687     0.57416      .   S
    C2416  O4688     0.57416      .   S
    C491   O4688     0.57416      .   S
    C1059  O4689     0.47468      .   S
    C1024  O4689     0.47468      .   S
    C1058  O4690     0.47468      .   S
    C1023  O4690     0.47468      .   S
    C1057  O4691     0.47468      .   S
    C1022  O4691     0.47468      .   S
    C779   O4692     0.72287      .   S
    C1024  O4692     0.72287      .   S
    C779   O4693     0.68736      .   S
    C814   O4693     0.68736      .   S
    C777   O4694     0.72287      .   S
    C1022  O4694     0.72287      .   S
    C777   O4695     0.68736      .   S
    C812   O4695     0.68736      .   S
    C778   O4696     0.72287      .   S
    C1023  O4696     0.72287      .   S
    C778   O4697     0.68736      .   S
    C813   O4697     0.68736      .   S
    C155   O4698     0.94408      .   S
    C185   O4698     0.94408      .   S
    C154   O4699     0.94408      .   S
    C184   O4699     0.94408      .   S
    C156   O4700     0.94408      .   S
    C186   O4700     0.94408      .   S
    C848   O4701     0.47525      .   S
    C813   O4701     0.47525      .   S
    C1023  O4702     0.71520      .   S
    C953   O4702     0.71520      .   S
    C849   O4703     0.47525      .   S
    C814   O4703     0.47525      .   S
    C1024  O4704     0.71520      .   S
    C954   O4704     0.71520      .   S
    C847   O4705     0.47525      .   S
    C812   O4705     0.47525      .   S
    C1022  O4706     0.71520      .   S
    C952   O4706     0.71520      .   S
    C813   O4707     0.70858      .   S
    C883   O4707     0.70858      .   S
    C814   O4708     0.70858      .   S
    C884   O4708     0.70858      .   S
    C812   O4709     0.70858      .   S
    C882   O4709     0.70858      .   S
    C952   O4710     0.47349      .   S
    C987   O4710     0.47349      .   S
    C952   O4711     0.65586      .   S
    C917   O4711     0.65586      .   S
    C953   O4712     0.47349      .   S
    C988   O4712     0.47349      .   S
    C953   O4713     0.65586      .   S
    C918   O4713     0.65586      .   S
    C954   O4714     0.47349      .   S
    C989   O4714     0.47349      .   S
    C954   O4715     0.65586      .   S
    C919   O4715     0.65586      .   S
    C709   O4716     0.44040      .   S
    C674   O4716     0.44040      .   S
    C707   O4717     0.44040      .   S
    C672   O4717     0.44040      .   S
    C708   O4718     0.44040      .   S
    C673   O4718     0.44040      .   S
    C882   O4719     0.71234      .   S
    C917   O4719     0.71234      .   S
    C882   O4720     0.71569      .   S
    C602   O4720     0.71569      .   S
    C884   O4721     0.71234      .   S
    C919   O4721     0.71234      .   S
    C884   O4722     0.71569      .   S
    C604   O4722     0.71569      .   S
    C883   O4723     0.71234      .   S
    C918   O4723     0.71234      .   S
    C883   O4724     0.71569      .   S
    C603   O4724     0.71569      .   S
    C289   O4725     0.56653      .   S
    C1094  O4725     0.56653      .   S
    C287   O4726     0.56653      .   S
    C1092  O4726     0.56653      .   S
    C288   O4727     0.56653      .   S
    C1093  O4727     0.56653      .   S
    C1094  O4728     0.63220      .   S
    C674   O4728     0.63220      .   S
    C1094  O4729     0.73453      .   S
    C604   O4729     0.73453      .   S
    C1092  O4730     0.63220      .   S
    C672   O4730     0.63220      .   S
    C1092  O4731     0.73453  1_565   S
    C602   O4731     0.73453      .   S
    C1093  O4732     0.63220      .   S
    C673   O4732     0.63220      .   S
    C1093  O4733     0.73453  1_455   S
    C603   O4733     0.73453      .   S
    C917   O4734     0.71075      .   S
    C1127  O4734     0.71075  1_565   S
    C918   O4735     0.71075      .   S
    C1128  O4735     0.71075  1_455   S
    C919   O4736     0.71075      .   S
    C1129  O4736     0.71075      .   S
    C673   O4737     0.73625      .   S
    C1163  O4737     0.73625      .   S
    C674   O4738     0.73625      .   S
    C1164  O4738     0.73625      .   S
    C672   O4739     0.73625      .   S
    C1162  O4739     0.73625      .   S
    C603   O4740     0.44146      .   S
    C638   O4740     0.44146      .   S
    C602   O4741     0.44146      .   S
    C637   O4741     0.44146      .   S
    C604   O4742     0.44146      .   S
    C639   O4742     0.44146      .   S
    C186   O4743     0.97060  1_545   S
    C128   O4743     0.97060      .   S
    C185   O4744     0.97060      .   S
    C127   O4744     0.97060      .   S
    C184   O4745     0.97060  1_655   S
    C129   O4745     0.97060      .   S
    C1129  O4746     0.72625      .   S
    C1164  O4746     0.72625      .   S
    C1129  O4747     0.74374      .   S
    C1374  O4747     0.74374      .   S
    C1127  O4748     0.72625      .   S
    C1162  O4748     0.72625      .   S
    C1127  O4749     0.74374      .   S
    C1372  O4749     0.74374      .   S
    C1128  O4750     0.72625      .   S
    C1163  O4750     0.72625      .   S
    C1128  O4751     0.74374      .   S
    C1373  O4751     0.74374      .   S
    C1162  O4752     0.69257      .   S
    C1197  O4752     0.69257      .   S
    C1163  O4753     0.69257      .   S
    C1198  O4753     0.69257      .   S
    C1164  O4754     0.69257      .   S
    C1199  O4754     0.69257      .   S
    C127   O4755     0.90314      .   S
    C351   O4755     0.90314      .   S
    C127   O4756     0.93867      .   S
    C318   O4756     0.93867      .   S
    C128   O4757     0.90314      .   S
    C352   O4757     0.90314  1_545   S
    C128   O4758     0.93867      .   S
    C316   O4758     0.93867      .   S
    C129   O4759     0.90314      .   S
    C353   O4759     0.90314  1_655   S
    C129   O4760     0.93867      .   S
    C317   O4760     0.93867      .   S
    C1199  O4761     0.47466      .   S
    C1234  O4761     0.47466      .   S
    C1199  O4762     0.71857      .   S
    C1269  O4762     0.71857      .   S
    C1198  O4763     0.47466      .   S
    C1233  O4763     0.47466      .   S
    C1198  O4764     0.71857      .   S
    C1268  O4764     0.71857      .   S
    C1197  O4765     0.47466      .   S
    C1232  O4765     0.47466      .   S
    C1197  O4766     0.71857      .   S
    C1267  O4766     0.71857      .   S
    C1372  O4767     0.47528      .   S
    C1407  O4767     0.47528      .   S
    C1372  O4768     0.64104      .   S
    C1302  O4768     0.64104      .   S
    C1373  O4769     0.47528      .   S
    C1408  O4769     0.47528      .   S
    C1373  O4770     0.64104      .   S
    C1303  O4770     0.64104      .   S
    C1374  O4771     0.47528      .   S
    C1409  O4771     0.47528      .   S
    C1374  O4772     0.64104      .   S
    C1304  O4772     0.64104      .   S
    C352   O4773     0.75796      .   S
    C1437  O4773     0.75796      .   S
    C353   O4774     0.75796      .   S
    C1438  O4774     0.75796      .   S
    C351   O4775     0.75796      .   S
    C1436  O4775     0.75796      .   S
    C316   O4776     0.58021  1_455   S
    C1436  O4776     0.58021      .   S
    C318   O4777     0.58021  1_565   S
    C1438  O4777     0.58021      .   S
    C317   O4778     0.58021      .   S
    C1437  O4778     0.58021      .   S
    C1438  O4779     0.76684      .   S
    C1263  O4779     0.76684      .   S
    C1437  O4780     0.76684      .   S
    C1262  O4780     0.76684      .   S
    C1436  O4781     0.76684      .   S
    C1261  O4781     0.76684      .   S
    C1332  O4782     0.47585      .   S
    C1297  O4782     0.47585      .   S
    C1331  O4783     0.47585      .   S
    C1296  O4783     0.47585      .   S
    C1333  O4784     0.47585      .   S
    C1298  O4784     0.47585      .   S
    C1269  O4785     0.70623      .   S
    C1304  O4785     0.70623      .   S
    C1269  O4786     0.76684      .   S
    C1444  O4786     0.76684      .   S
    C1268  O4787     0.70623      .   S
    C1303  O4787     0.70623      .   S
    C1268  O4788     0.76684      .   S
    C1443  O4788     0.76684      .   S
    C1267  O4789     0.70623      .   S
    C1302  O4789     0.70623      .   S
    C1267  O4790     0.76684      .   S
    C1442  O4790     0.76684      .   S
    C1304  O4791     0.47585      .   S
    C1339  O4791     0.47585      .   S
    C1303  O4792     0.47585      .   S
    C1338  O4792     0.47585      .   S
    C1302  O4793     0.47585      .   S
    C1337  O4793     0.47585      .   S
    C1298  O4794     0.70623      .   S
    C1263  O4794     0.70623      .   S
    C1298  O4795     0.64104      .   S
    C1368  O4795     0.64104      .   S
    C1297  O4796     0.70623      .   S
    C1262  O4796     0.70623      .   S
    C1297  O4797     0.64104      .   S
    C1367  O4797     0.64104      .   S
    C1296  O4798     0.70623      .   S
    C1261  O4798     0.70623      .   S
    C1296  O4799     0.64104      .   S
    C1366  O4799     0.64104      .   S
    C1263  O4800     0.71857      .   S
    C1193  O4800     0.71857      .   S
    C1262  O4801     0.71857      .   S
    C1192  O4801     0.71857      .   S
    C1261  O4802     0.71857      .   S
    C1191  O4802     0.71857      .   S
    C1444  O4803     0.58021      .   S
    C324   O4803     0.58021      .   S
    C1444  O4804     0.75796      .   S
    C359   O4804     0.75796      .   S
    C1442  O4805     0.58021      .   S
    C322   O4805     0.58021      .   S
    C1442  O4806     0.75796      .   S
    C357   O4806     0.75796      .   S
    C1443  O4807     0.58021      .   S
    C323   O4807     0.58021      .   S
    C1443  O4808     0.75796      .   S
    C358   O4808     0.75796      .   S
    C324   O4809     0.93867      .   S
    C133   O4809     0.93867      .   S
    C323   O4810     0.93867      .   S
    C135   O4810     0.93867      .   S
    C322   O4811     0.93867      .   S
    C134   O4811     0.93867      .   S
    C1402  O4812     0.47528      .   S
    C1367  O4812     0.47528      .   S
    C1403  O4813     0.47528      .   S
    C1368  O4813     0.47528      .   S
    C1401  O4814     0.47528      .   S
    C1366  O4814     0.47528      .   S
    C358   O4815     0.90314      .   S
    C134   O4815     0.90314      .   S
    C359   O4816     0.90314      .   S
    C135   O4816     0.90314      .   S
    C357   O4817     0.90314      .   S
    C133   O4817     0.90314      .   S
    C1226  O4818     0.47466  1_455   S
    C1191  O4818     0.47466      .   S
    C1227  O4819     0.47466      .   S
    C1192  O4819     0.47466      .   S
    C1228  O4820     0.47466  1_565   S
    C1193  O4820     0.47466      .   S
    C1366  O4821     0.74374      .   S
    C1121  O4821     0.74374      .   S
    C1367  O4822     0.74374      .   S
    C1122  O4822     0.74374      .   S
    C1368  O4823     0.74374      .   S
    C1123  O4823     0.74374      .   S
    C1191  O4824     0.69257      .   S
    C1156  O4824     0.69257      .   S
    C1192  O4825     0.69257      .   S
    C1157  O4825     0.69257      .   S
    C1193  O4826     0.69257      .   S
    C1158  O4826     0.69257      .   S
    C134   O4827     0.98052      .   S
    C429   O4827     0.98052      .   S
    C135   O4828     0.97060      .   S
    C188   O4828     0.97060      .   S
    C135   O4829     0.98052      .   S
    C427   O4829     0.98052      .   S
    C133   O4830     0.98052      .   S
    C428   O4830     0.98052      .   S
    C1156  O4831     0.72625      .   S
    C1121  O4831     0.72625      .   S
    C1156  O4832     0.73625      .   S
    C666   O4832     0.73625      .   S
    C1157  O4833     0.72625      .   S
    C1122  O4833     0.72625      .   S
    C1157  O4834     0.73625      .   S
    C667   O4834     0.73625      .   S
    C1158  O4835     0.72625      .   S
    C1123  O4835     0.72625      .   S
    C1158  O4836     0.73625      .   S
    C668   O4836     0.73625      .   S
    C1123  O4837     0.71075      .   S
    C913   O4837     0.71075      .   S
    C1122  O4838     0.71075      .   S
    C912   O4838     0.71075      .   S
    C1121  O4839     0.71075      .   S
    C911   O4839     0.71075      .   S
    C631   O4840     0.44146      .   S
    C596   O4840     0.44146      .   S
    C632   O4841     0.44146      .   S
    C597   O4841     0.44146      .   S
    C633   O4842     0.44146      .   S
    C598   O4842     0.44146      .   S
    C188   O4843     0.94408      .   S
    C158   O4843     0.94408      .   S
    C598   O4844     0.73453      .   S
    C1088  O4844     0.73453      .   S
    C598   O4845     0.71569      .   S
    C878   O4845     0.71569      .   S
    C597   O4846     0.73453      .   S
    C1087  O4846     0.73453      .   S
    C597   O4847     0.71569      .   S
    C877   O4847     0.71569      .   S
    C596   O4848     0.73453      .   S
    C1086  O4848     0.73453      .   S
    C596   O4849     0.71569      .   S
    C876   O4849     0.71569      .   S
    C668   O4850     0.63220      .   S
    C1088  O4850     0.63220      .   S
    C668   O4851     0.44040  1_545   S
    C703   O4851     0.44040      .   S
    C667   O4852     0.63220      .   S
    C1087  O4852     0.63220      .   S
    C667   O4853     0.44040      .   S
    C702   O4853     0.44040      .   S
    C666   O4854     0.63220      .   S
    C1086  O4854     0.63220      .   S
    C666   O4855     0.44040  1_655   S
    C701   O4855     0.44040      .   S
    C913   O4856     0.71234      .   S
    C878   O4856     0.71234      .   S
    C913   O4857     0.65586      .   S
    C948   O4857     0.65586      .   S
    C911   O4858     0.71234      .   S
    C876   O4858     0.71234      .   S
    C911   O4859     0.65586      .   S
    C946   O4859     0.65586      .   S
    C912   O4860     0.71234      .   S
    C877   O4860     0.71234      .   S
    C912   O4861     0.65586      .   S
    C947   O4861     0.65586      .   S
    C1087  O4862     0.56653      .   S
    C282   O4862     0.56653      .   S
    C1088  O4863     0.56653  1_545   S
    C283   O4863     0.56653      .   S
    C1086  O4864     0.56653  1_655   S
    C281   O4864     0.56653      .   S
    C876   O4865     0.70858      .   S
    C806   O4865     0.70858      .   S
    C877   O4866     0.70858      .   S
    C807   O4866     0.70858      .   S
    C878   O4867     0.70858      .   S
    C808   O4867     0.70858      .   S
    C983   O4868     0.47349      .   S
    C948   O4868     0.47349      .   S
    C982   O4869     0.47349      .   S
    C947   O4869     0.47349      .   S
    C981   O4870     0.47349      .   S
    C946   O4870     0.47349      .   S
    C427   O4871     0.63553      .   S
    C1477  O4871     0.63553      .   S
    C428   O4872     0.63553      .   S
    C1478  O4872     0.63553      .   S
    C429   O4873     0.63553      .   S
    C1479  O4873     0.63553      .   S
    C948   O4874     0.71520      .   S
    C1018  O4874     0.71520      .   S
    C947   O4875     0.71520      .   S
    C1017  O4875     0.71520      .   S
    C946   O4876     0.71520      .   S
    C1016  O4876     0.71520      .   S
    C497   O4877     0.57416      .   S
    C2422  O4877     0.57416      .   S
    C498   O4878     0.57416      .   S
    C2423  O4878     0.57416      .   S
    C499   O4879     0.57416      .   S
    C2424  O4879     0.57416      .   S
    C808   O4880     0.47525      .   S
    C843   O4880     0.47525      .   S
    C808   O4881     0.68736      .   S
    C773   O4881     0.68736      .   S
    C807   O4882     0.47525      .   S
    C842   O4882     0.47525      .   S
    C807   O4883     0.68736      .   S
    C772   O4883     0.68736      .   S
    C806   O4884     0.47525      .   S
    C841   O4884     0.47525      .   S
    C806   O4885     0.68736      .   S
    C771   O4885     0.68736      .   S
    C1757  O4886     0.47299      .   S
    C1722  O4886     0.47299      .   S
    C1759  O4887     0.47299      .   S
    C1724  O4887     0.47299      .   S
    C1758  O4888     0.47299      .   S
    C1723  O4888     0.47299      .   S
    C1017  O4889     0.72287      .   S
    C772   O4889     0.72287      .   S
    C1017  O4890     0.47468      .   S
    C1052  O4890     0.47468      .   S
    C1018  O4891     0.72287      .   S
    C773   O4891     0.72287      .   S
    C1018  O4892     0.47468      .   S
    C1053  O4892     0.47468      .   S
    C1016  O4893     0.72287      .   S
    C771   O4893     0.72287      .   S
    C1016  O4894     0.47468      .   S
    C1051  O4894     0.47468      .   S
    C158   O4895     0.96534      .   S
    C394   O4895     0.96534      .   S
    C158   O4896     0.96449      .   S
    C392   O4896     0.96449      .   S
    C158   O4897     0.96427      .   S
    C393   O4897     0.96427      .   S
    C772   O4898     0.73978      .   S
    C737   O4898     0.73978      .   S
    C773   O4899     0.73978      .   S
    C738   O4899     0.73978      .   S
    C771   O4900     0.73978      .   S
    C736   O4900     0.73978      .   S
    C2422  O4901     0.74713      .   S
    C2282  O4901     0.74713      .   S
    C2422  O4902     0.73469      .   S
    C2352  O4902     0.73469      .   S
    C2423  O4903     0.74713      .   S
    C2283  O4903     0.74713      .   S
    C2423  O4904     0.73469      .   S
    C2353  O4904     0.73469      .   S
    C2424  O4905     0.74713      .   S
    C2284  O4905     0.74713      .   S
    C2424  O4906     0.73469      .   S
    C2354  O4906     0.73469      .   S
    C1477  O4907     0.62440      .   S
    C392   O4907     0.62440      .   S
    C1477  O4908     0.76076      .   S
    C1512  O4908     0.76076      .   S
    C1478  O4909     0.62440      .   S
    C393   O4909     0.62440      .   S
    C1478  O4910     0.76076      .   S
    C1513  O4910     0.76076      .   S
    C1479  O4911     0.62440      .   S
    C394   O4911     0.62440      .   S
    C1479  O4912     0.76076      .   S
    C1514  O4912     0.76076      .   S
    C1724  O4913     0.66105      .   S
    C1514  O4913     0.66105      .   S
    C1724  O4914     0.72263      .   S
    C1689  O4914     0.72263      .   S
    C1723  O4915     0.66105      .   S
    C1513  O4915     0.66105      .   S
    C1723  O4916     0.72263      .   S
    C1688  O4916     0.72263      .   S
    C1722  O4917     0.66105      .   S
    C1512  O4917     0.66105      .   S
    C1722  O4918     0.72263      .   S
    C1687  O4918     0.72263      .   S
    C2319  O4919     0.43939      .   S
    C2284  O4919     0.43939      .   S
    C2318  O4920     0.43939      .   S
    C2283  O4920     0.43939      .   S
    C2317  O4921     0.43939      .   S
    C2282  O4921     0.43939      .   S
    C2282  O4922     0.69464      .   S
    C1687  O4922     0.69464      .   S
    C2283  O4923     0.69464      .   S
    C1688  O4923     0.69464      .   S
    C2284  O4924     0.69464      .   S
    C1689  O4924     0.69464      .   S
    C736   O4925     0.61258      .   S
    C211   O4925     0.61258      .   S
    C736   O4926     0.67137      .   S
    C246   O4926     0.67137      .   S
    C737   O4927     0.61258      .   S
    C212   O4927     0.61258      .   S
    C737   O4928     0.67137      .   S
    C247   O4928     0.67137      .   S
    C738   O4929     0.61258      .   S
    C213   O4929     0.61258      .   S
    C738   O4930     0.67137      .   S
    C248   O4930     0.67137      .   S
    C1512  O4931     0.69208      .   S
    C1547  O4931     0.69208      .   S
    C1513  O4932     0.69208      .   S
    C1548  O4932     0.69208      .   S
    C1514  O4933     0.69208      .   S
    C1549  O4933     0.69208      .   S
    C2388  O4934     0.43963      .   S
    C2353  O4934     0.43963      .   S
    C2389  O4935     0.43963      .   S
    C2354  O4935     0.43963      .   S
    C2387  O4936     0.43963      .   S
    C2352  O4936     0.43963      .   S
    C211   O4937     0.95602      .   S
    C94    O4937     0.95602      .   S
    C212   O4938     0.95602      .   S
    C92    O4938     0.95602      .   S
    C213   O4939     0.95602      .   S
    C93    O4939     0.95602      .   S
    C2352  O4940     0.68343      .   S
    C2037  O4940     0.68343      .   S
    C2353  O4941     0.68343      .   S
    C2038  O4941     0.68343      .   S
    C2354  O4942     0.68343      .   S
    C2039  O4942     0.68343      .   S
    C1687  O4943     0.65693      .   S
    C1652  O4943     0.65693      .   S
    C1688  O4944     0.65693      .   S
    C1653  O4944     0.65693      .   S
    C1689  O4945     0.65693      .   S
    C1654  O4945     0.65693      .   S
    C246   O4946     0.93696      .   S
    C92    O4946     0.93696      .   S
    C247   O4947     0.93696      .   S
    C93    O4947     0.93696      .   S
    C248   O4948     0.93696      .   S
    C94    O4948     0.93696      .   S
    C1549  O4949     0.47538      .   S
    C1584  O4949     0.47538      .   S
    C1549  O4950     0.71927      .   S
    C1619  O4950     0.71927      .   S
    C1548  O4951     0.47538      .   S
    C1583  O4951     0.47538      .   S
    C1548  O4952     0.71927      .   S
    C1618  O4952     0.71927      .   S
    C1547  O4953     0.47538      .   S
    C1582  O4953     0.47538      .   S
    C1547  O4954     0.71927      .   S
    C1617  O4954     0.71927      .   S
    C94    O4955     0.93728      .   S
    C523   O4955     0.93728      .   S
    C92    O4956     0.96644      .   S
    C173   O4956     0.96644      .   S
    C92    O4957     0.93728      .   S
    C525   O4957     0.93728      .   S
    C93    O4958     0.96644      .   S
    C173   O4958     0.96644      .   S
    C93    O4959     0.93728      .   S
    C524   O4959     0.93728      .   S
    C1654  O4960     0.69090      .   S
    C1619  O4960     0.69090      .   S
    C1654  O4961     0.70758      .   S
    C1794  O4961     0.70758      .   S
    C1652  O4962     0.69090      .   S
    C1617  O4962     0.69090      .   S
    C1652  O4963     0.70758      .   S
    C1792  O4963     0.70758      .   S
    C1653  O4964     0.69090      .   S
    C1618  O4964     0.69090      .   S
    C1653  O4965     0.70758      .   S
    C1793  O4965     0.70758      .   S
    C2037  O4966     0.70761      .   S
    C1792  O4966     0.70761      .   S
    C2037  O4967     0.66931      .   S
    C1967  O4967     0.66931      .   S
    C2038  O4968     0.70761      .   S
    C1793  O4968     0.70761      .   S
    C2038  O4969     0.66931      .   S
    C1968  O4969     0.66931      .   S
    C2039  O4970     0.70761      .   S
    C1794  O4970     0.70761      .   S
    C2039  O4971     0.66931      .   S
    C1969  O4971     0.66931      .   S
    C1617  O4972     0.72430      .   S
    C2107  O4972     0.72430      .   S
    C1618  O4973     0.72430      .   S
    C2108  O4973     0.72430      .   S
    C1619  O4974     0.72430      .   S
    C2109  O4974     0.72430      .   S
    C2002  O4975     0.47401      .   S
    C1967  O4975     0.47401      .   S
    C2003  O4976     0.47401      .   S
    C1968  O4976     0.47401      .   S
    C2004  O4977     0.47401      .   S
    C1969  O4977     0.47401      .   S
    C1792  O4978     0.71781      .   S
    C1827  O4978     0.71781      .   S
    C1793  O4979     0.71781      .   S
    C1828  O4979     0.71781      .   S
    C1794  O4980     0.71781      .   S
    C1829  O4980     0.71781      .   S
    C1969  O4981     0.68738      .   S
    C1934  O4981     0.68738      .   S
    C1967  O4982     0.68738      .   S
    C1932  O4982     0.68738      .   S
    C1968  O4983     0.68738      .   S
    C1933  O4983     0.68738      .   S
    C525   O4984     0.59521      .   S
    C2065  O4984     0.59521      .   S
    C524   O4985     0.59521      .   S
    C2064  O4985     0.59521      .   S
    C523   O4986     0.59521      .   S
    C2063  O4986     0.59521      .   S
    C453   O4987     0.56083      .   S
    C2238  O4987     0.56083      .   S
    C454   O4988     0.56083      .   S
    C2239  O4988     0.56083      .   S
    C455   O4989     0.56083      .   S
    C2240  O4989     0.56083      .   S
    C2144  O4990     0.43889      .   S
    C2109  O4990     0.43889      .   S
    C2143  O4991     0.43889      .   S
    C2108  O4991     0.43889      .   S
    C2142  O4992     0.43889      .   S
    C2107  O4992     0.43889      .   S
    C2107  O4993     0.73227      .   S
    C2247  O4993     0.73227      .   S
    C2108  O4994     0.73227      .   S
    C2248  O4994     0.73227      .   S
    C2109  O4995     0.73227      .   S
    C2249  O4995     0.73227      .   S
    C1890  O4996     0.47404      .   S
    C1855  O4996     0.47404      .   S
    C1888  O4997     0.47404      .   S
    C1853  O4997     0.47404      .   S
    C1889  O4998     0.47404      .   S
    C1854  O4998     0.47404      .   S
    C2203  O4999     0.44151      .   S
    C2168  O4999     0.44151      .   S
    C2204  O5000     0.44151      .   S
    C2169  O5000     0.44151      .   S
    C2205  O5001     0.44151      .   S
    C2170  O5001     0.44151      .   S
    C1829  O5002     0.66841      .   S
    C1864  O5002     0.66841      .   S
    C1829  O5003     0.74020      .   S
    C2179  O5003     0.74020      .   S
    C1827  O5004     0.66841      .   S
    C1862  O5004     0.66841      .   S
    C1827  O5005     0.74020      .   S
    C2177  O5005     0.74020      .   S
    C1828  O5006     0.66841      .   S
    C1863  O5006     0.66841      .   S
    C1828  O5007     0.74020      .   S
    C2178  O5007     0.74020      .   S
    C1933  O5008     0.71283      .   S
    C1863  O5008     0.71283      .   S
    C1933  O5009     0.77729      .   S
    C2073  O5009     0.77729      .   S
    C1934  O5010     0.71283      .   S
    C1864  O5010     0.71283      .   S
    C1934  O5011     0.77729      .   S
    C2074  O5011     0.77729      .   S
    C1932  O5012     0.71283      .   S
    C1862  O5012     0.71283      .   S
    C1932  O5013     0.77729      .   S
    C2072  O5013     0.77729      .   S
    C2065  O5014     0.66986      .   S
    C560   O5014     0.66986      .   S
    C2065  O5015     0.77729      .   S
    C1925  O5015     0.77729      .   S
    C2064  O5016     0.66986      .   S
    C559   O5016     0.66986      .   S
    C2064  O5017     0.77729      .   S
    C1924  O5017     0.77729      .   S
    C2063  O5018     0.66986      .   S
    C558   O5018     0.66986      .   S
    C2063  O5019     0.77729      .   S
    C1923  O5019     0.77729      .   S
    C73    O5020     0.95489      .   S
    C560   O5020     0.95489      .   S
    C73    O5021     0.95489      .   S
    C559   O5021     0.95489      .   S
    C73    O5022     0.95489      .   S
    C558   O5022     0.95489      .   S
    C2238  O5023     0.72243      .   S
    C2168  O5023     0.72243      .   S
    C2238  O5024     0.73227      .   S
    C2098  O5024     0.73227      .   S
    C2239  O5025     0.72243      .   S
    C2169  O5025     0.72243      .   S
    C2239  O5026     0.73227      .   S
    C2099  O5026     0.73227      .   S
    C2240  O5027     0.72243      .   S
    C2170  O5027     0.72243      .   S
    C2240  O5028     0.73227      .   S
    C2100  O5028     0.73227      .   S
    C567   O5029     0.95489      .   S
    C70    O5029     0.95489      .   S
    C567   O5030     0.66986      .   S
    C2072  O5030     0.66986      .   S
    C568   O5031     0.95489      .   S
    C70    O5031     0.95489  1_445   S
    C568   O5032     0.66986      .   S
    C2073  O5032     0.66986      .   S
    C569   O5033     0.95489      .   S
    C70    O5033     0.95489  1_545   S
    C569   O5034     0.66986      .   S
    C2074  O5034     0.66986      .   S
    C2170  O5035     0.74020      .   S
    C1820  O5035     0.74020      .   S
    C2169  O5036     0.74020      .   S
    C1819  O5036     0.74020  1_545   S
    C2168  O5037     0.74020      .   S
    C1818  O5037     0.74020  1_655   S
    C1855  O5038     0.71283      .   S
    C1925  O5038     0.71283      .   S
    C1855  O5039     0.66841      .   S
    C1820  O5039     0.66841      .   S
    C1854  O5040     0.71283      .   S
    C1924  O5040     0.71283      .   S
    C1854  O5041     0.66841      .   S
    C1819  O5041     0.66841      .   S
    C1853  O5042     0.71283      .   S
    C1923  O5042     0.71283      .   S
    C1853  O5043     0.66841      .   S
    C1818  O5043     0.66841      .   S
    C1862  O5044     0.47404      .   S
    C1897  O5044     0.47404      .   S
    C1864  O5045     0.47404      .   S
    C1899  O5045     0.47404      .   S
    C1863  O5046     0.47404      .   S
    C1898  O5046     0.47404      .   S
    C2179  O5047     0.72243      .   S
    C2249  O5047     0.72243      .   S
    C2179  O5048     0.44151      .   S
    C2214  O5048     0.44151      .   S
    C2177  O5049     0.72243      .   S
    C2247  O5049     0.72243      .   S
    C2177  O5050     0.44151      .   S
    C2212  O5050     0.44151      .   S
    C2178  O5051     0.72243      .   S
    C2248  O5051     0.72243      .   S
    C2178  O5052     0.44151      .   S
    C2213  O5052     0.44151      .   S
    C2247  O5053     0.56083      .   S
    C462   O5053     0.56083      .   S
    C2248  O5054     0.56083      .   S
    C463   O5054     0.56083      .   S
    C2249  O5055     0.56083      .   S
    C464   O5055     0.56083      .   S
    C2074  O5056     0.59521      .   S
    C534   O5056     0.59521      .   S
    C2072  O5057     0.59521      .   S
    C532   O5057     0.59521      .   S
    C2073  O5058     0.59521      .   S
    C533   O5058     0.59521      .   S
    C1924  O5059     0.68738      .   S
    C1959  O5059     0.68738      .   S
    C1925  O5060     0.68738      .   S
    C1960  O5060     0.68738      .   S
    C1923  O5061     0.68738      .   S
    C1958  O5061     0.68738      .   S
    C1820  O5062     0.71781      .   S
    C1785  O5062     0.71781      .   S
    C1819  O5063     0.71781      .   S
    C1784  O5063     0.71781      .   S
    C1818  O5064     0.71781      .   S
    C1783  O5064     0.71781      .   S
    C2100  O5065     0.43889      .   S
    C2135  O5065     0.43889      .   S
    C2100  O5066     0.72430      .   S
    C1610  O5066     0.72430      .   S
    C2098  O5067     0.43889      .   S
    C2133  O5067     0.43889      .   S
    C2098  O5068     0.72430      .   S
    C1608  O5068     0.72430      .   S
    C2099  O5069     0.43889      .   S
    C2134  O5069     0.43889      .   S
    C2099  O5070     0.72430      .   S
    C1609  O5070     0.72430      .   S
    C532   O5071     0.93728      .   S
    C85    O5071     0.93728      .   S
    C533   O5072     0.93728      .   S
    C84    O5072     0.93728      .   S
    C534   O5073     0.93728      .   S
    C83    O5073     0.93728      .   S
    C1960  O5074     0.47401      .   S
    C1995  O5074     0.47401      .   S
    C1960  O5075     0.66931      .   S
    C2030  O5075     0.66931      .   S
    C1959  O5076     0.47401      .   S
    C1994  O5076     0.47401      .   S
    C1959  O5077     0.66931      .   S
    C2029  O5077     0.66931      .   S
    C1958  O5078     0.47401      .   S
    C1993  O5078     0.47401      .   S
    C1958  O5079     0.66931      .   S
    C2028  O5079     0.66931      .   S
    C1783  O5080     0.70761      .   S
    C2028  O5080     0.70761      .   S
    C1783  O5081     0.70758  1_655   S
    C1643  O5081     0.70758      .   S
    C1784  O5082     0.70761      .   S
    C2029  O5082     0.70761      .   S
    C1784  O5083     0.70758  1_545   S
    C1644  O5083     0.70758      .   S
    C1785  O5084     0.70761      .   S
    C2030  O5084     0.70761      .   S
    C1785  O5085     0.70758      .   S
    C1645  O5085     0.70758      .   S
    C170   O5086     0.96644  1_445   S
    C84    O5086     0.96644      .   S
    C170   O5087     0.96644  1_545   S
    C83    O5087     0.96644      .   S
    C1609  O5088     0.69090      .   S
    C1644  O5088     0.69090      .   S
    C1609  O5089     0.71927      .   S
    C1539  O5089     0.71927      .   S
    C1610  O5090     0.69090      .   S
    C1645  O5090     0.69090      .   S
    C1610  O5091     0.71927      .   S
    C1540  O5091     0.71927      .   S
    C1608  O5092     0.69090      .   S
    C1643  O5092     0.69090      .   S
    C1608  O5093     0.71927      .   S
    C1538  O5093     0.71927      .   S
    C2028  O5094     0.68343      .   S
    C2343  O5094     0.68343      .   S
    C2030  O5095     0.68343      .   S
    C2345  O5095     0.68343      .   S
    C2029  O5096     0.68343      .   S
    C2344  O5096     0.68343      .   S
    C1575  O5097     0.47538      .   S
    C1540  O5097     0.47538      .   S
    C1574  O5098     0.47538      .   S
    C1539  O5098     0.47538      .   S
    C1573  O5099     0.47538      .   S
    C1538  O5099     0.47538      .   S
    C1643  O5100     0.65693      .   S
    C1678  O5100     0.65693      .   S
    C1644  O5101     0.65693      .   S
    C1679  O5101     0.65693      .   S
    C1645  O5102     0.65693      .   S
    C1680  O5102     0.65693      .   S
    C84    O5103     0.93696      .   S
    C238   O5103     0.93696      .   S
    C84    O5104     0.95602      .   S
    C204   O5104     0.95602      .   S
    C85    O5105     0.93696  1_455   S
    C239   O5105     0.93696      .   S
    C85    O5106     0.95602      .   S
    C202   O5106     0.95602      .   S
    C83    O5107     0.93696  1_565   S
    C237   O5107     0.93696      .   S
    C83    O5108     0.95602      .   S
    C203   O5108     0.95602      .   S
    C1540  O5109     0.69208      .   S
    C1505  O5109     0.69208      .   S
    C1539  O5110     0.69208      .   S
    C1504  O5110     0.69208      .   S
    C1538  O5111     0.69208      .   S
    C1503  O5111     0.69208      .   S
    C239   O5112     0.67137      .   S
    C729   O5112     0.67137      .   S
    C238   O5113     0.67137      .   S
    C728   O5113     0.67137      .   S
    C237   O5114     0.67137      .   S
    C727   O5114     0.67137      .   S
    C1680  O5115     0.69464      .   S
    C2275  O5115     0.69464      .   S
    C1680  O5116     0.72263      .   S
    C1715  O5116     0.72263      .   S
    C1679  O5117     0.69464      .   S
    C2274  O5117     0.69464  1_545   S
    C1679  O5118     0.72263      .   S
    C1714  O5118     0.72263      .   S
    C1678  O5119     0.69464      .   S
    C2273  O5119     0.69464  1_655   S
    C1678  O5120     0.72263      .   S
    C1713  O5120     0.72263      .   S
    C2344  O5121     0.43963      .   S
    C2379  O5121     0.43963      .   S
    C2344  O5122     0.73469      .   S
    C2414  O5122     0.73469      .   S
    C2345  O5123     0.43963      .   S
    C2380  O5123     0.43963      .   S
    C2345  O5124     0.73469      .   S
    C2415  O5124     0.73469      .   S
    C2343  O5125     0.43963      .   S
    C2378  O5125     0.43963      .   S
    C2343  O5126     0.73469      .   S
    C2413  O5126     0.73469      .   S
    C202   O5127     0.61258      .   S
    C727   O5127     0.61258      .   S
    C203   O5128     0.61258  1_455   S
    C728   O5128     0.61258      .   S
    C204   O5129     0.61258  1_565   S
    C729   O5129     0.61258      .   S
    C1503  O5130     0.66105      .   S
    C1713  O5130     0.66105      .   S
    C1503  O5131     0.76076      .   S
    C1468  O5131     0.76076      .   S
    C1504  O5132     0.66105      .   S
    C1714  O5132     0.66105      .   S
    C1504  O5133     0.76076      .   S
    C1469  O5133     0.76076      .   S
    C1505  O5134     0.66105      .   S
    C1715  O5134     0.66105      .   S
    C1505  O5135     0.76076      .   S
    C1470  O5135     0.76076      .   S
    C727   O5136     0.73978      .   S
    C762   O5136     0.73978      .   S
    C728   O5137     0.73978      .   S
    C763   O5137     0.73978      .   S
    C729   O5138     0.73978      .   S
    C764   O5138     0.73978      .   S
    C385   O5139     0.62440      .   S
    C1470  O5139     0.62440      .   S
    C385   O5140     0.96534      .   S
    C153   O5140     0.96534      .   S
    C384   O5141     0.62440      .   S
    C1469  O5141     0.62440      .   S
    C384   O5142     0.96427      .   S
    C153   O5142     0.96427      .   S
    C383   O5143     0.62440      .   S
    C1468  O5143     0.62440      .   S
    C383   O5144     0.96449      .   S
    C153   O5144     0.96449      .   S
    C2273  O5145     0.43939      .   S
    C2308  O5145     0.43939      .   S
    C2273  O5146     0.74713      .   S
    C2413  O5146     0.74713      .   S
    C2275  O5147     0.43939      .   S
    C2310  O5147     0.43939      .   S
    C2275  O5148     0.74713      .   S
    C2415  O5148     0.74713      .   S
    C2274  O5149     0.43939      .   S
    C2309  O5149     0.43939      .   S
    C2274  O5150     0.74713      .   S
    C2414  O5150     0.74713      .   S
    C1713  O5151     0.47299      .   S
    C1748  O5151     0.47299      .   S
    C1714  O5152     0.47299      .   S
    C1749  O5152     0.47299      .   S
    C1715  O5153     0.47299      .   S
    C1750  O5153     0.47299      .   S
    C1470  O5154     0.63553      .   S
    C420   O5154     0.63553      .   S
    C1469  O5155     0.63553      .   S
    C419   O5155     0.63553      .   S
    C1468  O5156     0.63553      .   S
    C418   O5156     0.63553      .   S
    C2413  O5157     0.57416      .   S
    C488   O5157     0.57416      .   S
    C2414  O5158     0.57416      .   S
    C489   O5158     0.57416      .   S
    C2415  O5159     0.57416      .   S
    C490   O5159     0.57416      .   S
    C1042  O5160     0.47468      .   S
    C1007  O5160     0.47468      .   S
    C1043  O5161     0.47468      .   S
    C1008  O5161     0.47468      .   S
    C1044  O5162     0.47468      .   S
    C1009  O5162     0.47468      .   S
    C762   O5163     0.72287      .   S
    C1007  O5163     0.72287      .   S
    C762   O5164     0.68736      .   S
    C797   O5164     0.68736      .   S
    C763   O5165     0.72287      .   S
    C1008  O5165     0.72287      .   S
    C763   O5166     0.68736      .   S
    C798   O5166     0.68736      .   S
    C764   O5167     0.72287      .   S
    C1009  O5167     0.72287      .   S
    C764   O5168     0.68736      .   S
    C799   O5168     0.68736      .   S
    C153   O5169     0.94408      .   S
    C183   O5169     0.94408      .   S
    C1008  O5170     0.71520      .   S
    C938   O5170     0.71520      .   S
    C1007  O5171     0.71520      .   S
    C937   O5171     0.71520      .   S
    C1009  O5172     0.71520      .   S
    C939   O5172     0.71520      .   S
    C833   O5173     0.47525  1_455   S
    C798   O5173     0.47525      .   S
    C832   O5174     0.47525      .   S
    C797   O5174     0.47525      .   S
    C834   O5175     0.47525  1_565   S
    C799   O5175     0.47525      .   S
    C797   O5176     0.70858      .   S
    C867   O5176     0.70858      .   S
    C799   O5177     0.70858      .   S
    C869   O5177     0.70858      .   S
    C798   O5178     0.70858      .   S
    C868   O5178     0.70858      .   S
    C939   O5179     0.47349      .   S
    C974   O5179     0.47349      .   S
    C939   O5180     0.65586      .   S
    C904   O5180     0.65586      .   S
    C938   O5181     0.47349      .   S
    C973   O5181     0.47349      .   S
    C938   O5182     0.65586      .   S
    C903   O5182     0.65586      .   S
    C937   O5183     0.47349      .   S
    C972   O5183     0.47349      .   S
    C937   O5184     0.65586      .   S
    C902   O5184     0.65586      .   S
    C420   O5185     0.98052      .   S
    C125   O5185     0.98052      .   S
    C419   O5186     0.98052      .   S
    C124   O5186     0.98052      .   S
    C418   O5187     0.98052      .   S
    C126   O5187     0.98052      .   S
    C694   O5188     0.44040      .   S
    C659   O5188     0.44040      .   S
    C692   O5189     0.44040      .   S
    C657   O5189     0.44040      .   S
    C693   O5190     0.44040      .   S
    C658   O5190     0.44040      .   S
    C869   O5191     0.71234      .   S
    C904   O5191     0.71234      .   S
    C869   O5192     0.71569      .   S
    C589   O5192     0.71569      .   S
    C868   O5193     0.71234      .   S
    C903   O5193     0.71234      .   S
    C868   O5194     0.71569      .   S
    C588   O5194     0.71569      .   S
    C867   O5195     0.71234      .   S
    C902   O5195     0.71234      .   S
    C867   O5196     0.71569      .   S
    C587   O5196     0.71569      .   S
    C274   O5197     0.56653      .   S
    C1079  O5197     0.56653  1_545   S
    C273   O5198     0.56653      .   S
    C1078  O5198     0.56653  1_655   S
    C272   O5199     0.56653      .   S
    C1077  O5199     0.56653      .   S
    C1079  O5200     0.63220      .   S
    C659   O5200     0.63220      .   S
    C1079  O5201     0.73453      .   S
    C589   O5201     0.73453      .   S
    C1077  O5202     0.63220      .   S
    C657   O5202     0.63220      .   S
    C1077  O5203     0.73453      .   S
    C587   O5203     0.73453      .   S
    C1078  O5204     0.63220      .   S
    C658   O5204     0.63220      .   S
    C1078  O5205     0.73453      .   S
    C588   O5205     0.73453      .   S
    C904   O5206     0.71075      .   S
    C1114  O5206     0.71075      .   S
    C903   O5207     0.71075      .   S
    C1113  O5207     0.71075      .   S
    C902   O5208     0.71075      .   S
    C1112  O5208     0.71075      .   S
    C657   O5209     0.73625      .   S
    C1147  O5209     0.73625      .   S
    C659   O5210     0.73625      .   S
    C1149  O5210     0.73625      .   S
    C658   O5211     0.73625      .   S
    C1148  O5211     0.73625      .   S
    C587   O5212     0.44146      .   S
    C622   O5212     0.44146      .   S
    C588   O5213     0.44146  1_655   S
    C623   O5213     0.44146      .   S
    C589   O5214     0.44146  1_545   S
    C624   O5214     0.44146      .   S
    C183   O5215     0.97060      .   S
    C126   O5215     0.97060      .   S
    C1112  O5216     0.72625      .   S
    C1147  O5216     0.72625      .   S
    C1112  O5217     0.74374      .   S
    C1357  O5217     0.74374      .   S
    C1113  O5218     0.72625      .   S
    C1148  O5218     0.72625      .   S
    C1113  O5219     0.74374      .   S
    C1358  O5219     0.74374      .   S
    C1114  O5220     0.72625      .   S
    C1149  O5220     0.72625      .   S
    C1114  O5221     0.74374      .   S
    C1359  O5221     0.74374      .   S
    C1147  O5222     0.69257      .   S
    C1182  O5222     0.69257      .   S
    C1148  O5223     0.69257      .   S
    C1183  O5223     0.69257      .   S
    C1149  O5224     0.69257      .   S
    C1184  O5224     0.69257      .   S
    C125   O5225     0.90314      .   S
    C349   O5225     0.90314      .   S
    C125   O5226     0.93867      .   S
    C313   O5226     0.93867      .   S
    C124   O5227     0.90314      .   S
    C348   O5227     0.90314      .   S
    C124   O5228     0.93867      .   S
    C315   O5228     0.93867      .   S
    C126   O5229     0.90314      .   S
    C350   O5229     0.90314      .   S
    C126   O5230     0.93867      .   S
    C314   O5230     0.93867      .   S
    C1182  O5231     0.47466      .   S
    C1217  O5231     0.47466      .   S
    C1182  O5232     0.71857      .   S
    C1252  O5232     0.71857      .   S
    C1183  O5233     0.47466      .   S
    C1218  O5233     0.47466      .   S
    C1183  O5234     0.71857      .   S
    C1253  O5234     0.71857      .   S
    C1184  O5235     0.47466      .   S
    C1219  O5235     0.47466      .   S
    C1184  O5236     0.71857      .   S
    C1254  O5236     0.71857      .   S
    C1357  O5237     0.47528      .   S
    C1392  O5237     0.47528      .   S
    C1357  O5238     0.64104      .   S
    C1287  O5238     0.64104      .   S
    C1359  O5239     0.47528      .   S
    C1394  O5239     0.47528      .   S
    C1359  O5240     0.64104      .   S
    C1289  O5240     0.64104      .   S
    C1358  O5241     0.47528      .   S
    C1393  O5241     0.47528      .   S
    C1358  O5242     0.64104      .   S
    C1288  O5242     0.64104      .   S
    C350   O5243     0.75796      .   S
    C1435  O5243     0.75796      .   S
    C349   O5244     0.75796      .   S
    C1434  O5244     0.75796      .   S
    C348   O5245     0.75796      .   S
    C1433  O5245     0.75796      .   S
    C313   O5246     0.58021      .   S
    C1433  O5246     0.58021      .   S
    C314   O5247     0.58021      .   S
    C1434  O5247     0.58021      .   S
    C315   O5248     0.58021      .   S
    C1435  O5248     0.58021      .   S
    C1253  O5249     0.70623      .   S
    C1288  O5249     0.70623      .   S
    C1254  O5250     0.70623      .   S
    C1289  O5250     0.70623      .   S
    C1252  O5251     0.70623      .   S
    C1287  O5251     0.70623      .   S
    C4     O5252     0.97120      .   S
    C0     O5252     0.97120      .   S
    C4     O5253     0.96644  1_445   S
    C81    O5253     0.96644      .   S
    C5     O5254     0.97080      .   S
    C2     O5254     0.97080      .   S
    C5     O5255     0.97168      .   S
    C116   O5255     0.97168      .   S
    C170   O5256     0.97120      .   S
    C70    O5256     0.97120      .   S
    C170   O5257     0.96644      .   S
    C85    O5257     0.96644      .   S
    C171   O5258     0.97120      .   S
    C71    O5258     0.97120      .   S
    C171   O5259     0.96644  1_445   S
    C88    O5259     0.96644      .   S
    C172   O5260     0.97120      .   S
    C72    O5260     0.97120      .   S
    C172   O5261     0.96644  1_445   S
    C91    O5261     0.96644      .   S
    C173   O5262     0.97120      .   S
    C73    O5262     0.97120      .   S
    C173   O5263     0.96644      .   S
    C94    O5263     0.96644      .   S
    C174   O5264     0.97120      .   S
    C74    O5264     0.97120      .   S
    C174   O5265     0.96644      .   S
    C96    O5265     0.96644      .   S
    C175   O5266     0.97120      .   S
    C75    O5266     0.97120      .   S
    C175   O5267     0.96644      .   S
    C100   O5267     0.96644      .   S
    C176   O5268     0.97120      .   S
    C76    O5268     0.97120      .   S
    C176   O5269     0.96644      .   S
    C102   O5269     0.96644      .   S
    C177   O5270     0.97120      .   S
    C77    O5270     0.97120      .   S
    C177   O5271     0.96644      .   S
    C105   O5271     0.96644      .   S
    C178   O5272     0.97120      .   S
    C78    O5272     0.97120      .   S
    C178   O5273     0.96644      .   S
    C108   O5273     0.96644      .   S
    C179   O5274     0.97120      .   S
    C79    O5274     0.97120      .   S
    C179   O5275     0.96644      .   S
    C112   O5275     0.96644      .   S
    C180   O5276     0.97120      .   S
    C80    O5276     0.97120      .   S
    C180   O5277     0.96644      .   S
    C115   O5277     0.96644      .   S
    C181   O5278     0.97080      .   S
    C118   O5278     0.97080      .   S
    C181   O5279     0.97168      .   S
    C119   O5279     0.97168      .   S
    C182   O5280     0.97080      .   S
    C121   O5280     0.97080      .   S
    C182   O5281     0.97168      .   S
    C122   O5281     0.97168      .   S
    C183   O5282     0.97080      .   S
    C124   O5282     0.97080      .   S
    C183   O5283     0.97168      .   S
    C125   O5283     0.97168      .   S
    C184   O5284     0.97080  1_545   S
    C127   O5284     0.97080      .   S
    C184   O5285     0.97168  1_645   S
    C128   O5285     0.97168      .   S
    C184   O5286     0.94408  1_545   S
    C155   O5286     0.94408      .   S
    C184   O5287     0.94408  1_655   S
    C156   O5287     0.94408      .   S
    C185   O5288     0.97080  1_655   S
    C128   O5288     0.97080      .   S
    C185   O5289     0.97168  1_665   S
    C129   O5289     0.97168      .   S
    C185   O5290     0.94408      .   S
    C154   O5290     0.94408  1_545   S
    C185   O5291     0.94408  1_655   S
    C156   O5291     0.94408  1_545   S
    C186   O5292     0.97168  1_445   S
    C127   O5292     0.97168      .   S
    C186   O5293     0.97080      .   S
    C129   O5293     0.97080      .   S
    C186   O5294     0.94408      .   S
    C154   O5294     0.94408  1_655   S
    C186   O5295     0.94408  1_545   S
    C155   O5295     0.94408  1_655   S
    C187   O5296     0.97080      .   S
    C130   O5296     0.97080      .   S
    C187   O5297     0.97168      .   S
    C131   O5297     0.97168      .   S
    C188   O5298     0.97080      .   S
    C133   O5298     0.97080      .   S
    C188   O5299     0.97168      .   S
    C134   O5299     0.97168      .   S
    C189   O5300     0.97080  1_655   S
    C136   O5300     0.97080      .   S
    C189   O5301     0.97168  1_645   S
    C137   O5301     0.97168      .   S
    C189   O5302     0.94408  1_655   S
    C160   O5302     0.94408      .   S
    C189   O5303     0.94408  1_545   S
    C161   O5303     0.94408      .   S
    C190   O5304     0.97080  1_545   S
    C137   O5304     0.97080      .   S
    C190   O5305     0.97168  1_445   S
    C138   O5305     0.97168      .   S
    C190   O5306     0.94408      .   S
    C159   O5306     0.94408  1_655   S
    C190   O5307     0.94408  1_545   S
    C161   O5307     0.94408  1_655   S
    C191   O5308     0.97168  1_665   S
    C136   O5308     0.97168      .   S
    C191   O5309     0.97080      .   S
    C138   O5309     0.97080      .   S
    C191   O5310     0.94408      .   S
    C159   O5310     0.94408  1_545   S
    C191   O5311     0.94408  1_655   S
    C160   O5311     0.94408  1_545   S
    C192   O5312     0.97080      .   S
    C139   O5312     0.97080      .   S
    C192   O5313     0.97168      .   S
    C140   O5313     0.97168      .   S
    C193   O5314     0.97080  1_455   S
    C142   O5314     0.97080      .   S
    C193   O5315     0.97168  1_465   S
    C143   O5315     0.97168      .   S
    C193   O5316     0.94408  1_455   S
    C164   O5316     0.94408      .   S
    C193   O5317     0.94408  1_565   S
    C165   O5317     0.94408      .   S
    C194   O5318     0.97080  1_565   S
    C143   O5318     0.97080      .   S
    C194   O5319     0.97168  1_665   S
    C144   O5319     0.97168      .   S
    C194   O5320     0.94408      .   S
    C163   O5320     0.94408  1_455   S
    C194   O5321     0.94408  1_565   S
    C165   O5321     0.94408  1_455   S
    C195   O5322     0.97168  1_445   S
    C142   O5322     0.97168      .   S
    C195   O5323     0.97080      .   S
    C144   O5323     0.97080      .   S
    C195   O5324     0.94408      .   S
    C163   O5324     0.94408  1_565   S
    C195   O5325     0.94408  1_455   S
    C164   O5325     0.94408  1_565   S
    C196   O5326     0.97080  1_565   S
    C145   O5326     0.97080      .   S
    C196   O5327     0.97168  1_465   S
    C146   O5327     0.97168      .   S
    C196   O5328     0.94408  1_565   S
    C167   O5328     0.94408      .   S
    C196   O5329     0.94408  1_455   S
    C168   O5329     0.94408      .   S
    C197   O5330     0.97080  1_455   S
    C146   O5330     0.97080      .   S
    C197   O5331     0.97168  1_445   S
    C147   O5331     0.97168      .   S
    C197   O5332     0.94408      .   S
    C166   O5332     0.94408  1_565   S
    C197   O5333     0.94408  1_455   S
    C168   O5333     0.94408  1_565   S
    C198   O5334     0.97168  1_665   S
    C145   O5334     0.97168      .   S
    C198   O5335     0.97080      .   S
    C147   O5335     0.97080      .   S
    C198   O5336     0.94408      .   S
    C166   O5336     0.94408  1_455   S
    C198   O5337     0.94408  1_565   S
    C167   O5337     0.94408  1_455   S
    C199   O5338     0.97080      .   S
    C148   O5338     0.97080      .   S
    C199   O5339     0.97168      .   S
    C149   O5339     0.97168      .   S
    C386   O5340     0.96449      .   S
    C154   O5340     0.96449  1_655   S
    C386   O5341     0.96534      .   S
    C155   O5341     0.96534  1_665   S
    C386   O5342     0.96427      .   S
    C156   O5342     0.96427      .   S
    C387   O5343     0.96427      .   S
    C154   O5343     0.96427  1_545   S
    C387   O5344     0.96449      .   S
    C155   O5344     0.96449      .   S
    C387   O5345     0.96534      .   S
    C156   O5345     0.96534  1_445   S
    C388   O5346     0.96534      .   S
    C154   O5346     0.96534  1_645   S
    C388   O5347     0.96427      .   S
    C155   O5347     0.96427  1_655   S
    C388   O5348     0.96449      .   S
    C156   O5348     0.96449  1_545   S
    C395   O5349     0.96449      .   S
    C159   O5349     0.96449  1_545   S
    C395   O5350     0.96534      .   S
    C160   O5350     0.96534  1_445   S
    C395   O5351     0.96427      .   S
    C161   O5351     0.96427      .   S
    C396   O5352     0.96427      .   S
    C159   O5352     0.96427  1_655   S
    C396   O5353     0.96449      .   S
    C160   O5353     0.96449      .   S
    C396   O5354     0.96534      .   S
    C161   O5354     0.96534  1_665   S
    C397   O5355     0.96534      .   S
    C159   O5355     0.96534  1_645   S
    C397   O5356     0.96427      .   S
    C160   O5356     0.96427  1_545   S
    C397   O5357     0.96449      .   S
    C161   O5357     0.96449  1_655   S
    C401   O5358     0.96449      .   S
    C163   O5358     0.96449  1_565   S
    C401   O5359     0.96534      .   S
    C164   O5359     0.96534  1_665   S
    C401   O5360     0.96427      .   S
    C165   O5360     0.96427      .   S
    C402   O5361     0.96427      .   S
    C163   O5361     0.96427  1_455   S
    C402   O5362     0.96449      .   S
    C164   O5362     0.96449      .   S
    C402   O5363     0.96534      .   S
    C165   O5363     0.96534  1_445   S
    C403   O5364     0.96534      .   S
    C163   O5364     0.96534  1_465   S
    C403   O5365     0.96427      .   S
    C164   O5365     0.96427  1_565   S
    C403   O5366     0.96449      .   S
    C165   O5366     0.96449  1_455   S
    C404   O5367     0.96449      .   S
    C166   O5367     0.96449  1_455   S
    C404   O5368     0.96534      .   S
    C167   O5368     0.96534  1_445   S
    C404   O5369     0.96427      .   S
    C168   O5369     0.96427      .   S
    C405   O5370     0.96427      .   S
    C166   O5370     0.96427  1_565   S
    C405   O5371     0.96449      .   S
    C167   O5371     0.96449      .   S
    C405   O5372     0.96534      .   S
    C168   O5372     0.96534  1_665   S
    C406   O5373     0.96534      .   S
    C166   O5373     0.96534  1_465   S
    C406   O5374     0.96427      .   S
    C167   O5374     0.96427  1_455   S
    C406   O5375     0.96449      .   S
    C168   O5375     0.96449  1_565   S
    C421   O5376     0.98052      .   S
    C129   O5376     0.98052      .   S
    C422   O5377     0.98052      .   S
    C127   O5377     0.98052      .   S
    C423   O5378     0.98052      .   S
    C128   O5378     0.98052      .   S
    C430   O5379     0.98052      .   S
    C138   O5379     0.98052      .   S
    C431   O5380     0.98052      .   S
    C136   O5380     0.98052      .   S
    C432   O5381     0.98052      .   S
    C137   O5381     0.98052      .   S
    C436   O5382     0.98052      .   S
    C144   O5382     0.98052      .   S
    C437   O5383     0.98052      .   S
    C142   O5383     0.98052      .   S
    C438   O5384     0.98052      .   S
    C143   O5384     0.98052      .   S
    C439   O5385     0.98052      .   S
    C147   O5385     0.98052      .   S
    C440   O5386     0.98052      .   S
    C145   O5386     0.98052      .   S
    C441   O5387     0.98052      .   S
    C146   O5387     0.98052      .   S
