# CIF file generated by openbabel 2.4.90, see http://openbabel.sf.net
data_I
_chemical_name_common ''
_cell_length_a 24.4635
_cell_length_b 24.4635
_cell_length_c 112.996
_cell_angle_alpha 90
_cell_angle_beta 90
_cell_angle_gamma 120
_space_group_name_H-M_alt 'P 1'
_space_group_name_Hall 'P 1'
loop_
    _symmetry_equiv_pos_as_xyz
    x,y,z
loop_
    _atom_site_label
    _atom_site_type_symbol
    _atom_site_fract_x
    _atom_site_fract_y
    _atom_site_fract_z
    _atom_site_occupancy
    C0      C    0.20830   0.35730   0.51654   1.000
    N1      N    0.27500   0.28630   0.52236   1.000
    H2      H    0.28070   0.25930   0.51810   1.000
    Zn3     Zn   0.00000   0.00000   0.57964   1.000
    Zn4     Zn   0.97026   0.05473   0.55658   1.000
    Zn5     Zn   0.24871   0.61158   0.48622   1.000
    Zn6     Zn   0.33330   0.66670   0.46351   1.000
    O7      O    0.00000   0.00000   0.56245   1.000
    O8      O    0.33330   0.66670   0.48022   1.000
    O9      O    0.11610   0.10290   0.54673   1.000
    O10     O    0.03630   0.12460   0.54896   1.000
    O11     O    0.37960   0.35030   0.52540   1.000
    O12     O    0.34250   0.55800   0.49357   1.000
    O13     O    0.23500   0.53890   0.49299   1.000
    O14     O    0.38880   0.74920   0.45698   1.000
    O15     O    0.38320   0.80530   0.47220   1.000
    O16     O    0.49130   0.88290   0.40631   1.000
    O17     O    0.51790   0.09670   0.47150   1.000
    O18     O    0.60870   0.19080   0.40243   1.000
    O19     O    0.63250   0.24990   0.41916   1.000
    Zn20    Zn   0.58220   0.30359   0.77675   1.000
    N21     N    0.32140   0.39200   0.52280   1.000
    H22     H    0.34730   0.42660   0.52670   1.000
    C23     C    0.08980   0.13260   0.54405   1.000
    C24     C    0.12130   0.18990   0.53659   1.000
    C25     C    0.18160   0.20890   0.53280   1.000
    H26     H    0.20220   0.18570   0.53460   1.000
    C27     C    0.21140   0.26500   0.52598   1.000
    C28     C    0.18280   0.30240   0.52376   1.000
    C29     C    0.12580   0.28130   0.52800   1.000
    H30     H    0.10720   0.30660   0.52660   1.000
    C31     C    0.08860   0.22460   0.53460   1.000
    H32     H    0.04720   0.21120   0.53740   1.000
    C33     C    0.33190   0.34720   0.52478   1.000
    C34     C    0.50020   0.91530   0.41400   1.000
    C35     C    0.27590   0.39970   0.51548   1.000
    C36     C    0.30120   0.45290   0.50836   1.000
    H37     H    0.34540   0.48060   0.50770   1.000
    C38     C    0.25630   0.46350   0.50206   1.000
    C39     C    0.19120   0.41850   0.50200   1.000
    H40     H    0.16340   0.42700   0.49750   1.000
    C41     C    0.16820   0.36660   0.50780   1.000
    H42     H    0.12580   0.33420   0.50650   1.000
    C43     C    0.28930   0.52800   0.49590   1.000
    C44     C    0.39810   0.79930   0.46170   1.000
    C45     C    0.43150   0.86060   0.45471   1.000
    C46     C    0.45780   0.85740   0.44407   1.000
    H47     H    0.45420   0.81920   0.44120   1.000
    C48     C    0.49090   0.91570   0.43760   1.000
    C49     C    0.49300   0.97030   0.44147   1.000
    C50     C    0.46550   0.96860   0.45156   1.000
    C51     C    0.43180   0.91180   0.45855   1.000
    H52     H    0.41070   0.91130   0.46560   1.000
    C53     C    0.52360   0.02670   0.43478   1.000
    C54     C    0.52530   0.02510   0.42209   1.000
    C55     C    0.55140   0.07880   0.41588   1.000
    H56     H    0.54970   0.07670   0.40750   1.000
    C57     C    0.58180   0.13910   0.42148   1.000
    C58     C    0.58580   0.13980   0.43362   1.000
    H59     H    0.61070   0.17900   0.43750   1.000
    C60     C    0.55590   0.08710   0.44011   1.000
    C61     C    0.61100   0.19650   0.41291   1.000
    N62     N    0.51520   0.90930   0.42631   1.000
    H63     H    0.54530   0.89990   0.42700   1.000
    N64     N    0.49100   0.96920   0.41435   1.000
    H65     H    0.46250   0.96880   0.40950   1.000
    Zn66    Zn   0.05509   0.97046   0.81955   1.000
    Zn67    Zn   0.02954   0.08462   0.81955   1.000
    N68     N    0.46180   0.01730   0.45712   1.000
    H69     H    0.42370   0.01210   0.45780   1.000
    N70     N    0.55830   0.09540   0.45210   1.000
    H71     H    0.59760   0.11830   0.45450   1.000
    C72     C    0.51420   0.07730   0.46210   1.000
    Zn73    Zn   0.94527   0.91553   0.55658   1.000
    Zn74    Zn   0.00000   0.00000   0.92036   1.000
    Zn75    Zn   0.00000   0.00000   0.42036   1.000
    Zn76    Zn   0.00000   0.00000   0.07964   1.000
    Zn77    Zn   0.66667   0.33333   0.91297   1.000
    Zn78    Zn   0.66667   0.33333   0.25369   1.000
    Zn79    Zn   0.66667   0.33333   0.75369   1.000
    Zn80    Zn   0.66667   0.33333   0.41297   1.000
    Zn81    Zn   0.33333   0.66667   0.24631   1.000
    Zn82    Zn   0.33333   0.66667   0.58703   1.000
    Zn83    Zn   0.33333   0.66667   0.08703   1.000
    Zn84    Zn   0.33333   0.66667   0.74631   1.000
    Zn85    Zn   0.38842   0.63713   0.48622   1.000
    Zn86    Zn   0.36287   0.75129   0.48622   1.000
    Zn87    Zn   0.08447   0.02974   0.55658   1.000
    Zn88    Zn   0.05473   0.97026   0.94342   1.000
    Zn89    Zn   0.91553   0.94527   0.94342   1.000
    Zn90    Zn   0.02974   0.08447   0.94342   1.000
    Zn91    Zn   0.02974   0.94527   0.44342   1.000
    Zn92    Zn   0.05473   0.08447   0.44342   1.000
    Zn93    Zn   0.91553   0.97026   0.44342   1.000
    Zn94    Zn   0.94527   0.02974   0.05658   1.000
    Zn95    Zn   0.08447   0.05473   0.05658   1.000
    Zn96    Zn   0.97026   0.91553   0.05658   1.000
    Zn97    Zn   0.63693   0.38806   0.88991   1.000
    Zn98    Zn   0.61194   0.24886   0.88991   1.000
    Zn99    Zn   0.75114   0.36307   0.88991   1.000
    Zn100   Zn   0.72140   0.30359   0.27675   1.000
    Zn101   Zn   0.58220   0.27860   0.27675   1.000
    Zn102   Zn   0.69641   0.41780   0.27675   1.000
    Zn103   Zn   0.69641   0.27860   0.77675   1.000
    Zn104   Zn   0.72140   0.41780   0.77675   1.000
    O105    O    0.66663   0.33337   0.64689   1.000
    O106    O    0.87540   0.91170   0.54896   1.000
    Zn107   Zn   0.61194   0.36307   0.38991   1.000
    Zn108   Zn   0.75114   0.38806   0.38991   1.000
    Zn109   Zn   0.63693   0.24886   0.38991   1.000
    Zn110   Zn   0.30359   0.72140   0.22325   1.000
    Zn111   Zn   0.27860   0.58220   0.22325   1.000
    Zn112   Zn   0.41780   0.69641   0.22325   1.000
    Zn113   Zn   0.38806   0.63693   0.61009   1.000
    Zn114   Zn   0.24886   0.61194   0.61009   1.000
    Zn115   Zn   0.36307   0.75114   0.61009   1.000
    Zn116   Zn   0.36307   0.61194   0.11009   1.000
    Zn117   Zn   0.38806   0.75114   0.11009   1.000
    Zn118   Zn   0.24886   0.63693   0.11009   1.000
    Zn119   Zn   0.27860   0.69641   0.72325   1.000
    Zn120   Zn   0.41780   0.72140   0.72325   1.000
    Zn121   Zn   0.30359   0.58220   0.72325   1.000
    Zn122   Zn   0.66670   0.33330   0.03649   1.000
    Zn123   Zn   0.61158   0.24871   0.01378   1.000
    Zn124   Zn   0.63713   0.38842   0.01378   1.000
    Zn125   Zn   0.75129   0.36287   0.01378   1.000
    Zn126   Zn   0.75129   0.38842   0.51378   1.000
    Zn127   Zn   0.61158   0.36287   0.51378   1.000
    Zn128   Zn   0.63713   0.24871   0.51378   1.000
    Zn129   Zn   0.38842   0.75129   0.98622   1.000
    Zn130   Zn   0.36287   0.61158   0.98622   1.000
    Zn131   Zn   0.24871   0.63713   0.98622   1.000
    Zn132   Zn   0.91538   0.94491   0.81955   1.000
    O133    O    0.75497   0.45793   0.38229   1.000
    O134    O    0.70297   0.24503   0.38229   1.000
    O135    O    0.36963   0.79127   0.21563   1.000
    O136    O    0.20873   0.57837   0.21563   1.000
    Zn137   Zn   0.27825   0.58204   0.34711   1.000
    Zn138   Zn   0.30380   0.72175   0.34711   1.000
    Zn139   Zn   0.41796   0.69620   0.34711   1.000
    Zn140   Zn   0.41796   0.72175   0.84711   1.000
    Zn141   Zn   0.27825   0.69620   0.84711   1.000
    Zn142   Zn   0.30380   0.58204   0.84711   1.000
    Zn143   Zn   0.05509   0.08462   0.31955   1.000
    Zn144   Zn   0.02954   0.94491   0.31955   1.000
    Zn145   Zn   0.91538   0.97046   0.31955   1.000
    Zn146   Zn   0.58204   0.27825   0.15289   1.000
    Zn147   Zn   0.72175   0.30380   0.15289   1.000
    Zn148   Zn   0.69620   0.41796   0.15289   1.000
    Zn149   Zn   0.94491   0.91538   0.68045   1.000
    Zn150   Zn   0.97046   0.05509   0.68045   1.000
    Zn151   Zn   0.08462   0.02954   0.68045   1.000
    Zn152   Zn   0.08462   0.05509   0.18045   1.000
    Zn153   Zn   0.94491   0.02954   0.18045   1.000
    Zn154   Zn   0.97046   0.91538   0.18045   1.000
    Zn155   Zn   0.72175   0.41796   0.65289   1.000
    Zn156   Zn   0.69620   0.27825   0.65289   1.000
    Zn157   Zn   0.58204   0.30380   0.65289   1.000
    O158    O    0.00000   0.00000   0.93755   1.000
    O159    O    0.00000   0.00000   0.43755   1.000
    Zn160   Zn   0.66670   0.33330   0.53649   1.000
    Zn161   Zn   0.33330   0.66670   0.96351   1.000
    Zn162   Zn   0.99997   0.00003   0.79684   1.000
    Zn163   Zn   0.99997   0.99993   0.79684   1.000
    Zn164   Zn   0.00007   0.00003   0.79684   1.000
    Zn165   Zn   0.33337   0.66663   0.36982   1.000
    Zn166   Zn   0.33337   0.66663   0.86982   1.000
    Zn167   Zn   0.99997   0.00003   0.29684   1.000
    Zn168   Zn   0.00007   0.00003   0.29684   1.000
    Zn169   Zn   0.99997   0.99993   0.29684   1.000
    Zn170   Zn   0.66663   0.33337   0.13018   1.000
    Zn171   Zn   0.00003   0.99997   0.70316   1.000
    Zn172   Zn   0.99993   0.99997   0.70316   1.000
    Zn173   Zn   0.00003   0.00007   0.70316   1.000
    Zn174   Zn   0.00003   0.99997   0.20316   1.000
    Zn175   Zn   0.00003   0.00007   0.20316   1.000
    Zn176   Zn   0.99993   0.99997   0.20316   1.000
    Zn177   Zn   0.66663   0.33337   0.63018   1.000
    O178    O    0.00000   0.00000   0.06245   1.000
    O179    O    0.66667   0.33333   0.89578   1.000
    O180    O    0.66667   0.33333   0.27088   1.000
    O181    O    0.66667   0.33333   0.77088   1.000
    O182    O    0.66667   0.33333   0.39578   1.000
    O183    O    0.33333   0.66667   0.22912   1.000
    O184    O    0.33333   0.66667   0.60422   1.000
    O185    O    0.33333   0.66667   0.10422   1.000
    O186    O    0.33333   0.66667   0.72912   1.000
    O187    O    0.89710   0.01320   0.54673   1.000
    O188    O    0.98680   0.88390   0.54673   1.000
    O189    O    0.66670   0.33330   0.01978   1.000
    O190    O    0.66670   0.33330   0.51978   1.000
    O191    O    0.33330   0.66670   0.98022   1.000
    O192    O    0.99997   0.00003   0.81355   1.000
    O193    O    0.99997   0.99993   0.81355   1.000
    O194    O    0.00007   0.00003   0.81355   1.000
    O195    O    0.33337   0.66663   0.35311   1.000
    O196    O    0.33337   0.66663   0.85311   1.000
    O197    O    0.99997   0.00003   0.31355   1.000
    O198    O    0.00007   0.00003   0.31355   1.000
    O199    O    0.99997   0.99993   0.31355   1.000
    O200    O    0.66663   0.33337   0.14689   1.000
    O201    O    0.00003   0.99997   0.68645   1.000
    O202    O    0.99993   0.99997   0.68645   1.000
    O203    O    0.00003   0.00007   0.68645   1.000
    O204    O    0.00003   0.99997   0.18645   1.000
    O205    O    0.00003   0.00007   0.18645   1.000
    O206    O    0.99993   0.99997   0.18645   1.000
    O207    O    0.05547   0.97293   0.29031   1.000
    O208    O    0.72213   0.41587   0.12365   1.000
    O209    O    0.58413   0.30627   0.12365   1.000
    O210    O    0.69373   0.27787   0.12365   1.000
    O211    O    0.08253   0.05547   0.70969   1.000
    O212    O    0.08830   0.96370   0.54896   1.000
    O213    O    0.10290   0.11610   0.95327   1.000
    O214    O    0.01320   0.89710   0.95327   1.000
    O215    O    0.88390   0.98680   0.95327   1.000
    O216    O    0.88390   0.89710   0.45327   1.000
    O217    O    0.10290   0.98680   0.45327   1.000
    O218    O    0.01320   0.11610   0.45327   1.000
    O219    O    0.89710   0.88390   0.04673   1.000
    O220    O    0.98680   0.10290   0.04673   1.000
    O221    O    0.11610   0.01320   0.04673   1.000
    O222    O    0.78277   0.43623   0.88006   1.000
    O223    O    0.56377   0.34653   0.88006   1.000
    O224    O    0.65347   0.21723   0.88006   1.000
    O225    O    0.76957   0.44943   0.28660   1.000
    O226    O    0.67987   0.23043   0.28660   1.000
    O227    O    0.55057   0.32013   0.28660   1.000
    O228    O    0.55057   0.23043   0.78660   1.000
    O229    O    0.76957   0.32013   0.78660   1.000
    O230    O    0.67987   0.44943   0.78660   1.000
    O231    O    0.56377   0.21723   0.38006   1.000
    O232    O    0.65347   0.43623   0.38006   1.000
    O233    O    0.78277   0.34653   0.38006   1.000
    O234    O    0.44943   0.76957   0.21340   1.000
    O235    O    0.23043   0.67987   0.21340   1.000
    O236    O    0.32013   0.55057   0.21340   1.000
    O237    O    0.43623   0.78277   0.61994   1.000
    O238    O    0.34653   0.56377   0.61994   1.000
    O239    O    0.21723   0.65347   0.61994   1.000
    O240    O    0.21723   0.56377   0.11994   1.000
    O241    O    0.43623   0.65347   0.11994   1.000
    O242    O    0.34653   0.78277   0.11994   1.000
    O243    O    0.23043   0.55057   0.71340   1.000
    O244    O    0.32013   0.76957   0.71340   1.000
    O245    O    0.44943   0.67987   0.71340   1.000
    O246    O    0.64970   0.02930   0.52540   1.000
    O247    O    0.97070   0.62040   0.52540   1.000
    O248    O    0.12460   0.03630   0.95104   1.000
    O249    O    0.91170   0.87540   0.95104   1.000
    O250    O    0.96370   0.08830   0.95104   1.000
    O251    O    0.96370   0.87540   0.45104   1.000
    O252    O    0.12460   0.08830   0.45104   1.000
    O253    O    0.91170   0.03630   0.45104   1.000
    O254    O    0.87540   0.96370   0.04896   1.000
    O255    O    0.08830   0.12460   0.04896   1.000
    O256    O    0.03630   0.91170   0.04896   1.000
    O257    O    0.70297   0.45793   0.88229   1.000
    O258    O    0.54207   0.24503   0.88229   1.000
    O259    O    0.75497   0.29703   0.88229   1.000
    O260    O    0.79127   0.36963   0.28437   1.000
    O261    O    0.57837   0.20873   0.28437   1.000
    O262    O    0.63037   0.42163   0.28437   1.000
    O263    O    0.63037   0.20873   0.78437   1.000
    O264    O    0.79127   0.42163   0.78437   1.000
    O265    O    0.57837   0.36963   0.78437   1.000
    O266    O    0.54207   0.29703   0.38229   1.000
    O267    O    0.23663   0.14877   0.63817   1.000
    O268    O    0.91213   0.76337   0.63817   1.000
    O269    O    0.85123   0.08787   0.63817   1.000
    O270    O    0.75010   0.38260   0.41916   1.000
    O271    O    0.61740   0.36750   0.41916   1.000
    O272    O    0.80920   0.41790   0.40243   1.000
    O273    O    0.42163   0.63037   0.21563   1.000
    O274    O    0.45793   0.70297   0.61771   1.000
    O275    O    0.24503   0.54207   0.61771   1.000
    O276    O    0.29703   0.75497   0.61771   1.000
    O277    O    0.29703   0.54207   0.11771   1.000
    O278    O    0.45793   0.75497   0.11771   1.000
    O279    O    0.24503   0.70297   0.11771   1.000
    O280    O    0.20873   0.63037   0.71563   1.000
    O281    O    0.42163   0.79127   0.71563   1.000
    O282    O    0.36963   0.57837   0.71563   1.000
    O283    O    0.44200   0.78450   0.49357   1.000
    O284    O    0.21550   0.65750   0.49357   1.000
    O285    O    0.35030   0.37960   0.97460   1.000
    O286    O    0.02930   0.64970   0.97460   1.000
    O287    O    0.62040   0.97070   0.97460   1.000
    O288    O    0.62040   0.64970   0.47460   1.000
    O289    O    0.35030   0.97070   0.47460   1.000
    O290    O    0.02930   0.37960   0.47460   1.000
    O291    O    0.64970   0.62040   0.02540   1.000
    O292    O    0.97070   0.35030   0.02540   1.000
    O293    O    0.37960   0.02930   0.02540   1.000
    O294    O    0.04627   0.68363   0.85873   1.000
    O295    O    0.31637   0.36263   0.85873   1.000
    O296    O    0.63737   0.95373   0.85873   1.000
    O297    O    0.01697   0.71293   0.30793   1.000
    O298    O    0.69597   0.98303   0.30793   1.000
    O299    O    0.28707   0.30403   0.30793   1.000
    O300    O    0.28707   0.98303   0.80793   1.000
    O301    O    0.01697   0.30403   0.80793   1.000
    O302    O    0.69597   0.71293   0.80793   1.000
    O303    O    0.31637   0.95373   0.35873   1.000
    O304    O    0.63737   0.68363   0.35873   1.000
    O305    O    0.04627   0.36263   0.35873   1.000
    O306    O    0.71293   0.01697   0.19207   1.000
    O307    O    0.98303   0.69597   0.19207   1.000
    O308    O    0.30403   0.28707   0.19207   1.000
    O309    O    0.68363   0.04627   0.64127   1.000
    O310    O    0.36263   0.31637   0.64127   1.000
    O311    O    0.95373   0.63737   0.64127   1.000
    O312    O    0.95373   0.31637   0.14127   1.000
    O313    O    0.68363   0.63737   0.14127   1.000
    O314    O    0.36263   0.04627   0.14127   1.000
    O315    O    0.98303   0.28707   0.69207   1.000
    O316    O    0.30403   0.01697   0.69207   1.000
    O317    O    0.71293   0.69597   0.69207   1.000
    O318    O    0.46110   0.69610   0.49299   1.000
    O319    O    0.30390   0.76500   0.49299   1.000
    O320    O    0.55800   0.34250   0.00643   1.000
    O321    O    0.78450   0.44200   0.00643   1.000
    O322    O    0.65750   0.21550   0.00643   1.000
    O323    O    0.65750   0.44200   0.50643   1.000
    O324    O    0.55800   0.21550   0.50643   1.000
    O325    O    0.78450   0.34250   0.50643   1.000
    O326    O    0.44200   0.65750   0.99357   1.000
    O327    O    0.21550   0.55800   0.99357   1.000
    O328    O    0.34250   0.78450   0.99357   1.000
    O329    O    0.00917   0.89133   0.82690   1.000
    O330    O    0.10867   0.11783   0.82690   1.000
    O331    O    0.88217   0.99083   0.82690   1.000
    O332    O    0.22467   0.67583   0.33976   1.000
    O333    O    0.45117   0.77533   0.33976   1.000
    O334    O    0.32417   0.54883   0.33976   1.000
    O335    O    0.32417   0.77533   0.83976   1.000
    O336    O    0.22467   0.54883   0.83976   1.000
    O337    O    0.45117   0.67583   0.83976   1.000
    O338    O    0.10867   0.99083   0.32690   1.000
    O339    O    0.88217   0.89133   0.32690   1.000
    O340    O    0.00917   0.11783   0.32690   1.000
    O341    O    0.67583   0.22467   0.16024   1.000
    O342    O    0.77533   0.45117   0.16024   1.000
    O343    O    0.54883   0.32417   0.16024   1.000
    O344    O    0.89133   0.00917   0.67310   1.000
    O345    O    0.11783   0.10867   0.67310   1.000
    O346    O    0.99083   0.88217   0.67310   1.000
    O347    O    0.99083   0.10867   0.17310   1.000
    O348    O    0.89133   0.88217   0.17310   1.000
    O349    O    0.11783   0.00917   0.17310   1.000
    O350    O    0.77533   0.32417   0.66024   1.000
    O351    O    0.54883   0.22467   0.66024   1.000
    O352    O    0.67583   0.45117   0.66024   1.000
    O353    O    0.25080   0.63960   0.45698   1.000
    O354    O    0.36040   0.61120   0.45698   1.000
    O355    O    0.53890   0.23500   0.00701   1.000
    O356    O    0.69610   0.46110   0.00701   1.000
    O357    O    0.76500   0.30390   0.00701   1.000
    O358    O    0.76500   0.46110   0.50701   1.000
    O359    O    0.53890   0.30390   0.50701   1.000
    O360    O    0.69610   0.23500   0.50701   1.000
    O361    O    0.46110   0.76500   0.99299   1.000
    O362    O    0.30390   0.53890   0.99299   1.000
    O363    O    0.23500   0.69610   0.99299   1.000
    O364    O    0.90167   0.87223   0.82632   1.000
    O365    O    0.12777   0.02943   0.82632   1.000
    O366    O    0.97057   0.09833   0.82632   1.000
    O367    O    0.20557   0.56833   0.34034   1.000
    O368    O    0.36277   0.79443   0.34034   1.000
    O369    O    0.43167   0.63723   0.34034   1.000
    O370    O    0.43167   0.79443   0.84034   1.000
    O371    O    0.20557   0.63723   0.84034   1.000
    O372    O    0.36277   0.56833   0.84034   1.000
    O373    O    0.12777   0.09833   0.32632   1.000
    O374    O    0.97057   0.87223   0.32632   1.000
    O375    O    0.90167   0.02943   0.32632   1.000
    O376    O    0.56833   0.20557   0.15966   1.000
    O377    O    0.79443   0.36277   0.15966   1.000
    O378    O    0.63723   0.43167   0.15966   1.000
    O379    O    0.87223   0.90167   0.67368   1.000
    O380    O    0.02943   0.12777   0.67368   1.000
    O381    O    0.09833   0.97057   0.67368   1.000
    O382    O    0.09833   0.12777   0.17368   1.000
    O383    O    0.87223   0.97057   0.17368   1.000
    O384    O    0.02943   0.90167   0.17368   1.000
    O385    O    0.79443   0.43167   0.65966   1.000
    O386    O    0.63723   0.20557   0.65966   1.000
    O387    O    0.56833   0.36277   0.65966   1.000
    O388    O    0.19470   0.57790   0.47220   1.000
    O389    O    0.42210   0.61680   0.47220   1.000
    O390    O    0.74920   0.38880   0.04302   1.000
    O391    O    0.63960   0.25080   0.04302   1.000
    O392    O    0.61120   0.36040   0.04302   1.000
    O393    O    0.61120   0.25080   0.54302   1.000
    O394    O    0.74920   0.36040   0.54302   1.000
    O395    O    0.63960   0.38880   0.54302   1.000
    O396    O    0.25080   0.61120   0.95698   1.000
    O397    O    0.36040   0.74920   0.95698   1.000
    O398    O    0.38880   0.63960   0.95698   1.000
    O399    O    0.05547   0.08253   0.79031   1.000
    O400    O    0.91747   0.97293   0.79031   1.000
    O401    O    0.02707   0.94453   0.79031   1.000
    O402    O    0.41587   0.72213   0.37635   1.000
    O403    O    0.30627   0.58413   0.37635   1.000
    O404    O    0.27787   0.69373   0.37635   1.000
    O405    O    0.27787   0.58413   0.87635   1.000
    O406    O    0.41587   0.69373   0.87635   1.000
    O407    O    0.30627   0.72213   0.87635   1.000
    O408    O    0.91747   0.94453   0.29031   1.000
    O409    O    0.02707   0.08253   0.29031   1.000
    C410    C    0.40193   0.85657   0.70326   1.000
    C411    C    0.45463   0.59807   0.70326   1.000
    H412    H    0.81430   0.01650   0.53460   1.000
    H413    H    0.98350   0.79780   0.53460   1.000
    C414    C    0.79110   0.97270   0.53280   1.000
    C415    C    0.02730   0.81840   0.53280   1.000
    C416    C    0.20890   0.18160   0.96720   1.000
    C417    C    0.97270   0.79110   0.96720   1.000
    C418    C    0.81840   0.02730   0.96720   1.000
    O419    O    0.97293   0.91747   0.70969   1.000
    O420    O    0.94453   0.02707   0.70969   1.000
    O421    O    0.94453   0.91747   0.20969   1.000
    O422    O    0.08253   0.02707   0.20969   1.000
    O423    O    0.97293   0.05547   0.20969   1.000
    O424    O    0.58413   0.27787   0.62365   1.000
    O425    O    0.69373   0.41587   0.62365   1.000
    O426    O    0.72213   0.30627   0.62365   1.000
    O427    O    0.11710   0.60840   0.40631   1.000
    O428    O    0.39160   0.50870   0.40631   1.000
    O429    O    0.80530   0.38320   0.02780   1.000
    O430    O    0.57790   0.19470   0.02780   1.000
    O431    O    0.61680   0.42210   0.02780   1.000
    O432    O    0.61680   0.19470   0.52780   1.000
    O433    O    0.80530   0.42210   0.52780   1.000
    O434    O    0.57790   0.38320   0.52780   1.000
    O435    O    0.19470   0.61680   0.97220   1.000
    O436    O    0.42210   0.80530   0.97220   1.000
    O437    O    0.38320   0.57790   0.97220   1.000
    O438    O    0.04987   0.13863   0.80553   1.000
    O439    O    0.86137   0.91123   0.80553   1.000
    O440    O    0.08877   0.95013   0.80553   1.000
    O441    O    0.47197   0.71653   0.36113   1.000
    O442    O    0.24457   0.52803   0.36113   1.000
    O443    O    0.28347   0.75543   0.36113   1.000
    O444    O    0.28347   0.52803   0.86113   1.000
    O445    O    0.47197   0.75543   0.86113   1.000
    O446    O    0.24457   0.71653   0.86113   1.000
    O447    O    0.86137   0.95013   0.30553   1.000
    O448    O    0.08877   0.13863   0.30553   1.000
    O449    O    0.04987   0.91123   0.30553   1.000
    O450    O    0.71653   0.47197   0.13887   1.000
    O451    O    0.52803   0.24457   0.13887   1.000
    O452    O    0.75543   0.28347   0.13887   1.000
    O453    O    0.13863   0.04987   0.69447   1.000
    O454    O    0.91123   0.86137   0.69447   1.000
    O455    O    0.95013   0.08877   0.69447   1.000
    O456    O    0.95013   0.86137   0.19447   1.000
    O457    O    0.13863   0.08877   0.19447   1.000
    O458    O    0.91123   0.04987   0.19447   1.000
    O459    O    0.52803   0.28347   0.63887   1.000
    O460    O    0.75543   0.47197   0.63887   1.000
    O461    O    0.71653   0.24457   0.63887   1.000
    O462    O    0.90330   0.42120   0.47150   1.000
    O463    O    0.57880   0.48210   0.47150   1.000
    O464    O    0.88290   0.49130   0.09369   1.000
    O465    O    0.60840   0.11710   0.09369   1.000
    O466    O    0.50870   0.39160   0.09369   1.000
    O467    O    0.50870   0.11710   0.59369   1.000
    O468    O    0.88290   0.39160   0.59369   1.000
    O469    O    0.60840   0.49130   0.59369   1.000
    O470    O    0.11710   0.50870   0.90631   1.000
    O471    O    0.39160   0.88290   0.90631   1.000
    O472    O    0.49130   0.60840   0.90631   1.000
    O473    O    0.15797   0.21623   0.73964   1.000
    O474    O    0.78377   0.94173   0.73964   1.000
    O475    O    0.05827   0.84203   0.73964   1.000
    O476    O    0.54957   0.82463   0.42702   1.000
    O477    O    0.27507   0.45043   0.42702   1.000
    O478    O    0.17537   0.72493   0.42702   1.000
    O479    O    0.17537   0.45043   0.92702   1.000
    O480    O    0.54957   0.72493   0.92702   1.000
    O481    O    0.27507   0.82463   0.92702   1.000
    O482    O    0.78377   0.84203   0.23964   1.000
    O483    O    0.05827   0.21623   0.23964   1.000
    O484    O    0.15797   0.94173   0.23964   1.000
    O485    O    0.82463   0.54957   0.07298   1.000
    O486    O    0.45043   0.27507   0.07298   1.000
    O487    O    0.72493   0.17537   0.07298   1.000
    O488    O    0.21623   0.15797   0.76036   1.000
    O489    O    0.94173   0.78377   0.76036   1.000
    O490    O    0.84203   0.05827   0.76036   1.000
    O491    O    0.84203   0.78377   0.26036   1.000
    O492    O    0.21623   0.05827   0.26036   1.000
    O493    O    0.94173   0.15797   0.26036   1.000
    O494    O    0.45043   0.17537   0.57298   1.000
    O495    O    0.72493   0.54957   0.57298   1.000
    O496    O    0.82463   0.27507   0.57298   1.000
    O497    O    0.58210   0.39130   0.40243   1.000
    O498    O    0.19080   0.60870   0.09757   1.000
    O499    O    0.41790   0.80920   0.09757   1.000
    O500    O    0.09670   0.51790   0.02850   1.000
    O501    O    0.42120   0.90330   0.02850   1.000
    O502    O    0.48210   0.57880   0.02850   1.000
    O503    O    0.48210   0.90330   0.52850   1.000
    O504    O    0.09670   0.57880   0.52850   1.000
    O505    O    0.42120   0.51790   0.52850   1.000
    O506    O    0.90330   0.48210   0.97150   1.000
    O507    O    0.57880   0.09670   0.97150   1.000
    O508    O    0.51790   0.42120   0.97150   1.000
    O509    O    0.18457   0.43003   0.80483   1.000
    O510    O    0.56997   0.75453   0.80483   1.000
    O511    O    0.24547   0.81543   0.80483   1.000
    O512    O    0.76337   0.85123   0.36183   1.000
    O513    O    0.08787   0.23663   0.36183   1.000
    O514    O    0.14877   0.91213   0.36183   1.000
    O515    O    0.14877   0.23663   0.86183   1.000
    O516    O    0.76337   0.91213   0.86183   1.000
    O517    O    0.08787   0.85123   0.86183   1.000
    O518    O    0.56997   0.81543   0.30483   1.000
    O519    O    0.24547   0.43003   0.30483   1.000
    O520    O    0.18457   0.75453   0.30483   1.000
    O521    O    0.85123   0.76337   0.13817   1.000
    O522    O    0.23663   0.08787   0.13817   1.000
    O523    O    0.91213   0.14877   0.13817   1.000
    O524    O    0.43003   0.18457   0.69517   1.000
    O525    O    0.75453   0.56997   0.69517   1.000
    O526    O    0.81543   0.24547   0.69517   1.000
    O527    O    0.81543   0.56997   0.19517   1.000
    O528    O    0.43003   0.24547   0.19517   1.000
    O529    O    0.75453   0.18457   0.19517   1.000
    C530    C    0.53067   0.42193   0.79873   1.000
    C531    C    0.44207   0.24473   0.36793   1.000
    C532    C    0.80267   0.55793   0.36793   1.000
    C533    C    0.75527   0.19733   0.36793   1.000
    C534    C    0.42193   0.89127   0.20127   1.000
    C535    C    0.10873   0.53067   0.20127   1.000
    C536    C    0.46933   0.57807   0.20127   1.000
    C537    C    0.55793   0.75527   0.63207   1.000
    C538    C    0.19733   0.44207   0.63207   1.000
    C539    C    0.24473   0.80267   0.63207   1.000
    C540    C    0.24473   0.44207   0.13207   1.000
    C541    C    0.55793   0.80267   0.13207   1.000
    C542    C    0.19733   0.75527   0.13207   1.000
    C543    C    0.10873   0.57807   0.70127   1.000
    O544    O    0.39130   0.58210   0.09757   1.000
    O545    O    0.39130   0.80920   0.59757   1.000
    O546    O    0.19080   0.58210   0.59757   1.000
    O547    O    0.41790   0.60870   0.59757   1.000
    O548    O    0.80920   0.39130   0.90243   1.000
    O549    O    0.58210   0.19080   0.90243   1.000
    O550    O    0.60870   0.41790   0.90243   1.000
    O551    O    0.27537   0.52413   0.73576   1.000
    O552    O    0.47587   0.75123   0.73576   1.000
    O553    O    0.24877   0.72463   0.73576   1.000
    O554    O    0.85747   0.94203   0.43090   1.000
    O555    O    0.08457   0.14253   0.43090   1.000
    O556    O    0.05797   0.91543   0.43090   1.000
    O557    O    0.05797   0.14253   0.93090   1.000
    O558    O    0.85747   0.91543   0.93090   1.000
    O559    O    0.08457   0.94203   0.93090   1.000
    O560    O    0.47587   0.72463   0.23576   1.000
    O561    O    0.24877   0.52413   0.23576   1.000
    O562    O    0.27537   0.75123   0.23576   1.000
    O563    O    0.94203   0.85747   0.06910   1.000
    O564    O    0.14253   0.08457   0.06910   1.000
    O565    O    0.91543   0.05797   0.06910   1.000
    O566    O    0.52413   0.27537   0.76424   1.000
    O567    O    0.75123   0.47587   0.76424   1.000
    O568    O    0.72463   0.24877   0.76424   1.000
    O569    O    0.72463   0.47587   0.26424   1.000
    O570    O    0.52413   0.24877   0.26424   1.000
    O571    O    0.75123   0.27537   0.26424   1.000
    O572    O    0.14253   0.05797   0.56910   1.000
    O573    O    0.91543   0.85747   0.56910   1.000
    O574    O    0.94203   0.08457   0.56910   1.000
    N575    N    0.71370   0.98870   0.52236   1.000
    N576    N    0.01130   0.72500   0.52236   1.000
    O577    O    0.24990   0.63250   0.08084   1.000
    O578    O    0.38260   0.75010   0.08084   1.000
    O579    O    0.36750   0.61740   0.08084   1.000
    O580    O    0.36750   0.75010   0.58084   1.000
    O581    O    0.24990   0.61740   0.58084   1.000
    O582    O    0.38260   0.63250   0.58084   1.000
    O583    O    0.75010   0.36750   0.91916   1.000
    O584    O    0.61740   0.24990   0.91916   1.000
    O585    O    0.63250   0.38260   0.91916   1.000
    O586    O    0.29917   0.58323   0.75249   1.000
    O587    O    0.41677   0.71593   0.75249   1.000
    O588    O    0.28407   0.70083   0.75249   1.000
    O589    O    0.91657   0.96583   0.41417   1.000
    O590    O    0.04927   0.08343   0.41417   1.000
    O591    O    0.03417   0.95073   0.41417   1.000
    O592    O    0.03417   0.08343   0.91417   1.000
    O593    O    0.91657   0.95073   0.91417   1.000
    O594    O    0.04927   0.96583   0.91417   1.000
    O595    O    0.41677   0.70083   0.25249   1.000
    O596    O    0.28407   0.58323   0.25249   1.000
    O597    O    0.29917   0.71593   0.25249   1.000
    O598    O    0.96583   0.91657   0.08583   1.000
    O599    O    0.08343   0.04927   0.08583   1.000
    O600    O    0.95073   0.03417   0.08583   1.000
    O601    O    0.58323   0.29917   0.74751   1.000
    O602    O    0.71593   0.41677   0.74751   1.000
    O603    O    0.70083   0.28407   0.74751   1.000
    O604    O    0.70083   0.41677   0.24751   1.000
    O605    O    0.58323   0.28407   0.24751   1.000
    O606    O    0.71593   0.29917   0.24751   1.000
    O607    O    0.08343   0.03417   0.58583   1.000
    O608    O    0.95073   0.91657   0.58583   1.000
    O609    O    0.96583   0.04927   0.58583   1.000
    H610    H    0.74070   0.02140   0.51810   1.000
    H611    H    0.97860   0.71930   0.51810   1.000
    N612    N    0.28630   0.27500   0.97764   1.000
    N613    N    0.98870   0.71370   0.97764   1.000
    N614    N    0.72500   0.01130   0.97764   1.000
    N615    N    0.72500   0.71370   0.47764   1.000
    N616    N    0.28630   0.01130   0.47764   1.000
    N617    N    0.98870   0.27500   0.47764   1.000
    N618    N    0.71370   0.72500   0.02236   1.000
    N619    N    0.01130   0.28630   0.02236   1.000
    N620    N    0.27500   0.98870   0.02236   1.000
    N621    N    0.94167   0.61963   0.85569   1.000
    N622    N    0.38037   0.32203   0.85569   1.000
    N623    N    0.67797   0.05833   0.85569   1.000
    N624    N    0.95297   0.60833   0.31097   1.000
    N625    N    0.65537   0.04703   0.31097   1.000
    N626    N    0.39167   0.34463   0.31097   1.000
    N627    N    0.39167   0.04703   0.81097   1.000
    N628    N    0.95297   0.34463   0.81097   1.000
    N629    N    0.65537   0.60833   0.81097   1.000
    N630    N    0.38037   0.05833   0.35569   1.000
    N631    N    0.67797   0.61963   0.35569   1.000
    N632    N    0.94167   0.32203   0.35569   1.000
    N633    N    0.60833   0.95297   0.18903   1.000
    N634    N    0.04703   0.65537   0.18903   1.000
    N635    N    0.34463   0.39167   0.18903   1.000
    N636    N    0.61963   0.94167   0.64431   1.000
    N637    N    0.32203   0.38037   0.64431   1.000
    N638    N    0.05833   0.67797   0.64431   1.000
    N639    N    0.05833   0.38037   0.14431   1.000
    N640    N    0.61963   0.67797   0.14431   1.000
    N641    N    0.32203   0.94167   0.14431   1.000
    N642    N    0.04703   0.39167   0.68903   1.000
    N643    N    0.34463   0.95297   0.68903   1.000
    N644    N    0.60833   0.65537   0.68903   1.000
    N645    N    0.60800   0.92940   0.52280   1.000
    N646    N    0.07060   0.67860   0.52280   1.000
    H647    H    0.25930   0.28070   0.98190   1.000
    H648    H    0.02140   0.74070   0.98190   1.000
    H649    H    0.71930   0.97860   0.98190   1.000
    H650    H    0.71930   0.74070   0.48190   1.000
    H651    H    0.25930   0.97860   0.48190   1.000
    H652    H    0.02140   0.28070   0.48190   1.000
    H653    H    0.74070   0.71930   0.01810   1.000
    H654    H    0.97860   0.25930   0.01810   1.000
    H655    H    0.28070   0.02140   0.01810   1.000
    H656    H    0.94737   0.59263   0.85143   1.000
    H657    H    0.40737   0.35473   0.85143   1.000
    H658    H    0.64527   0.05263   0.85143   1.000
    H659    H    0.92597   0.61403   0.31523   1.000
    H660    H    0.68807   0.07403   0.31523   1.000
    H661    H    0.38597   0.31193   0.31523   1.000
    H662    H    0.38597   0.07403   0.81523   1.000
    H663    H    0.92597   0.31193   0.81523   1.000
    H664    H    0.68807   0.61403   0.81523   1.000
    H665    H    0.40737   0.05263   0.35143   1.000
    H666    H    0.64527   0.59263   0.35143   1.000
    H667    H    0.94737   0.35473   0.35143   1.000
    H668    H    0.61403   0.92597   0.18477   1.000
    H669    H    0.07403   0.68807   0.18477   1.000
    H670    H    0.31193   0.38597   0.18477   1.000
    H671    H    0.59263   0.94737   0.64857   1.000
    H672    H    0.35473   0.40737   0.64857   1.000
    H673    H    0.05263   0.64527   0.64857   1.000
    H674    H    0.05263   0.40737   0.14857   1.000
    H675    H    0.59263   0.64527   0.14857   1.000
    H676    H    0.35473   0.94737   0.14857   1.000
    H677    H    0.07403   0.38597   0.68477   1.000
    H678    H    0.31193   0.92597   0.68477   1.000
    H679    H    0.61403   0.68807   0.68477   1.000
    H680    H    0.57340   0.92070   0.52670   1.000
    H681    H    0.07930   0.65270   0.52670   1.000
    N682    N    0.39200   0.32140   0.97720   1.000
    N683    N    0.92940   0.60800   0.97720   1.000
    N684    N    0.67860   0.07060   0.97720   1.000
    N685    N    0.67860   0.60800   0.47720   1.000
    N686    N    0.39200   0.07060   0.47720   1.000
    N687    N    0.92940   0.32140   0.47720   1.000
    N688    N    0.60800   0.67860   0.02280   1.000
    N689    N    0.07060   0.39200   0.02280   1.000
    N690    N    0.32140   0.92940   0.02280   1.000
    N691    N    0.98807   0.72533   0.85613   1.000
    N692    N    0.27467   0.26273   0.85613   1.000
    N693    N    0.73727   0.01193   0.85613   1.000
    N694    N    0.05867   0.65473   0.31053   1.000
    N695    N    0.59607   0.94133   0.31053   1.000
    N696    N    0.34527   0.40393   0.31053   1.000
    N697    N    0.34527   0.94133   0.81053   1.000
    N698    N    0.05867   0.40393   0.81053   1.000
    N699    N    0.59607   0.65473   0.81053   1.000
    N700    N    0.27467   0.01193   0.35613   1.000
    N701    N    0.73727   0.72533   0.35613   1.000
    N702    N    0.98807   0.26273   0.35613   1.000
    N703    N    0.65473   0.05867   0.18947   1.000
    N704    N    0.94133   0.59607   0.18947   1.000
    N705    N    0.40393   0.34527   0.18947   1.000
    N706    N    0.72533   0.98807   0.64387   1.000
    N707    N    0.26273   0.27467   0.64387   1.000
    N708    N    0.01193   0.73727   0.64387   1.000
    N709    N    0.01193   0.27467   0.14387   1.000
    N710    N    0.72533   0.73727   0.14387   1.000
    N711    N    0.26273   0.98807   0.14387   1.000
    N712    N    0.94133   0.34527   0.68947   1.000
    N713    N    0.40393   0.05867   0.68947   1.000
    N714    N    0.65473   0.59607   0.68947   1.000
    C715    C    0.86740   0.95720   0.54405   1.000
    C716    C    0.04280   0.91020   0.54405   1.000
    H717    H    0.42660   0.34730   0.97330   1.000
    H718    H    0.92070   0.57340   0.97330   1.000
    H719    H    0.65270   0.07930   0.97330   1.000
    H720    H    0.65270   0.57340   0.47330   1.000
    H721    H    0.42660   0.07930   0.47330   1.000
    H722    H    0.92070   0.34730   0.47330   1.000
    H723    H    0.57340   0.65270   0.02670   1.000
    H724    H    0.07930   0.42660   0.02670   1.000
    H725    H    0.34730   0.92070   0.02670   1.000
    H726    H    0.01397   0.75993   0.86003   1.000
    H727    H    0.24007   0.25403   0.86003   1.000
    H728    H    0.74597   0.98603   0.86003   1.000
    H729    H    0.09327   0.68063   0.30663   1.000
    H730    H    0.58737   0.90673   0.30663   1.000
    H731    H    0.31937   0.41263   0.30663   1.000
    H732    H    0.31937   0.90673   0.80663   1.000
    H733    H    0.09327   0.41263   0.80663   1.000
    H734    H    0.58737   0.68063   0.80663   1.000
    H735    H    0.24007   0.98603   0.36003   1.000
    H736    H    0.74597   0.75993   0.36003   1.000
    H737    H    0.01397   0.25403   0.36003   1.000
    H738    H    0.68063   0.09327   0.19337   1.000
    H739    H    0.90673   0.58737   0.19337   1.000
    H740    H    0.41263   0.31937   0.19337   1.000
    H741    H    0.75993   0.01397   0.63997   1.000
    H742    H    0.25403   0.24007   0.63997   1.000
    H743    H    0.98603   0.74597   0.63997   1.000
    H744    H    0.98603   0.24007   0.13997   1.000
    H745    H    0.75993   0.74597   0.13997   1.000
    H746    H    0.25403   0.01397   0.13997   1.000
    H747    H    0.90673   0.31937   0.69337   1.000
    H748    H    0.41263   0.09327   0.69337   1.000
    H749    H    0.68063   0.58737   0.69337   1.000
    C750    C    0.81010   0.93140   0.53659   1.000
    C751    C    0.06860   0.87870   0.53659   1.000
    C752    C    0.13260   0.08980   0.95595   1.000
    C753    C    0.95720   0.86740   0.95595   1.000
    C754    C    0.91020   0.04280   0.95595   1.000
    C755    C    0.91020   0.86740   0.45595   1.000
    C756    C    0.13260   0.04280   0.45595   1.000
    C757    C    0.95720   0.08980   0.45595   1.000
    C758    C    0.86740   0.91020   0.04405   1.000
    C759    C    0.04280   0.13260   0.04405   1.000
    C760    C    0.08980   0.95720   0.04405   1.000
    C761    C    0.75647   0.46593   0.87738   1.000
    C762    C    0.53407   0.29053   0.87738   1.000
    C763    C    0.70947   0.24353   0.87738   1.000
    C764    C    0.79927   0.42313   0.28928   1.000
    C765    C    0.62387   0.20073   0.28928   1.000
    C766    C    0.57687   0.37613   0.28928   1.000
    C767    C    0.57687   0.20073   0.78928   1.000
    C768    C    0.79927   0.37613   0.78928   1.000
    C769    C    0.62387   0.42313   0.78928   1.000
    C770    C    0.53407   0.24353   0.37738   1.000
    C771    C    0.70947   0.46593   0.37738   1.000
    C772    C    0.75647   0.29053   0.37738   1.000
    C773    C    0.42313   0.79927   0.21072   1.000
    C774    C    0.20073   0.62387   0.21072   1.000
    C775    C    0.37613   0.57687   0.21072   1.000
    C776    C    0.46593   0.75647   0.62262   1.000
    C777    C    0.29053   0.53407   0.62262   1.000
    C778    C    0.24353   0.70947   0.62262   1.000
    C779    C    0.24353   0.53407   0.12262   1.000
    C780    C    0.46593   0.70947   0.12262   1.000
    C781    C    0.29053   0.75647   0.12262   1.000
    C782    C    0.20073   0.57687   0.71072   1.000
    C783    C    0.37613   0.79927   0.71072   1.000
    C784    C    0.42313   0.62387   0.71072   1.000
    C785    C    0.81840   0.79110   0.46720   1.000
    C786    C    0.20890   0.02730   0.46720   1.000
    C787    C    0.97270   0.18160   0.46720   1.000
    C788    C    0.18990   0.12130   0.96341   1.000
    C789    C    0.93140   0.81010   0.96341   1.000
    C790    C    0.87870   0.06860   0.96341   1.000
    C791    C    0.87870   0.81010   0.46341   1.000
    C792    C    0.18990   0.06860   0.46341   1.000
    C793    C    0.93140   0.12130   0.46341   1.000
    C794    C    0.81010   0.87870   0.03659   1.000
    C795    C    0.06860   0.18990   0.03659   1.000
    C796    C    0.12130   0.93140   0.03659   1.000
    C797    C    0.78797   0.52323   0.86992   1.000
    C798    C    0.47677   0.26473   0.86992   1.000
    C799    C    0.73527   0.21203   0.86992   1.000
    C800    C    0.85657   0.45463   0.29674   1.000
    C801    C    0.59807   0.14343   0.29674   1.000
    C802    C    0.54537   0.40193   0.29674   1.000
    C803    C    0.54537   0.14343   0.79674   1.000
    C804    C    0.85657   0.40193   0.79674   1.000
    C805    C    0.59807   0.45463   0.79674   1.000
    C806    C    0.47677   0.21203   0.36992   1.000
    C807    C    0.73527   0.52323   0.36992   1.000
    C808    C    0.78797   0.26473   0.36992   1.000
    C809    C    0.45463   0.85657   0.20326   1.000
    C810    C    0.14343   0.59807   0.20326   1.000
    C811    C    0.40193   0.54537   0.20326   1.000
    C812    C    0.52323   0.78797   0.63008   1.000
    C813    C    0.26473   0.47677   0.63008   1.000
    C814    C    0.21203   0.73527   0.63008   1.000
    C815    C    0.21203   0.47677   0.13008   1.000
    C816    C    0.52323   0.73527   0.13008   1.000
    C817    C    0.26473   0.78797   0.13008   1.000
    C818    C    0.14343   0.54537   0.70326   1.000
    H819    H    0.84747   0.87913   0.27453   1.000
    H820    H    0.03167   0.15253   0.27453   1.000
    H821    H    0.12087   0.96833   0.27453   1.000
    H822    H    0.78753   0.48587   0.10787   1.000
    H823    H    0.51413   0.30167   0.10787   1.000
    H824    H    0.69833   0.21247   0.10787   1.000
    H825    H    0.15253   0.12087   0.72547   1.000
    H826    H    0.96833   0.84747   0.72547   1.000
    H827    H    0.87913   0.03167   0.72547   1.000
    H828    H    0.87913   0.84747   0.22547   1.000
    H829    H    0.15253   0.03167   0.22547   1.000
    H830    H    0.96833   0.12087   0.22547   1.000
    H831    H    0.51413   0.21247   0.60787   1.000
    H832    H    0.69833   0.48587   0.60787   1.000
    H833    H    0.78753   0.30167   0.60787   1.000
    C834    C    0.02970   0.52270   0.44147   1.000
    C835    C    0.47730   0.50700   0.44147   1.000
    C836    C    0.08430   0.57520   0.43760   1.000
    C837    C    0.42480   0.50910   0.43760   1.000
    C838    C    0.79110   0.81840   0.03280   1.000
    C839    C    0.02730   0.20890   0.03280   1.000
    C840    C    0.18160   0.97270   0.03280   1.000
    C841    C    0.84827   0.54223   0.86613   1.000
    C842    C    0.45777   0.30603   0.86613   1.000
    C843    C    0.69397   0.15173   0.86613   1.000
    C844    C    0.87557   0.51493   0.30053   1.000
    C845    C    0.63937   0.12443   0.30053   1.000
    C846    C    0.48507   0.36063   0.30053   1.000
    C847    C    0.48507   0.12443   0.80053   1.000
    C848    C    0.87557   0.36063   0.80053   1.000
    C849    C    0.63937   0.51493   0.80053   1.000
    C850    C    0.45777   0.15173   0.36613   1.000
    C851    C    0.69397   0.54223   0.36613   1.000
    C852    C    0.84827   0.30603   0.36613   1.000
    C853    C    0.51493   0.87557   0.19947   1.000
    C854    C    0.12443   0.63937   0.19947   1.000
    C855    C    0.36063   0.48507   0.19947   1.000
    C856    C    0.54223   0.84827   0.63387   1.000
    C857    C    0.30603   0.45777   0.63387   1.000
    C858    C    0.15173   0.69397   0.63387   1.000
    C859    C    0.15173   0.45777   0.13387   1.000
    C860    C    0.54223   0.69397   0.13387   1.000
    C861    C    0.30603   0.84827   0.13387   1.000
    C862    C    0.12443   0.48507   0.69947   1.000
    C863    C    0.36063   0.87557   0.69947   1.000
    C864    C    0.51493   0.63937   0.69947   1.000
    C865    C    0.73500   0.94640   0.52598   1.000
    C866    C    0.05360   0.78860   0.52598   1.000
    H867    H    0.18570   0.20220   0.96540   1.000
    H868    H    0.01650   0.81430   0.96540   1.000
    H869    H    0.79780   0.98350   0.96540   1.000
    H870    H    0.79780   0.81430   0.46540   1.000
    H871    H    0.18570   0.98350   0.46540   1.000
    H872    H    0.01650   0.20220   0.46540   1.000
    H873    H    0.81430   0.79780   0.03460   1.000
    H874    H    0.98350   0.18570   0.03460   1.000
    H875    H    0.20220   0.01650   0.03460   1.000
    H876    H    0.86887   0.51903   0.86793   1.000
    H877    H    0.48097   0.34983   0.86793   1.000
    H878    H    0.65017   0.13113   0.86793   1.000
    H879    H    0.85237   0.53553   0.29873   1.000
    H880    H    0.68317   0.14763   0.29873   1.000
    H881    H    0.46447   0.31683   0.29873   1.000
    H882    H    0.46447   0.14763   0.79873   1.000
    H883    H    0.85237   0.31683   0.79873   1.000
    H884    H    0.68317   0.53553   0.79873   1.000
    H885    H    0.48097   0.13113   0.36793   1.000
    H886    H    0.65017   0.51903   0.36793   1.000
    H887    H    0.86887   0.34983   0.36793   1.000
    H888    H    0.53553   0.85237   0.20127   1.000
    H889    H    0.14763   0.68317   0.20127   1.000
    H890    H    0.31683   0.46447   0.20127   1.000
    H891    H    0.51903   0.86887   0.63207   1.000
    H892    H    0.34983   0.48097   0.63207   1.000
    H893    H    0.13113   0.65017   0.63207   1.000
    H894    H    0.13113   0.48097   0.13207   1.000
    H895    H    0.51903   0.65017   0.13207   1.000
    H896    H    0.34983   0.86887   0.13207   1.000
    H897    H    0.14763   0.46447   0.70127   1.000
    H898    H    0.31683   0.85237   0.70127   1.000
    H899    H    0.53553   0.68317   0.70127   1.000
    C900    C    0.69760   0.88040   0.52376   1.000
    C901    C    0.11960   0.81720   0.52376   1.000
    C902    C    0.26500   0.21140   0.97402   1.000
    C903    C    0.94640   0.73500   0.97402   1.000
    C904    C    0.78860   0.05360   0.97402   1.000
    C905    C    0.78860   0.73500   0.47402   1.000
    C906    C    0.26500   0.05360   0.47402   1.000
    C907    C    0.94640   0.21140   0.47402   1.000
    C908    C    0.73500   0.78860   0.02598   1.000
    C909    C    0.05360   0.26500   0.02598   1.000
    C910    C    0.21140   0.94640   0.02598   1.000
    C911    C    0.87807   0.59833   0.85931   1.000
    C912    C    0.40167   0.27973   0.85931   1.000
    C913    C    0.72027   0.12193   0.85931   1.000
    C914    C    0.93167   0.54473   0.30735   1.000
    C915    C    0.61307   0.06833   0.30735   1.000
    C916    C    0.45527   0.38693   0.30735   1.000
    C917    C    0.45527   0.06833   0.80735   1.000
    C918    C    0.93167   0.38693   0.80735   1.000
    C919    C    0.61307   0.54473   0.80735   1.000
    C920    C    0.40167   0.12193   0.35931   1.000
    C921    C    0.72027   0.59833   0.35931   1.000
    C922    C    0.87807   0.27973   0.35931   1.000
    C923    C    0.54473   0.93167   0.19265   1.000
    C924    C    0.06833   0.61307   0.19265   1.000
    C925    C    0.38693   0.45527   0.19265   1.000
    C926    C    0.59833   0.87807   0.64069   1.000
    C927    C    0.27973   0.40167   0.64069   1.000
    C928    C    0.12193   0.72027   0.64069   1.000
    C929    C    0.12193   0.40167   0.14069   1.000
    C930    C    0.59833   0.72027   0.14069   1.000
    C931    C    0.27973   0.87807   0.14069   1.000
    C932    C    0.06833   0.45527   0.69265   1.000
    C933    C    0.38693   0.93167   0.69265   1.000
    C934    C    0.54473   0.61307   0.69265   1.000
    C935    C    0.71870   0.84450   0.52800   1.000
    C936    C    0.15550   0.87420   0.52800   1.000
    C937    C    0.30240   0.18280   0.97624   1.000
    C938    C    0.88040   0.69760   0.97624   1.000
    C939    C    0.81720   0.11960   0.97624   1.000
    C940    C    0.81720   0.69760   0.47624   1.000
    C941    C    0.30240   0.11960   0.47624   1.000
    C942    C    0.88040   0.18280   0.47624   1.000
    C943    C    0.69760   0.81720   0.02376   1.000
    C944    C    0.11960   0.30240   0.02376   1.000
    C945    C    0.18280   0.88040   0.02376   1.000
    C946    C    0.84947   0.63573   0.85709   1.000
    C947    C    0.36427   0.21373   0.85709   1.000
    C948    C    0.78627   0.15053   0.85709   1.000
    C949    C    0.96907   0.51613   0.30957   1.000
    C950    C    0.54707   0.03093   0.30957   1.000
    C951    C    0.48387   0.45293   0.30957   1.000
    C952    C    0.48387   0.03093   0.80957   1.000
    C953    C    0.96907   0.45293   0.80957   1.000
    C954    C    0.54707   0.51613   0.80957   1.000
    C955    C    0.36427   0.15053   0.35709   1.000
    C956    C    0.78627   0.63573   0.35709   1.000
    C957    C    0.84947   0.21373   0.35709   1.000
    C958    C    0.51613   0.96907   0.19043   1.000
    C959    C    0.03093   0.54707   0.19043   1.000
    C960    C    0.45293   0.48387   0.19043   1.000
    C961    C    0.63573   0.84947   0.64291   1.000
    C962    C    0.21373   0.36427   0.64291   1.000
    C963    C    0.15053   0.78627   0.64291   1.000
    C964    C    0.15053   0.36427   0.14291   1.000
    C965    C    0.63573   0.78627   0.14291   1.000
    C966    C    0.21373   0.84947   0.14291   1.000
    C967    C    0.03093   0.48387   0.69043   1.000
    C968    C    0.45293   0.96907   0.69043   1.000
    C969    C    0.51613   0.54707   0.69043   1.000
    H970    H    0.69340   0.80060   0.52660   1.000
    H971    H    0.19940   0.89280   0.52660   1.000
    C972    C    0.28130   0.12580   0.97200   1.000
    C973    C    0.84450   0.71870   0.97200   1.000
    C974    C    0.87420   0.15550   0.97200   1.000
    C975    C    0.87420   0.71870   0.47200   1.000
    C976    C    0.28130   0.15550   0.47200   1.000
    C977    C    0.84450   0.12580   0.47200   1.000
    C978    C    0.71870   0.87420   0.02800   1.000
    C979    C    0.15550   0.28130   0.02800   1.000
    C980    C    0.12580   0.84450   0.02800   1.000
    C981    C    0.79247   0.61463   0.86133   1.000
    C982    C    0.38537   0.17783   0.86133   1.000
    C983    C    0.82217   0.20753   0.86133   1.000
    C984    C    0.94797   0.45913   0.30533   1.000
    C985    C    0.51117   0.05203   0.30533   1.000
    C986    C    0.54087   0.48883   0.30533   1.000
    C987    C    0.54087   0.05203   0.80533   1.000
    C988    C    0.94797   0.48883   0.80533   1.000
    C989    C    0.51117   0.45913   0.80533   1.000
    C990    C    0.38537   0.20753   0.36133   1.000
    C991    C    0.82217   0.61463   0.36133   1.000
    C992    C    0.79247   0.17783   0.36133   1.000
    C993    C    0.45913   0.94797   0.19467   1.000
    C994    C    0.05203   0.51117   0.19467   1.000
    C995    C    0.48883   0.54087   0.19467   1.000
    C996    C    0.61463   0.79247   0.63867   1.000
    C997    C    0.17783   0.38537   0.63867   1.000
    C998    C    0.20753   0.82217   0.63867   1.000
    C999    C    0.20753   0.38537   0.13867   1.000
    C1000   C    0.61463   0.82217   0.13867   1.000
    C1001   C    0.17783   0.79247   0.13867   1.000
    C1002   C    0.05203   0.54087   0.69467   1.000
    C1003   C    0.48883   0.94797   0.69467   1.000
    C1004   C    0.45913   0.51117   0.69467   1.000
    C1005   C    0.77540   0.86400   0.53460   1.000
    C1006   C    0.13600   0.91140   0.53460   1.000
    H1007   H    0.30660   0.10720   0.97340   1.000
    H1008   H    0.80060   0.69340   0.97340   1.000
    H1009   H    0.89280   0.19940   0.97340   1.000
    H1010   H    0.89280   0.69340   0.47340   1.000
    H1011   H    0.30660   0.19940   0.47340   1.000
    H1012   H    0.80060   0.10720   0.47340   1.000
    H1013   H    0.69340   0.89280   0.02660   1.000
    H1014   H    0.19940   0.30660   0.02660   1.000
    H1015   H    0.10720   0.80060   0.02660   1.000
    H1016   H    0.77387   0.63993   0.85993   1.000
    H1017   H    0.36007   0.13393   0.85993   1.000
    H1018   H    0.86607   0.22613   0.85993   1.000
    H1019   H    0.97327   0.44053   0.30673   1.000
    H1020   H    0.46727   0.02673   0.30673   1.000
    H1021   H    0.55947   0.53273   0.30673   1.000
    H1022   H    0.55947   0.02673   0.80673   1.000
    H1023   H    0.97327   0.53273   0.80673   1.000
    H1024   H    0.46727   0.44053   0.80673   1.000
    H1025   H    0.36007   0.22613   0.35993   1.000
    H1026   H    0.86607   0.63993   0.35993   1.000
    H1027   H    0.77387   0.13393   0.35993   1.000
    H1028   H    0.44053   0.97327   0.19327   1.000
    H1029   H    0.02673   0.46727   0.19327   1.000
    H1030   H    0.53273   0.55947   0.19327   1.000
    H1031   H    0.63993   0.77387   0.64007   1.000
    H1032   H    0.13393   0.36007   0.64007   1.000
    H1033   H    0.22613   0.86607   0.64007   1.000
    H1034   H    0.22613   0.36007   0.14007   1.000
    H1035   H    0.63993   0.86607   0.14007   1.000
    H1036   H    0.13393   0.77387   0.14007   1.000
    H1037   H    0.02673   0.55947   0.69327   1.000
    H1038   H    0.53273   0.97327   0.69327   1.000
    H1039   H    0.44053   0.46727   0.69327   1.000
    H1040   H    0.78880   0.83600   0.53740   1.000
    H1041   H    0.16400   0.95280   0.53740   1.000
    C1042   C    0.22460   0.08860   0.96540   1.000
    C1043   C    0.86400   0.77540   0.96540   1.000
    C1044   C    0.91140   0.13600   0.96540   1.000
    C1045   C    0.91140   0.77540   0.46540   1.000
    C1046   C    0.22460   0.13600   0.46540   1.000
    C1047   C    0.86400   0.08860   0.46540   1.000
    C1048   C    0.77540   0.91140   0.03460   1.000
    C1049   C    0.13600   0.22460   0.03460   1.000
    C1050   C    0.08860   0.86400   0.03460   1.000
    C1051   C    0.75527   0.55793   0.86793   1.000
    C1052   C    0.44207   0.19733   0.86793   1.000
    C1053   C    0.80267   0.24473   0.86793   1.000
    C1054   C    0.89127   0.42193   0.29873   1.000
    C1055   C    0.53067   0.10873   0.29873   1.000
    C1056   C    0.57807   0.46933   0.29873   1.000
    C1057   C    0.57807   0.10873   0.79873   1.000
    C1058   C    0.89127   0.46933   0.79873   1.000
    C1059   C    0.77743   0.19787   0.72656   1.000
    C1060   C    0.77743   0.57957   0.22656   1.000
    C1061   C    0.42043   0.19787   0.22656   1.000
    C1062   C    0.80213   0.22257   0.22656   1.000
    C1063   C    0.24623   0.11077   0.60678   1.000
    C1064   C    0.86453   0.75377   0.60678   1.000
    C1065   C    0.88923   0.13547   0.60678   1.000
    N1066   N    0.09070   0.60590   0.42631   1.000
    N1067   N    0.39410   0.48480   0.42631   1.000
    C1068   C    0.80350   0.41450   0.41291   1.000
    C1069   C    0.58550   0.38900   0.41291   1.000
    C1070   C    0.19650   0.61100   0.08709   1.000
    C1071   C    0.41450   0.80350   0.08709   1.000
    C1072   C    0.38900   0.58550   0.08709   1.000
    C1073   C    0.38900   0.80350   0.58709   1.000
    C1074   C    0.19650   0.58550   0.58709   1.000
    C1075   C    0.41450   0.61100   0.58709   1.000
    C1076   C    0.80350   0.38900   0.91291   1.000
    C1077   C    0.58550   0.19650   0.91291   1.000
    C1078   C    0.61100   0.41450   0.91291   1.000
    C1079   C    0.27767   0.52983   0.74624   1.000
    C1080   C    0.47017   0.74783   0.74624   1.000
    C1081   C    0.25217   0.72233   0.74624   1.000
    C1082   C    0.86317   0.94433   0.42042   1.000
    C1083   C    0.08117   0.13683   0.42042   1.000
    C1084   C    0.05567   0.91883   0.42042   1.000
    C1085   C    0.46933   0.89127   0.70127   1.000
    C1086   C    0.42193   0.53067   0.70127   1.000
    C1087   C    0.65280   0.98470   0.52478   1.000
    C1088   C    0.01530   0.66810   0.52478   1.000
    H1089   H    0.21120   0.04720   0.96260   1.000
    H1090   H    0.83600   0.78880   0.96260   1.000
    H1091   H    0.95280   0.16400   0.96260   1.000
    H1092   H    0.95280   0.78880   0.46260   1.000
    H1093   H    0.21120   0.16400   0.46260   1.000
    H1094   H    0.83600   0.04720   0.46260   1.000
    H1095   H    0.78880   0.95280   0.03740   1.000
    H1096   H    0.16400   0.21120   0.03740   1.000
    H1097   H    0.04720   0.83600   0.03740   1.000
    H1098   H    0.71387   0.54453   0.87073   1.000
    H1099   H    0.45547   0.16933   0.87073   1.000
    H1100   H    0.83067   0.28613   0.87073   1.000
    H1101   H    0.87787   0.38053   0.29593   1.000
    H1102   H    0.50267   0.12213   0.29593   1.000
    H1103   H    0.61947   0.49733   0.29593   1.000
    H1104   H    0.61947   0.12213   0.79593   1.000
    H1105   H    0.87787   0.49733   0.79593   1.000
    H1106   H    0.50267   0.38053   0.79593   1.000
    H1107   H    0.45547   0.28613   0.37073   1.000
    H1108   H    0.83067   0.54453   0.37073   1.000
    H1109   H    0.71387   0.16933   0.37073   1.000
    H1110   H    0.38053   0.87787   0.20407   1.000
    H1111   H    0.12213   0.50267   0.20407   1.000
    H1112   H    0.49733   0.61947   0.20407   1.000
    H1113   H    0.54453   0.71387   0.62927   1.000
    H1114   H    0.16933   0.45547   0.62927   1.000
    H1115   H    0.28613   0.83067   0.62927   1.000
    H1116   H    0.28613   0.45547   0.12927   1.000
    H1117   H    0.54453   0.83067   0.12927   1.000
    H1118   H    0.16933   0.71387   0.12927   1.000
    H1119   H    0.12213   0.61947   0.70407   1.000
    H1120   H    0.49733   0.87787   0.70407   1.000
    H1121   H    0.38053   0.50267   0.70407   1.000
    C1122   C    0.64270   0.85100   0.51654   1.000
    C1123   C    0.14900   0.79170   0.51654   1.000
    C1124   C    0.34720   0.33190   0.97522   1.000
    C1125   C    0.98470   0.65280   0.97522   1.000
    C1126   C    0.66810   0.01530   0.97522   1.000
    C1127   C    0.66810   0.65280   0.47522   1.000
    C1128   C    0.34720   0.01530   0.47522   1.000
    C1129   C    0.98470   0.33190   0.47522   1.000
    C1130   C    0.65280   0.66810   0.02478   1.000
    C1131   C    0.01530   0.34720   0.02478   1.000
    C1132   C    0.33190   0.98470   0.02478   1.000
    C1133   C    0.99857   0.68053   0.85811   1.000
    C1134   C    0.31947   0.31803   0.85811   1.000
    C1135   C    0.68197   0.00143   0.85811   1.000
    C1136   C    0.01387   0.66523   0.30855   1.000
    C1137   C    0.65137   0.98613   0.30855   1.000
    C1138   C    0.33477   0.34863   0.30855   1.000
    C1139   C    0.33477   0.98613   0.80855   1.000
    C1140   C    0.01387   0.34863   0.80855   1.000
    C1141   C    0.65137   0.66523   0.80855   1.000
    C1142   C    0.31947   0.00143   0.35811   1.000
    C1143   C    0.68197   0.68053   0.35811   1.000
    C1144   C    0.99857   0.31803   0.35811   1.000
    C1145   C    0.66523   0.01387   0.19145   1.000
    C1146   C    0.98613   0.65137   0.19145   1.000
    C1147   C    0.34863   0.33477   0.19145   1.000
    C1148   C    0.68053   0.99857   0.64189   1.000
    C1149   C    0.31803   0.31947   0.64189   1.000
    C1150   C    0.00143   0.68197   0.64189   1.000
    C1151   C    0.00143   0.31947   0.14189   1.000
    C1152   C    0.68053   0.68197   0.14189   1.000
    C1153   C    0.31803   0.99857   0.14189   1.000
    C1154   C    0.98613   0.33477   0.69145   1.000
    C1155   C    0.34863   0.01387   0.69145   1.000
    C1156   C    0.66523   0.65137   0.69145   1.000
    C1157   C    0.60030   0.87620   0.51548   1.000
    C1158   C    0.12380   0.72410   0.51548   1.000
    C1159   C    0.35730   0.20830   0.98346   1.000
    C1160   C    0.85100   0.64270   0.98346   1.000
    C1161   C    0.79170   0.14900   0.98346   1.000
    C1162   C    0.79170   0.64270   0.48346   1.000
    C1163   C    0.35730   0.14900   0.48346   1.000
    C1164   C    0.85100   0.20830   0.48346   1.000
    C1165   C    0.64270   0.79170   0.01654   1.000
    C1166   C    0.14900   0.35730   0.01654   1.000
    C1167   C    0.20830   0.85100   0.01654   1.000
    C1168   C    0.87497   0.69063   0.84987   1.000
    C1169   C    0.30937   0.18433   0.84987   1.000
    C1170   C    0.81567   0.12503   0.84987   1.000
    C1171   C    0.02397   0.54163   0.31679   1.000
    C1172   C    0.51767   0.97603   0.31679   1.000
    C1173   C    0.45837   0.48233   0.31679   1.000
    C1174   C    0.45837   0.97603   0.81679   1.000
    C1175   C    0.02397   0.48233   0.81679   1.000
    C1176   C    0.51767   0.54163   0.81679   1.000
    C1177   C    0.30937   0.12503   0.34987   1.000
    C1178   C    0.81567   0.69063   0.34987   1.000
    C1179   C    0.87497   0.18433   0.34987   1.000
    C1180   C    0.54163   0.02397   0.18321   1.000
    C1181   C    0.97603   0.51767   0.18321   1.000
    C1182   C    0.48233   0.45837   0.18321   1.000
    C1183   C    0.69063   0.87497   0.65013   1.000
    C1184   C    0.18433   0.30937   0.65013   1.000
    C1185   C    0.12503   0.81567   0.65013   1.000
    C1186   C    0.12503   0.30937   0.15013   1.000
    C1187   C    0.69063   0.81567   0.15013   1.000
    C1188   C    0.18433   0.87497   0.15013   1.000
    C1189   C    0.97603   0.45837   0.68321   1.000
    C1190   C    0.48233   0.02397   0.68321   1.000
    C1191   C    0.54163   0.51767   0.68321   1.000
    C1192   C    0.54710   0.84830   0.50836   1.000
    C1193   C    0.15170   0.69880   0.50836   1.000
    C1194   C    0.39970   0.27590   0.98452   1.000
    C1195   C    0.87620   0.60030   0.98452   1.000
    C1196   C    0.72410   0.12380   0.98452   1.000
    C1197   C    0.72410   0.60030   0.48452   1.000
    C1198   C    0.39970   0.12380   0.48452   1.000
    C1199   C    0.87620   0.27590   0.48452   1.000
    C1200   C    0.60030   0.72410   0.01548   1.000
    C1201   C    0.12380   0.39970   0.01548   1.000
    C1202   C    0.27590   0.87620   0.01548   1.000
    C1203   C    0.94257   0.73303   0.84881   1.000
    C1204   C    0.26697   0.20953   0.84881   1.000
    C1205   C    0.79047   0.05743   0.84881   1.000
    C1206   C    0.06637   0.60923   0.31785   1.000
    C1207   C    0.54287   0.93363   0.31785   1.000
    C1208   C    0.39077   0.45713   0.31785   1.000
    C1209   C    0.39077   0.93363   0.81785   1.000
    C1210   C    0.06637   0.45713   0.81785   1.000
    C1211   C    0.54287   0.60923   0.81785   1.000
    C1212   C    0.26697   0.05743   0.34881   1.000
    C1213   C    0.79047   0.73303   0.34881   1.000
    C1214   C    0.94257   0.20953   0.34881   1.000
    C1215   C    0.60923   0.06637   0.18215   1.000
    C1216   C    0.93363   0.54287   0.18215   1.000
    C1217   C    0.45713   0.39077   0.18215   1.000
    C1218   C    0.73303   0.94257   0.65119   1.000
    C1219   C    0.20953   0.26697   0.65119   1.000
    C1220   C    0.05743   0.79047   0.65119   1.000
    C1221   C    0.05743   0.26697   0.15119   1.000
    C1222   C    0.73303   0.79047   0.15119   1.000
    C1223   C    0.20953   0.94257   0.15119   1.000
    C1224   C    0.93363   0.39077   0.68215   1.000
    C1225   C    0.45713   0.06637   0.68215   1.000
    C1226   C    0.60923   0.54287   0.68215   1.000
    H1227   H    0.51940   0.86480   0.50770   1.000
    H1228   H    0.13520   0.65460   0.50770   1.000
    C1229   C    0.45290   0.30120   0.99164   1.000
    C1230   C    0.84830   0.54710   0.99164   1.000
    C1231   C    0.69880   0.15170   0.99164   1.000
    C1232   C    0.69880   0.54710   0.49164   1.000
    C1233   C    0.45290   0.15170   0.49164   1.000
    C1234   C    0.84830   0.30120   0.49164   1.000
    C1235   C    0.54710   0.69880   0.00836   1.000
    C1236   C    0.15170   0.45290   0.00836   1.000
    C1237   C    0.30120   0.84830   0.00836   1.000
    C1238   C    0.96787   0.78623   0.84169   1.000
    C1239   C    0.21377   0.18163   0.84169   1.000
    C1240   C    0.81837   0.03213   0.84169   1.000
    C1241   C    0.11957   0.63453   0.32497   1.000
    C1242   C    0.51497   0.88043   0.32497   1.000
    C1243   C    0.36547   0.48503   0.32497   1.000
    C1244   C    0.36547   0.88043   0.82497   1.000
    C1245   C    0.11957   0.48503   0.82497   1.000
    C1246   C    0.51497   0.63453   0.82497   1.000
    C1247   C    0.21377   0.03213   0.34169   1.000
    C1248   C    0.81837   0.78623   0.34169   1.000
    C1249   C    0.96787   0.18163   0.34169   1.000
    C1250   C    0.63453   0.11957   0.17503   1.000
    C1251   C    0.88043   0.51497   0.17503   1.000
    C1252   C    0.48503   0.36547   0.17503   1.000
    C1253   C    0.78623   0.96787   0.65831   1.000
    C1254   C    0.18163   0.21377   0.65831   1.000
    C1255   C    0.03213   0.81837   0.65831   1.000
    C1256   C    0.03213   0.21377   0.15831   1.000
    C1257   C    0.78623   0.81837   0.15831   1.000
    C1258   C    0.18163   0.96787   0.15831   1.000
    C1259   C    0.88043   0.36547   0.67503   1.000
    C1260   C    0.48503   0.11957   0.67503   1.000
    C1261   C    0.63453   0.51497   0.67503   1.000
    C1262   C    0.53650   0.79280   0.50206   1.000
    C1263   C    0.20720   0.74370   0.50206   1.000
    H1264   H    0.48060   0.34540   0.99230   1.000
    H1265   H    0.86480   0.51940   0.99230   1.000
    H1266   H    0.65460   0.13520   0.99230   1.000
    H1267   H    0.65460   0.51940   0.49230   1.000
    H1268   H    0.48060   0.13520   0.49230   1.000
    H1269   H    0.86480   0.34540   0.49230   1.000
    H1270   H    0.51940   0.65460   0.00770   1.000
    H1271   H    0.13520   0.48060   0.00770   1.000
    H1272   H    0.34540   0.86480   0.00770   1.000
    H1273   H    0.01207   0.81393   0.84103   1.000
    H1274   H    0.18607   0.19813   0.84103   1.000
    H1275   H    0.80187   0.98793   0.84103   1.000
    H1276   H    0.14727   0.67873   0.32563   1.000
    H1277   H    0.53147   0.85273   0.32563   1.000
    H1278   H    0.32127   0.46853   0.32563   1.000
    H1279   H    0.32127   0.85273   0.82563   1.000
    H1280   H    0.14727   0.46853   0.82563   1.000
    H1281   H    0.53147   0.67873   0.82563   1.000
    H1282   H    0.18607   0.98793   0.34103   1.000
    H1283   H    0.80187   0.81393   0.34103   1.000
    H1284   H    0.01207   0.19813   0.34103   1.000
    H1285   H    0.67873   0.14727   0.17437   1.000
    H1286   H    0.85273   0.53147   0.17437   1.000
    H1287   H    0.46853   0.32127   0.17437   1.000
    H1288   H    0.81393   0.01207   0.65897   1.000
    H1289   H    0.19813   0.18607   0.65897   1.000
    H1290   H    0.98793   0.80187   0.65897   1.000
    H1291   H    0.98793   0.18607   0.15897   1.000
    H1292   H    0.81393   0.80187   0.15897   1.000
    H1293   H    0.19813   0.01207   0.15897   1.000
    H1294   H    0.85273   0.32127   0.67437   1.000
    H1295   H    0.46853   0.14727   0.67437   1.000
    H1296   H    0.67873   0.53147   0.67437   1.000
    C1297   C    0.58150   0.77270   0.50200   1.000
    C1298   C    0.22730   0.80880   0.50200   1.000
    C1299   C    0.46350   0.25630   0.99794   1.000
    C1300   C    0.79280   0.53650   0.99794   1.000
    C1301   C    0.74370   0.20720   0.99794   1.000
    C1302   C    0.74370   0.53650   0.49794   1.000
    C1303   C    0.46350   0.20720   0.49794   1.000
    C1304   C    0.79280   0.25630   0.49794   1.000
    C1305   C    0.53650   0.74370   0.00206   1.000
    C1306   C    0.20720   0.46350   0.00206   1.000
    C1307   C    0.25630   0.79280   0.00206   1.000
    C1308   C    0.92297   0.79683   0.83539   1.000
    C1309   C    0.20317   0.12613   0.83539   1.000
    C1310   C    0.87387   0.07703   0.83539   1.000
    C1311   C    0.13017   0.58963   0.33127   1.000
    C1312   C    0.45947   0.86983   0.33127   1.000
    C1313   C    0.41037   0.54053   0.33127   1.000
    C1314   C    0.41037   0.86983   0.83127   1.000
    C1315   C    0.13017   0.54053   0.83127   1.000
    C1316   C    0.45947   0.58963   0.83127   1.000
    C1317   C    0.20317   0.07703   0.33539   1.000
    C1318   C    0.87387   0.79683   0.33539   1.000
    C1319   C    0.92297   0.12613   0.33539   1.000
    C1320   C    0.58963   0.13017   0.16873   1.000
    C1321   C    0.86983   0.45947   0.16873   1.000
    C1322   C    0.54053   0.41037   0.16873   1.000
    C1323   C    0.79683   0.92297   0.66461   1.000
    C1324   C    0.12613   0.20317   0.66461   1.000
    C1325   C    0.07703   0.87387   0.66461   1.000
    C1326   C    0.07703   0.20317   0.16461   1.000
    C1327   C    0.79683   0.87387   0.16461   1.000
    C1328   C    0.12613   0.92297   0.16461   1.000
    C1329   C    0.86983   0.41037   0.66873   1.000
    C1330   C    0.54053   0.13017   0.66873   1.000
    C1331   C    0.58963   0.45947   0.66873   1.000
    H1332   H    0.57300   0.73640   0.49750   1.000
    H1333   H    0.26360   0.83660   0.49750   1.000
    C1334   C    0.41850   0.19120   0.99800   1.000
    C1335   C    0.77270   0.58150   0.99800   1.000
    C1336   C    0.80880   0.22730   0.99800   1.000
    C1337   C    0.80880   0.58150   0.49800   1.000
    C1338   C    0.41850   0.22730   0.49800   1.000
    C1339   C    0.77270   0.19120   0.49800   1.000
    C1340   C    0.58150   0.80880   0.00200   1.000
    C1341   C    0.22730   0.41850   0.00200   1.000
    C1342   C    0.19120   0.77270   0.00200   1.000
    C1343   C    0.85787   0.75183   0.83533   1.000
    C1344   C    0.24817   0.10603   0.83533   1.000
    C1345   C    0.89397   0.14213   0.83533   1.000
    C1346   C    0.08517   0.52453   0.33133   1.000
    C1347   C    0.43937   0.91483   0.33133   1.000
    C1348   C    0.47547   0.56063   0.33133   1.000
    C1349   C    0.47547   0.91483   0.83133   1.000
    C1350   C    0.08517   0.56063   0.83133   1.000
    C1351   C    0.43937   0.52453   0.83133   1.000
    C1352   C    0.24817   0.14213   0.33533   1.000
    C1353   C    0.89397   0.75183   0.33533   1.000
    C1354   C    0.85787   0.10603   0.33533   1.000
    C1355   C    0.52453   0.08517   0.16867   1.000
    C1356   C    0.91483   0.43937   0.16867   1.000
    C1357   C    0.56063   0.47547   0.16867   1.000
    C1358   C    0.75183   0.85787   0.66467   1.000
    C1359   C    0.10603   0.24817   0.66467   1.000
    C1360   C    0.14213   0.89397   0.66467   1.000
    C1361   C    0.14213   0.24817   0.16467   1.000
    C1362   C    0.75183   0.89397   0.16467   1.000
    C1363   C    0.10603   0.85787   0.16467   1.000
    C1364   C    0.91483   0.47547   0.66867   1.000
    C1365   C    0.56063   0.08517   0.66867   1.000
    C1366   C    0.52453   0.43937   0.66867   1.000
    C1367   C    0.63340   0.80160   0.50780   1.000
    C1368   C    0.19840   0.83180   0.50780   1.000
    H1369   H    0.42700   0.16340   0.00250   1.000
    H1370   H    0.73640   0.57300   0.00250   1.000
    H1371   H    0.83660   0.26360   0.00250   1.000
    H1372   H    0.83660   0.57300   0.50250   1.000
    H1373   H    0.42700   0.26360   0.50250   1.000
    H1374   H    0.73640   0.16340   0.50250   1.000
    H1375   H    0.57300   0.83660   0.99750   1.000
    H1376   H    0.26360   0.42700   0.99750   1.000
    H1377   H    0.16340   0.73640   0.99750   1.000
    H1378   H    0.83007   0.76033   0.83083   1.000
    H1379   H    0.23967   0.06973   0.83083   1.000
    H1380   H    0.93027   0.16993   0.83083   1.000
    H1381   H    0.09367   0.49673   0.33583   1.000
    H1382   H    0.40307   0.90633   0.33583   1.000
    H1383   H    0.50327   0.59693   0.33583   1.000
    H1384   H    0.50327   0.90633   0.83583   1.000
    H1385   H    0.09367   0.59693   0.83583   1.000
    H1386   H    0.40307   0.49673   0.83583   1.000
    H1387   H    0.23967   0.16993   0.33083   1.000
    H1388   H    0.93027   0.76033   0.33083   1.000
    H1389   H    0.83007   0.06973   0.33083   1.000
    H1390   H    0.49673   0.09367   0.16417   1.000
    H1391   H    0.90633   0.40307   0.16417   1.000
    H1392   H    0.59693   0.50327   0.16417   1.000
    H1393   H    0.76033   0.83007   0.66917   1.000
    H1394   H    0.06973   0.23967   0.66917   1.000
    H1395   H    0.16993   0.93027   0.66917   1.000
    H1396   H    0.16993   0.23967   0.16917   1.000
    H1397   H    0.76033   0.93027   0.16917   1.000
    H1398   H    0.06973   0.83007   0.16917   1.000
    H1399   H    0.90633   0.50327   0.66417   1.000
    H1400   H    0.59693   0.09367   0.66417   1.000
    H1401   H    0.49673   0.40307   0.66417   1.000
    H1402   H    0.66580   0.79160   0.50650   1.000
    H1403   H    0.20840   0.87420   0.50650   1.000
    C1404   C    0.36660   0.16820   0.99220   1.000
    C1405   C    0.80160   0.63340   0.99220   1.000
    C1406   C    0.83180   0.19840   0.99220   1.000
    C1407   C    0.83180   0.63340   0.49220   1.000
    C1408   C    0.36660   0.19840   0.49220   1.000
    C1409   C    0.80160   0.16820   0.49220   1.000
    C1410   C    0.63340   0.83180   0.00780   1.000
    C1411   C    0.19840   0.36660   0.00780   1.000
    C1412   C    0.16820   0.80160   0.00780   1.000
    C1413   C    0.83487   0.69993   0.84113   1.000
    C1414   C    0.30007   0.13493   0.84113   1.000
    C1415   C    0.86507   0.16513   0.84113   1.000
    C1416   C    0.03327   0.50153   0.32553   1.000
    C1417   C    0.46827   0.96673   0.32553   1.000
    C1418   C    0.49847   0.53173   0.32553   1.000
    C1419   C    0.49847   0.96673   0.82553   1.000
    C1420   C    0.03327   0.53173   0.82553   1.000
    C1421   C    0.46827   0.50153   0.82553   1.000
    C1422   C    0.30007   0.16513   0.34113   1.000
    C1423   C    0.86507   0.69993   0.34113   1.000
    C1424   C    0.83487   0.13493   0.34113   1.000
    C1425   C    0.50153   0.03327   0.17447   1.000
    C1426   C    0.96673   0.46827   0.17447   1.000
    C1427   C    0.53173   0.49847   0.17447   1.000
    C1428   C    0.69993   0.83487   0.65887   1.000
    C1429   C    0.13493   0.30007   0.65887   1.000
    C1430   C    0.16513   0.86507   0.65887   1.000
    C1431   C    0.16513   0.30007   0.15887   1.000
    C1432   C    0.69993   0.86507   0.15887   1.000
    C1433   C    0.13493   0.83487   0.15887   1.000
    C1434   C    0.96673   0.49847   0.67447   1.000
    C1435   C    0.53173   0.03327   0.67447   1.000
    C1436   C    0.50153   0.46827   0.67447   1.000
    C1437   C    0.47200   0.76130   0.49590   1.000
    C1438   C    0.23870   0.71070   0.49590   1.000
    H1439   H    0.33420   0.12580   0.99350   1.000
    H1440   H    0.79160   0.66580   0.99350   1.000
    H1441   H    0.87420   0.20840   0.99350   1.000
    H1442   H    0.87420   0.66580   0.49350   1.000
    H1443   H    0.33420   0.20840   0.49350   1.000
    H1444   H    0.79160   0.12580   0.49350   1.000
    H1445   H    0.66580   0.87420   0.00650   1.000
    H1446   H    0.20840   0.33420   0.00650   1.000
    H1447   H    0.12580   0.79160   0.00650   1.000
    H1448   H    0.79247   0.66753   0.83983   1.000
    H1449   H    0.33247   0.12493   0.83983   1.000
    H1450   H    0.87507   0.20753   0.83983   1.000
    H1451   H    0.00087   0.45913   0.32683   1.000
    H1452   H    0.45827   0.99913   0.32683   1.000
    H1453   H    0.54087   0.54173   0.32683   1.000
    H1454   H    0.54087   0.99913   0.82683   1.000
    H1455   H    0.00087   0.54173   0.82683   1.000
    H1456   H    0.45827   0.45913   0.82683   1.000
    H1457   H    0.33247   0.20753   0.33983   1.000
    H1458   H    0.87507   0.66753   0.33983   1.000
    H1459   H    0.79247   0.12493   0.33983   1.000
    H1460   H    0.45913   0.00087   0.17317   1.000
    H1461   H    0.99913   0.45827   0.17317   1.000
    H1462   H    0.54173   0.54087   0.17317   1.000
    H1463   H    0.66753   0.79247   0.66017   1.000
    H1464   H    0.12493   0.33247   0.66017   1.000
    H1465   H    0.20753   0.87507   0.66017   1.000
    H1466   H    0.20753   0.33247   0.16017   1.000
    H1467   H    0.66753   0.87507   0.16017   1.000
    H1468   H    0.12493   0.79247   0.16017   1.000
    H1469   H    0.99913   0.54087   0.67317   1.000
    H1470   H    0.54173   0.00087   0.67317   1.000
    H1471   H    0.45913   0.45827   0.67317   1.000
    C1472   C    0.20070   0.59880   0.46170   1.000
    C1473   C    0.40120   0.60190   0.46170   1.000
    C1474   C    0.52800   0.28930   0.00410   1.000
    C1475   C    0.76130   0.47200   0.00410   1.000
    C1476   C    0.71070   0.23870   0.00410   1.000
    C1477   C    0.71070   0.47200   0.50410   1.000
    C1478   C    0.52800   0.23870   0.50410   1.000
    C1479   C    0.76130   0.28930   0.50410   1.000
    C1480   C    0.47200   0.71070   0.99590   1.000
    C1481   C    0.23870   0.52800   0.99590   1.000
    C1482   C    0.28930   0.76130   0.99590   1.000
    C1483   C    0.95597   0.86133   0.82923   1.000
    C1484   C    0.13867   0.09463   0.82923   1.000
    C1485   C    0.90537   0.04403   0.82923   1.000
    C1486   C    0.19467   0.62263   0.33743   1.000
    C1487   C    0.42797   0.80533   0.33743   1.000
    C1488   C    0.37737   0.57203   0.33743   1.000
    C1489   C    0.37737   0.80533   0.83743   1.000
    C1490   C    0.19467   0.57203   0.83743   1.000
    C1491   C    0.42797   0.62263   0.83743   1.000
    C1492   C    0.13867   0.04403   0.32923   1.000
    C1493   C    0.90537   0.86133   0.32923   1.000
    C1494   C    0.95597   0.09463   0.32923   1.000
    C1495   C    0.62263   0.19467   0.16257   1.000
    C1496   C    0.80533   0.42797   0.16257   1.000
    C1497   C    0.57203   0.37737   0.16257   1.000
    C1498   C    0.86133   0.95597   0.67077   1.000
    C1499   C    0.09463   0.13867   0.67077   1.000
    C1500   C    0.04403   0.90537   0.67077   1.000
    C1501   C    0.04403   0.13867   0.17077   1.000
    C1502   C    0.86133   0.90537   0.17077   1.000
    C1503   C    0.09463   0.95597   0.17077   1.000
    C1504   C    0.80533   0.37737   0.66257   1.000
    C1505   C    0.57203   0.19467   0.66257   1.000
    C1506   C    0.62263   0.42797   0.66257   1.000
    C1507   C    0.13940   0.57090   0.45471   1.000
    C1508   C    0.42910   0.56850   0.45471   1.000
    C1509   C    0.79930   0.39810   0.03830   1.000
    C1510   C    0.59880   0.20070   0.03830   1.000
    C1511   C    0.60190   0.40120   0.03830   1.000
    C1512   C    0.60190   0.20070   0.53830   1.000
    C1513   C    0.79930   0.40120   0.53830   1.000
    C1514   C    0.59880   0.39810   0.53830   1.000
    C1515   C    0.20070   0.60190   0.96170   1.000
    C1516   C    0.40120   0.79930   0.96170   1.000
    C1517   C    0.39810   0.59880   0.96170   1.000
    C1518   C    0.06477   0.13263   0.79503   1.000
    C1519   C    0.86737   0.93213   0.79503   1.000
    C1520   C    0.06787   0.93523   0.79503   1.000
    C1521   C    0.46597   0.73143   0.37163   1.000
    C1522   C    0.26547   0.53403   0.37163   1.000
    C1523   C    0.26857   0.73453   0.37163   1.000
    C1524   C    0.26857   0.53403   0.87163   1.000
    C1525   C    0.46597   0.73453   0.87163   1.000
    C1526   C    0.26547   0.73143   0.87163   1.000
    C1527   C    0.86737   0.93523   0.29503   1.000
    C1528   C    0.06787   0.13263   0.29503   1.000
    C1529   C    0.06477   0.93213   0.29503   1.000
    C1530   C    0.73143   0.46597   0.12837   1.000
    C1531   C    0.53403   0.26547   0.12837   1.000
    C1532   C    0.73453   0.26857   0.12837   1.000
    C1533   C    0.13263   0.06477   0.70497   1.000
    C1534   C    0.93213   0.86737   0.70497   1.000
    C1535   C    0.93523   0.06787   0.70497   1.000
    C1536   C    0.93523   0.86737   0.20497   1.000
    C1537   C    0.13263   0.06787   0.20497   1.000
    C1538   C    0.93213   0.06477   0.20497   1.000
    C1539   C    0.53403   0.26857   0.62837   1.000
    C1540   C    0.73453   0.46597   0.62837   1.000
    C1541   C    0.73143   0.26547   0.62837   1.000
    C1542   C    0.14260   0.60040   0.44407   1.000
    C1543   C    0.39960   0.54220   0.44407   1.000
    C1544   C    0.86060   0.43150   0.04529   1.000
    C1545   C    0.57090   0.13940   0.04529   1.000
    C1546   C    0.56850   0.42910   0.04529   1.000
    C1547   C    0.56850   0.13940   0.54529   1.000
    C1548   C    0.86060   0.42910   0.54529   1.000
    C1549   C    0.57090   0.43150   0.54529   1.000
    C1550   C    0.13940   0.56850   0.95471   1.000
    C1551   C    0.42910   0.86060   0.95471   1.000
    C1552   C    0.43150   0.57090   0.95471   1.000
    C1553   C    0.09817   0.19393   0.78804   1.000
    C1554   C    0.80607   0.90423   0.78804   1.000
    C1555   C    0.09577   0.90183   0.78804   1.000
    C1556   C    0.52727   0.76483   0.37862   1.000
    C1557   C    0.23757   0.47273   0.37862   1.000
    C1558   C    0.23517   0.76243   0.37862   1.000
    C1559   C    0.23517   0.47273   0.87862   1.000
    C1560   C    0.52727   0.76243   0.87862   1.000
    C1561   C    0.23757   0.76483   0.87862   1.000
    C1562   C    0.80607   0.90183   0.28804   1.000
    C1563   C    0.09577   0.19393   0.28804   1.000
    C1564   C    0.09817   0.90423   0.28804   1.000
    C1565   C    0.76483   0.52727   0.12138   1.000
    C1566   C    0.47273   0.23757   0.12138   1.000
    C1567   C    0.76243   0.23517   0.12138   1.000
    C1568   C    0.19393   0.09817   0.71196   1.000
    C1569   C    0.90423   0.80607   0.71196   1.000
    C1570   C    0.90183   0.09577   0.71196   1.000
    C1571   C    0.90183   0.80607   0.21196   1.000
    C1572   C    0.19393   0.09577   0.21196   1.000
    C1573   C    0.90423   0.09817   0.21196   1.000
    C1574   C    0.47273   0.23517   0.62138   1.000
    C1575   C    0.76243   0.52727   0.62138   1.000
    C1576   C    0.76483   0.23757   0.62138   1.000
    H1577   H    0.18080   0.63500   0.44120   1.000
    H1578   H    0.36500   0.54580   0.44120   1.000
    C1579   C    0.85740   0.45780   0.05593   1.000
    C1580   C    0.60040   0.14260   0.05593   1.000
    C1581   C    0.54220   0.39960   0.05593   1.000
    C1582   C    0.54220   0.14260   0.55593   1.000
    C1583   C    0.85740   0.39960   0.55593   1.000
    C1584   C    0.60040   0.45780   0.55593   1.000
    C1585   C    0.14260   0.54220   0.94407   1.000
    C1586   C    0.39960   0.85740   0.94407   1.000
    C1587   C    0.45780   0.60040   0.94407   1.000
    C1588   C    0.12447   0.19073   0.77740   1.000
    C1589   C    0.80927   0.93373   0.77740   1.000
    C1590   C    0.06627   0.87553   0.77740   1.000
    C1591   C    0.52407   0.79113   0.38926   1.000
    C1592   C    0.26707   0.47593   0.38926   1.000
    C1593   C    0.20887   0.73293   0.38926   1.000
    C1594   C    0.20887   0.47593   0.88926   1.000
    C1595   C    0.52407   0.73293   0.88926   1.000
    C1596   C    0.26707   0.79113   0.88926   1.000
    C1597   C    0.80927   0.87553   0.27740   1.000
    C1598   C    0.06627   0.19073   0.27740   1.000
    C1599   C    0.12447   0.93373   0.27740   1.000
    C1600   C    0.79113   0.52407   0.11074   1.000
    C1601   C    0.47593   0.26707   0.11074   1.000
    C1602   C    0.73293   0.20887   0.11074   1.000
    C1603   C    0.19073   0.12447   0.72260   1.000
    C1604   C    0.93373   0.80927   0.72260   1.000
    C1605   C    0.87553   0.06627   0.72260   1.000
    C1606   C    0.87553   0.80927   0.22260   1.000
    C1607   C    0.19073   0.06627   0.22260   1.000
    C1608   C    0.93373   0.12447   0.22260   1.000
    C1609   C    0.47593   0.20887   0.61074   1.000
    C1610   C    0.73293   0.52407   0.61074   1.000
    C1611   C    0.79113   0.26707   0.61074   1.000
    C1612   C    0.91570   0.49090   0.06240   1.000
    C1613   C    0.57520   0.08430   0.06240   1.000
    C1614   C    0.50910   0.42480   0.06240   1.000
    H1615   H    0.81920   0.45420   0.05880   1.000
    H1616   H    0.63500   0.18080   0.05880   1.000
    H1617   H    0.54580   0.36500   0.05880   1.000
    H1618   H    0.54580   0.18080   0.55880   1.000
    H1619   H    0.81920   0.36500   0.55880   1.000
    H1620   H    0.63500   0.45420   0.55880   1.000
    H1621   H    0.18080   0.54580   0.94120   1.000
    H1622   H    0.36500   0.81920   0.94120   1.000
    H1623   H    0.45420   0.63500   0.94120   1.000
    H1624   H    0.12087   0.15253   0.77453   1.000
    H1625   H    0.84747   0.96833   0.77453   1.000
    H1626   H    0.03167   0.87913   0.77453   1.000
    H1627   H    0.48587   0.78753   0.39213   1.000
    H1628   H    0.30167   0.51413   0.39213   1.000
    H1629   H    0.21247   0.69833   0.39213   1.000
    H1630   H    0.21247   0.51413   0.89213   1.000
    H1631   H    0.48587   0.69833   0.89213   1.000
    H1632   H    0.30167   0.78753   0.89213   1.000
    C1633   C    0.50910   0.08430   0.56240   1.000
    C1634   C    0.91570   0.42480   0.56240   1.000
    C1635   C    0.57520   0.49090   0.56240   1.000
    C1636   C    0.08430   0.50910   0.93760   1.000
    C1637   C    0.42480   0.91570   0.93760   1.000
    C1638   C    0.49090   0.57520   0.93760   1.000
    C1639   C    0.15757   0.24903   0.77093   1.000
    C1640   C    0.75097   0.90853   0.77093   1.000
    C1641   C    0.09147   0.84243   0.77093   1.000
    C1642   C    0.58237   0.82423   0.39573   1.000
    C1643   C    0.24187   0.41763   0.39573   1.000
    C1644   C    0.17577   0.75813   0.39573   1.000
    C1645   C    0.17577   0.41763   0.89573   1.000
    C1646   C    0.58237   0.75813   0.89573   1.000
    C1647   C    0.24187   0.82423   0.89573   1.000
    C1648   C    0.75097   0.84243   0.27093   1.000
    C1649   C    0.09147   0.24903   0.27093   1.000
    C1650   C    0.15757   0.90853   0.27093   1.000
    C1651   C    0.82423   0.58237   0.10427   1.000
    C1652   C    0.41763   0.24187   0.10427   1.000
    C1653   C    0.75813   0.17577   0.10427   1.000
    C1654   C    0.24903   0.15757   0.72907   1.000
    C1655   C    0.90853   0.75097   0.72907   1.000
    C1656   C    0.84243   0.09147   0.72907   1.000
    C1657   C    0.84243   0.75097   0.22907   1.000
    C1658   C    0.24903   0.09147   0.22907   1.000
    C1659   C    0.90853   0.15757   0.22907   1.000
    C1660   C    0.41763   0.17577   0.60427   1.000
    C1661   C    0.75813   0.58237   0.60427   1.000
    C1662   C    0.82423   0.24187   0.60427   1.000
    C1663   C    0.03140   0.49690   0.45156   1.000
    C1664   C    0.50310   0.53450   0.45156   1.000
    C1665   C    0.97030   0.49300   0.05853   1.000
    C1666   C    0.52270   0.02970   0.05853   1.000
    C1667   C    0.50700   0.47730   0.05853   1.000
    C1668   C    0.50700   0.02970   0.55853   1.000
    C1669   C    0.97030   0.47730   0.55853   1.000
    C1670   C    0.52270   0.49300   0.55853   1.000
    C1671   C    0.02970   0.50700   0.94147   1.000
    C1672   C    0.47730   0.97030   0.94147   1.000
    C1673   C    0.49300   0.52270   0.94147   1.000
    C1674   C    0.15967   0.30363   0.77480   1.000
    C1675   C    0.69637   0.85603   0.77480   1.000
    C1676   C    0.14397   0.84033   0.77480   1.000
    C1677   C    0.63697   0.82633   0.39186   1.000
    C1678   C    0.18937   0.36303   0.39186   1.000
    C1679   C    0.17367   0.81063   0.39186   1.000
    C1680   C    0.17367   0.36303   0.89186   1.000
    C1681   C    0.63697   0.81063   0.89186   1.000
    C1682   C    0.18937   0.82633   0.89186   1.000
    C1683   C    0.69637   0.84033   0.27480   1.000
    C1684   C    0.14397   0.30363   0.27480   1.000
    C1685   C    0.15967   0.85603   0.27480   1.000
    C1686   C    0.82633   0.63697   0.10814   1.000
    C1687   C    0.36303   0.18937   0.10814   1.000
    C1688   C    0.81063   0.17367   0.10814   1.000
    C1689   C    0.30363   0.15967   0.72520   1.000
    C1690   C    0.85603   0.69637   0.72520   1.000
    C1691   C    0.84033   0.14397   0.72520   1.000
    C1692   C    0.84033   0.69637   0.22520   1.000
    C1693   C    0.30363   0.14397   0.22520   1.000
    C1694   C    0.85603   0.15967   0.22520   1.000
    C1695   C    0.36303   0.17367   0.60814   1.000
    C1696   C    0.81063   0.63697   0.60814   1.000
    C1697   C    0.82633   0.18937   0.60814   1.000
    C1698   C    0.08820   0.52000   0.45855   1.000
    C1699   C    0.48000   0.56820   0.45855   1.000
    C1700   C    0.96860   0.46550   0.04844   1.000
    C1701   C    0.49690   0.03140   0.04844   1.000
    C1702   C    0.53450   0.50310   0.04844   1.000
    C1703   C    0.53450   0.03140   0.54844   1.000
    C1704   C    0.96860   0.50310   0.54844   1.000
    C1705   C    0.49690   0.46550   0.54844   1.000
    C1706   C    0.03140   0.53450   0.95156   1.000
    C1707   C    0.50310   0.96860   0.95156   1.000
    C1708   C    0.46550   0.49690   0.95156   1.000
    C1709   C    0.13217   0.30193   0.78489   1.000
    C1710   C    0.69807   0.83023   0.78489   1.000
    C1711   C    0.16977   0.86783   0.78489   1.000
    C1712   C    0.63527   0.79883   0.38177   1.000
    C1713   C    0.16357   0.36473   0.38177   1.000
    C1714   C    0.20117   0.83643   0.38177   1.000
    C1715   C    0.20117   0.36473   0.88177   1.000
    C1716   C    0.63527   0.83643   0.88177   1.000
    C1717   C    0.16357   0.79883   0.88177   1.000
    C1718   C    0.69807   0.86783   0.28489   1.000
    C1719   C    0.16977   0.30193   0.28489   1.000
    C1720   C    0.13217   0.83023   0.28489   1.000
    C1721   C    0.79883   0.63527   0.11823   1.000
    C1722   C    0.36473   0.16357   0.11823   1.000
    C1723   C    0.83643   0.20117   0.11823   1.000
    C1724   C    0.30193   0.13217   0.71511   1.000
    C1725   C    0.83023   0.69807   0.71511   1.000
    C1726   C    0.86783   0.16977   0.71511   1.000
    C1727   C    0.86783   0.69807   0.21511   1.000
    C1728   C    0.30193   0.16977   0.21511   1.000
    C1729   C    0.83023   0.13217   0.21511   1.000
    C1730   C    0.36473   0.20117   0.61823   1.000
    C1731   C    0.83643   0.63527   0.61823   1.000
    C1732   C    0.79883   0.16357   0.61823   1.000
    H1733   H    0.08870   0.49940   0.46560   1.000
    H1734   H    0.50060   0.58930   0.46560   1.000
    C1735   C    0.91180   0.43180   0.04145   1.000
    C1736   C    0.52000   0.08820   0.04145   1.000
    C1737   C    0.56820   0.48000   0.04145   1.000
    C1738   C    0.56820   0.08820   0.54145   1.000
    C1739   C    0.91180   0.48000   0.54145   1.000
    C1740   C    0.52000   0.43180   0.54145   1.000
    C1741   C    0.08820   0.56820   0.95855   1.000
    C1742   C    0.48000   0.91180   0.95855   1.000
    C1743   C    0.43180   0.52000   0.95855   1.000
    C1744   C    0.09847   0.24513   0.79188   1.000
    C1745   C    0.75487   0.85333   0.79188   1.000
    C1746   C    0.14667   0.90153   0.79188   1.000
    C1747   C    0.57847   0.76513   0.37478   1.000
    C1748   C    0.18667   0.42153   0.37478   1.000
    C1749   C    0.23487   0.81333   0.37478   1.000
    C1750   C    0.23487   0.42153   0.87478   1.000
    C1751   C    0.57847   0.81333   0.87478   1.000
    C1752   C    0.18667   0.76513   0.87478   1.000
    C1753   C    0.75487   0.90153   0.29188   1.000
    C1754   C    0.14667   0.24513   0.29188   1.000
    C1755   C    0.09847   0.85333   0.29188   1.000
    C1756   C    0.76513   0.57847   0.12522   1.000
    C1757   C    0.42153   0.18667   0.12522   1.000
    C1758   C    0.81333   0.23487   0.12522   1.000
    C1759   C    0.24513   0.09847   0.70812   1.000
    C1760   C    0.85333   0.75487   0.70812   1.000
    C1761   C    0.90153   0.14667   0.70812   1.000
    C1762   C    0.90153   0.75487   0.20812   1.000
    C1763   C    0.24513   0.14667   0.20812   1.000
    C1764   C    0.85333   0.09847   0.20812   1.000
    C1765   C    0.42153   0.23487   0.62522   1.000
    C1766   C    0.81333   0.57847   0.62522   1.000
    C1767   C    0.76513   0.18667   0.62522   1.000
    C1768   C    0.97330   0.49690   0.43478   1.000
    C1769   C    0.50310   0.47640   0.43478   1.000
    H1770   H    0.91130   0.41070   0.03440   1.000
    H1771   H    0.49940   0.08870   0.03440   1.000
    H1772   H    0.58930   0.50060   0.03440   1.000
    H1773   H    0.58930   0.08870   0.53440   1.000
    H1774   H    0.91130   0.50060   0.53440   1.000
    H1775   H    0.49940   0.41070   0.53440   1.000
    H1776   H    0.08870   0.58930   0.96560   1.000
    H1777   H    0.50060   0.91130   0.96560   1.000
    H1778   H    0.41070   0.49940   0.96560   1.000
    H1779   H    0.07737   0.24463   0.79893   1.000
    H1780   H    0.75537   0.83273   0.79893   1.000
    H1781   H    0.16727   0.92263   0.79893   1.000
    H1782   H    0.57797   0.74403   0.36773   1.000
    H1783   H    0.16607   0.42203   0.36773   1.000
    H1784   H    0.25597   0.83393   0.36773   1.000
    H1785   H    0.25597   0.42203   0.86773   1.000
    H1786   H    0.57797   0.83393   0.86773   1.000
    H1787   H    0.16607   0.74403   0.86773   1.000
    H1788   H    0.75537   0.92263   0.29893   1.000
    H1789   H    0.16727   0.24463   0.29893   1.000
    H1790   H    0.07737   0.83273   0.29893   1.000
    H1791   H    0.74403   0.57797   0.13227   1.000
    H1792   H    0.42203   0.16607   0.13227   1.000
    H1793   H    0.83393   0.25597   0.13227   1.000
    H1794   H    0.24463   0.07737   0.70107   1.000
    H1795   H    0.83273   0.75537   0.70107   1.000
    H1796   H    0.92263   0.16727   0.70107   1.000
    H1797   H    0.92263   0.75537   0.20107   1.000
    H1798   H    0.24463   0.16727   0.20107   1.000
    H1799   H    0.83273   0.07737   0.20107   1.000
    H1800   H    0.42203   0.25597   0.63227   1.000
    H1801   H    0.83393   0.57797   0.63227   1.000
    H1802   H    0.74403   0.16607   0.63227   1.000
    C1803   C    0.97490   0.50020   0.42209   1.000
    C1804   C    0.49980   0.47470   0.42209   1.000
    C1805   C    0.02670   0.52360   0.06522   1.000
    C1806   C    0.49690   0.97330   0.06522   1.000
    C1807   C    0.47640   0.50310   0.06522   1.000
    C1808   C    0.47640   0.97330   0.56522   1.000
    C1809   C    0.02670   0.50310   0.56522   1.000
    C1810   C    0.49690   0.52360   0.56522   1.000
    C1811   C    0.97330   0.47640   0.93478   1.000
    C1812   C    0.50310   0.02670   0.93478   1.000
    C1813   C    0.52360   0.49690   0.93478   1.000
    C1814   C    0.19027   0.36003   0.76811   1.000
    C1815   C    0.63997   0.83023   0.76811   1.000
    C1816   C    0.16977   0.80973   0.76811   1.000
    C1817   C    0.69337   0.85693   0.39855   1.000
    C1818   C    0.16357   0.30663   0.39855   1.000
    C1819   C    0.14307   0.83643   0.39855   1.000
    C1820   C    0.14307   0.30663   0.89855   1.000
    C1821   C    0.69337   0.83643   0.89855   1.000
    C1822   C    0.16357   0.85693   0.89855   1.000
    C1823   C    0.63997   0.80973   0.26811   1.000
    C1824   C    0.16977   0.36003   0.26811   1.000
    C1825   C    0.19027   0.83023   0.26811   1.000
    C1826   C    0.85693   0.69337   0.10145   1.000
    C1827   C    0.30663   0.16357   0.10145   1.000
    C1828   C    0.83643   0.14307   0.10145   1.000
    C1829   C    0.36003   0.19027   0.73189   1.000
    C1830   C    0.83023   0.63997   0.73189   1.000
    C1831   C    0.80973   0.16977   0.73189   1.000
    C1832   C    0.80973   0.63997   0.23189   1.000
    C1833   C    0.36003   0.16977   0.23189   1.000
    C1834   C    0.83023   0.19027   0.23189   1.000
    C1835   C    0.30663   0.14307   0.60145   1.000
    C1836   C    0.83643   0.69337   0.60145   1.000
    C1837   C    0.85693   0.16357   0.60145   1.000
    C1838   C    0.92120   0.47260   0.41588   1.000
    C1839   C    0.52740   0.44860   0.41588   1.000
    C1840   C    0.02510   0.52530   0.07791   1.000
    C1841   C    0.50020   0.97490   0.07791   1.000
    C1842   C    0.47470   0.49980   0.07791   1.000
    C1843   C    0.47470   0.97490   0.57791   1.000
    C1844   C    0.02510   0.49980   0.57791   1.000
    C1845   C    0.50020   0.52530   0.57791   1.000
    C1846   C    0.97490   0.47470   0.92209   1.000
    C1847   C    0.49980   0.02510   0.92209   1.000
    C1848   C    0.52530   0.50020   0.92209   1.000
    C1849   C    0.19197   0.35843   0.75542   1.000
    C1850   C    0.64157   0.83353   0.75542   1.000
    C1851   C    0.16647   0.80803   0.75542   1.000
    C1852   C    0.69177   0.85863   0.41124   1.000
    C1853   C    0.16687   0.30823   0.41124   1.000
    C1854   C    0.14137   0.83313   0.41124   1.000
    C1855   C    0.14137   0.30823   0.91124   1.000
    C1856   C    0.69177   0.83313   0.91124   1.000
    C1857   C    0.16687   0.85863   0.91124   1.000
    C1858   C    0.64157   0.80803   0.25542   1.000
    C1859   C    0.16647   0.35843   0.25542   1.000
    C1860   C    0.19197   0.83353   0.25542   1.000
    C1861   C    0.85863   0.69177   0.08876   1.000
    C1862   C    0.30823   0.16687   0.08876   1.000
    C1863   C    0.83313   0.14137   0.08876   1.000
    C1864   C    0.35843   0.19197   0.74458   1.000
    C1865   C    0.83353   0.64157   0.74458   1.000
    C1866   C    0.80803   0.16647   0.74458   1.000
    C1867   C    0.80803   0.64157   0.24458   1.000
    C1868   C    0.35843   0.16647   0.24458   1.000
    C1869   C    0.83353   0.19197   0.24458   1.000
    C1870   C    0.30823   0.14137   0.58876   1.000
    C1871   C    0.83313   0.69177   0.58876   1.000
    C1872   C    0.85863   0.16687   0.58876   1.000
    H1873   H    0.92330   0.47300   0.40750   1.000
    H1874   H    0.52700   0.45030   0.40750   1.000
    C1875   C    0.07880   0.55140   0.08412   1.000
    C1876   C    0.47260   0.92120   0.08412   1.000
    C1877   C    0.44860   0.52740   0.08412   1.000
    C1878   C    0.44860   0.92120   0.58412   1.000
    C1879   C    0.07880   0.52740   0.58412   1.000
    C1880   C    0.47260   0.55140   0.58412   1.000
    C1881   C    0.92120   0.44860   0.91588   1.000
    C1882   C    0.52740   0.07880   0.91588   1.000
    C1883   C    0.55140   0.47260   0.91588   1.000
    C1884   C    0.21807   0.41213   0.74921   1.000
    C1885   C    0.58787   0.80593   0.74921   1.000
    C1886   C    0.19407   0.78193   0.74921   1.000
    C1887   C    0.74547   0.88473   0.41745   1.000
    C1888   C    0.13927   0.25453   0.41745   1.000
    C1889   C    0.11527   0.86073   0.41745   1.000
    C1890   C    0.11527   0.25453   0.91745   1.000
    C1891   C    0.74547   0.86073   0.91745   1.000
    C1892   C    0.13927   0.88473   0.91745   1.000
    C1893   C    0.58787   0.78193   0.24921   1.000
    C1894   C    0.19407   0.41213   0.24921   1.000
    C1895   C    0.21807   0.80593   0.24921   1.000
    C1896   C    0.88473   0.74547   0.08255   1.000
    C1897   C    0.25453   0.13927   0.08255   1.000
    C1898   C    0.86073   0.11527   0.08255   1.000
    C1899   C    0.41213   0.21807   0.75079   1.000
    C1900   C    0.80593   0.58787   0.75079   1.000
    C1901   C    0.78193   0.19407   0.75079   1.000
    C1902   C    0.78193   0.58787   0.25079   1.000
    C1903   C    0.41213   0.19407   0.25079   1.000
    C1904   C    0.80593   0.21807   0.25079   1.000
    C1905   C    0.25453   0.11527   0.58255   1.000
    C1906   C    0.86073   0.74547   0.58255   1.000
    C1907   C    0.88473   0.13927   0.58255   1.000
    C1908   C    0.86090   0.44270   0.42148   1.000
    C1909   C    0.55730   0.41820   0.42148   1.000
    H1910   H    0.07670   0.54970   0.09250   1.000
    H1911   H    0.47300   0.92330   0.09250   1.000
    H1912   H    0.45030   0.52700   0.09250   1.000
    H1913   H    0.45030   0.92330   0.59250   1.000
    H1914   H    0.07670   0.52700   0.59250   1.000
    H1915   H    0.47300   0.54970   0.59250   1.000
    H1916   H    0.92330   0.45030   0.90750   1.000
    H1917   H    0.52700   0.07670   0.90750   1.000
    H1918   H    0.54970   0.47300   0.90750   1.000
    H1919   H    0.21637   0.41003   0.74083   1.000
    H1920   H    0.58997   0.80633   0.74083   1.000
    H1921   H    0.19367   0.78363   0.74083   1.000
    H1922   H    0.74337   0.88303   0.42583   1.000
    H1923   H    0.13967   0.25663   0.42583   1.000
    H1924   H    0.11697   0.86033   0.42583   1.000
    H1925   H    0.11697   0.25663   0.92583   1.000
    H1926   H    0.74337   0.86033   0.92583   1.000
    H1927   H    0.13967   0.88303   0.92583   1.000
    H1928   H    0.58997   0.78363   0.24083   1.000
    H1929   H    0.19367   0.41003   0.24083   1.000
    H1930   H    0.21637   0.80633   0.24083   1.000
    H1931   H    0.88303   0.74337   0.07417   1.000
    H1932   H    0.25663   0.13967   0.07417   1.000
    H1933   H    0.86033   0.11697   0.07417   1.000
    H1934   H    0.41003   0.21637   0.75917   1.000
    H1935   H    0.80633   0.58997   0.75917   1.000
    H1936   H    0.78363   0.19367   0.75917   1.000
    H1937   H    0.78363   0.58997   0.25917   1.000
    H1938   H    0.41003   0.19367   0.25917   1.000
    H1939   H    0.80633   0.21637   0.25917   1.000
    H1940   H    0.25663   0.11697   0.57417   1.000
    H1941   H    0.86033   0.74337   0.57417   1.000
    H1942   H    0.88303   0.13967   0.57417   1.000
    C1943   C    0.86020   0.44600   0.43362   1.000
    C1944   C    0.55400   0.41420   0.43362   1.000
    C1945   C    0.13910   0.58180   0.07852   1.000
    C1946   C    0.44270   0.86090   0.07852   1.000
    C1947   C    0.41820   0.55730   0.07852   1.000
    C1948   C    0.41820   0.86090   0.57852   1.000
    C1949   C    0.13910   0.55730   0.57852   1.000
    C1950   C    0.44270   0.58180   0.57852   1.000
    C1951   C    0.86090   0.41820   0.92148   1.000
    C1952   C    0.55730   0.13910   0.92148   1.000
    C1953   C    0.58180   0.44270   0.92148   1.000
    C1954   C    0.24847   0.47243   0.75481   1.000
    C1955   C    0.52757   0.77603   0.75481   1.000
    C1956   C    0.22397   0.75153   0.75481   1.000
    C1957   C    0.80577   0.91513   0.41185   1.000
    C1958   C    0.10937   0.19423   0.41185   1.000
    C1959   C    0.08487   0.89063   0.41185   1.000
    C1960   C    0.08487   0.19423   0.91185   1.000
    C1961   C    0.80577   0.89063   0.91185   1.000
    C1962   C    0.10937   0.91513   0.91185   1.000
    C1963   C    0.52757   0.75153   0.25481   1.000
    C1964   C    0.22397   0.47243   0.25481   1.000
    C1965   C    0.24847   0.77603   0.25481   1.000
    C1966   C    0.91513   0.80577   0.08815   1.000
    C1967   C    0.19423   0.10937   0.08815   1.000
    C1968   C    0.89063   0.08487   0.08815   1.000
    C1969   C    0.47243   0.24847   0.74519   1.000
    C1970   C    0.77603   0.52757   0.74519   1.000
    C1971   C    0.75153   0.22397   0.74519   1.000
    C1972   C    0.75153   0.52757   0.24519   1.000
    C1973   C    0.47243   0.22397   0.24519   1.000
    C1974   C    0.77603   0.24847   0.24519   1.000
    C1975   C    0.19423   0.08487   0.58815   1.000
    C1976   C    0.89063   0.80577   0.58815   1.000
    C1977   C    0.91513   0.10937   0.58815   1.000
    H1978   H    0.82100   0.43170   0.43750   1.000
    H1979   H    0.56830   0.38930   0.43750   1.000
    C1980   C    0.13980   0.58580   0.06638   1.000
    C1981   C    0.44600   0.86020   0.06638   1.000
    C1982   C    0.41420   0.55400   0.06638   1.000
    C1983   C    0.41420   0.86020   0.56638   1.000
    C1984   C    0.13980   0.55400   0.56638   1.000
    C1985   C    0.44600   0.58580   0.56638   1.000
    C1986   C    0.86020   0.41420   0.93362   1.000
    C1987   C    0.55400   0.13980   0.93362   1.000
    C1988   C    0.58580   0.44600   0.93362   1.000
    C1989   C    0.25247   0.47313   0.76695   1.000
    C1990   C    0.52687   0.77933   0.76695   1.000
    C1991   C    0.22067   0.74753   0.76695   1.000
    C1992   C    0.80647   0.91913   0.39971   1.000
    C1993   C    0.11267   0.19353   0.39971   1.000
    C1994   C    0.08087   0.88733   0.39971   1.000
    C1995   C    0.08087   0.19353   0.89971   1.000
    C1996   C    0.80647   0.88733   0.89971   1.000
    C1997   C    0.11267   0.91913   0.89971   1.000
    C1998   C    0.52687   0.74753   0.26695   1.000
    C1999   C    0.22067   0.47313   0.26695   1.000
    C2000   C    0.25247   0.77933   0.26695   1.000
    C2001   C    0.91913   0.80647   0.10029   1.000
    C2002   C    0.19353   0.11267   0.10029   1.000
    C2003   C    0.88733   0.08087   0.10029   1.000
    C2004   C    0.47313   0.25247   0.73305   1.000
    C2005   C    0.77933   0.52687   0.73305   1.000
    C2006   C    0.74753   0.22067   0.73305   1.000
    C2007   C    0.74753   0.52687   0.23305   1.000
    C2008   C    0.47313   0.22067   0.23305   1.000
    C2009   C    0.77933   0.25247   0.23305   1.000
    C2010   C    0.19353   0.08087   0.60029   1.000
    C2011   C    0.88733   0.80647   0.60029   1.000
    C2012   C    0.91913   0.11267   0.60029   1.000
    C2013   C    0.91290   0.46880   0.44011   1.000
    C2014   C    0.53120   0.44410   0.44011   1.000
    H2015   H    0.17900   0.61070   0.06250   1.000
    H2016   H    0.43170   0.82100   0.06250   1.000
    H2017   H    0.38930   0.56830   0.06250   1.000
    H2018   H    0.38930   0.82100   0.56250   1.000
    H2019   H    0.17900   0.56830   0.56250   1.000
    H2020   H    0.43170   0.61070   0.56250   1.000
    H2021   H    0.82100   0.38930   0.93750   1.000
    H2022   H    0.56830   0.17900   0.93750   1.000
    H2023   H    0.61070   0.43170   0.93750   1.000
    H2024   H    0.27737   0.51233   0.77083   1.000
    H2025   H    0.48767   0.76503   0.77083   1.000
    H2026   H    0.23497   0.72263   0.77083   1.000
    H2027   H    0.84567   0.94403   0.39583   1.000
    H2028   H    0.09837   0.15433   0.39583   1.000
    H2029   H    0.05597   0.90163   0.39583   1.000
    H2030   H    0.05597   0.15433   0.89583   1.000
    H2031   H    0.84567   0.90163   0.89583   1.000
    H2032   H    0.09837   0.94403   0.89583   1.000
    H2033   H    0.48767   0.72263   0.27083   1.000
    H2034   H    0.23497   0.51233   0.27083   1.000
    H2035   H    0.27737   0.76503   0.27083   1.000
    H2036   H    0.94403   0.84567   0.10417   1.000
    H2037   H    0.15433   0.09837   0.10417   1.000
    H2038   H    0.90163   0.05597   0.10417   1.000
    H2039   H    0.51233   0.27737   0.72917   1.000
    H2040   H    0.76503   0.48767   0.72917   1.000
    H2041   H    0.72263   0.23497   0.72917   1.000
    H2042   H    0.72263   0.48767   0.22917   1.000
    H2043   H    0.51233   0.23497   0.22917   1.000
    H2044   H    0.76503   0.27737   0.22917   1.000
    H2045   H    0.15433   0.05597   0.60417   1.000
    H2046   H    0.90163   0.84567   0.60417   1.000
    H2047   H    0.94403   0.09837   0.60417   1.000
    C2048   C    0.05567   0.13683   0.92042   1.000
    C2049   C    0.86317   0.91883   0.92042   1.000
    C2050   C    0.08117   0.94433   0.92042   1.000
    C2051   C    0.08710   0.55590   0.05989   1.000
    C2052   C    0.46880   0.91290   0.05989   1.000
    C2053   C    0.44410   0.53120   0.05989   1.000
    C2054   C    0.44410   0.91290   0.55989   1.000
    C2055   C    0.08710   0.53120   0.55989   1.000
    C2056   C    0.46880   0.55590   0.55989   1.000
    C2057   C    0.91290   0.44410   0.94011   1.000
    C2058   C    0.53120   0.08710   0.94011   1.000
    C2059   C    0.55590   0.46880   0.94011   1.000
    C2060   C    0.22257   0.42043   0.77344   1.000
    C2061   C    0.57957   0.80213   0.77344   1.000
    C2062   C    0.19787   0.77743   0.77344   1.000
    C2063   C    0.75377   0.88923   0.39322   1.000
    C2064   C    0.13547   0.24623   0.39322   1.000
    C2065   C    0.11077   0.86453   0.39322   1.000
    C2066   C    0.11077   0.24623   0.89322   1.000
    C2067   C    0.75377   0.86453   0.89322   1.000
    C2068   C    0.13547   0.88923   0.89322   1.000
    C2069   C    0.57957   0.77743   0.27344   1.000
    C2070   C    0.19787   0.42043   0.27344   1.000
    C2071   C    0.22257   0.80213   0.27344   1.000
    C2072   C    0.88923   0.75377   0.10678   1.000
    C2073   C    0.24623   0.13547   0.10678   1.000
    C2074   C    0.86453   0.11077   0.10678   1.000
    C2075   C    0.42043   0.22257   0.72656   1.000
    C2076   C    0.80213   0.57957   0.72656   1.000
    C2077   C    0.47017   0.72233   0.24624   1.000
    C2078   C    0.25217   0.52983   0.24624   1.000
    C2079   C    0.27767   0.74783   0.24624   1.000
    C2080   C    0.94433   0.86317   0.07958   1.000
    C2081   C    0.13683   0.08117   0.07958   1.000
    C2082   C    0.91883   0.05567   0.07958   1.000
    C2083   C    0.52983   0.27767   0.75376   1.000
    C2084   C    0.74783   0.47017   0.75376   1.000
    C2085   C    0.72233   0.25217   0.75376   1.000
    C2086   C    0.72233   0.47017   0.25376   1.000
    C2087   C    0.52983   0.25217   0.25376   1.000
    C2088   C    0.74783   0.27767   0.25376   1.000
    C2089   C    0.13683   0.05567   0.57958   1.000
    C2090   C    0.91883   0.86317   0.57958   1.000
    C2091   C    0.94433   0.08117   0.57958   1.000
    H2092   H    0.10010   0.64540   0.42700   1.000
    H2093   H    0.35460   0.45470   0.42700   1.000
    N2094   N    0.90930   0.51520   0.07369   1.000
    N2095   N    0.60590   0.09070   0.07369   1.000
    N2096   N    0.48480   0.39410   0.07369   1.000
    N2097   N    0.48480   0.09070   0.57369   1.000
    N2098   N    0.90930   0.39410   0.57369   1.000
    N2099   N    0.60590   0.51520   0.57369   1.000
    N2100   N    0.09070   0.48480   0.92631   1.000
    N2101   N    0.39410   0.90930   0.92631   1.000
    N2102   N    0.51520   0.60590   0.92631   1.000
    N2103   N    0.18187   0.24263   0.75964   1.000
    N2104   N    0.75737   0.93923   0.75964   1.000
    N2105   N    0.06077   0.81813   0.75964   1.000
    N2106   N    0.57597   0.84853   0.40702   1.000
    N2107   N    0.27257   0.42403   0.40702   1.000
    N2108   N    0.15147   0.72743   0.40702   1.000
    N2109   N    0.15147   0.42403   0.90702   1.000
    N2110   N    0.57597   0.72743   0.90702   1.000
    N2111   N    0.27257   0.84853   0.90702   1.000
    N2112   N    0.75737   0.81813   0.25964   1.000
    N2113   N    0.06077   0.24263   0.25964   1.000
    N2114   N    0.18187   0.93923   0.25964   1.000
    N2115   N    0.84853   0.57597   0.09298   1.000
    N2116   N    0.42403   0.27257   0.09298   1.000
    N2117   N    0.72743   0.15147   0.09298   1.000
    N2118   N    0.24263   0.18187   0.74036   1.000
    N2119   N    0.93923   0.75737   0.74036   1.000
    N2120   N    0.81813   0.06077   0.74036   1.000
    N2121   N    0.81813   0.75737   0.24036   1.000
    N2122   N    0.24263   0.06077   0.24036   1.000
    N2123   N    0.93923   0.18187   0.24036   1.000
    N2124   N    0.42403   0.15147   0.59298   1.000
    N2125   N    0.72743   0.57597   0.59298   1.000
    N2126   N    0.84853   0.27257   0.59298   1.000
    N2127   N    0.03080   0.52180   0.41435   1.000
    N2128   N    0.47820   0.50900   0.41435   1.000
    H2129   H    0.89990   0.54530   0.07300   1.000
    H2130   H    0.64540   0.10010   0.07300   1.000
    H2131   H    0.45470   0.35460   0.07300   1.000
    H2132   H    0.45470   0.10010   0.57300   1.000
    H2133   H    0.89990   0.35460   0.57300   1.000
    H2134   H    0.64540   0.54530   0.57300   1.000
    H2135   H    0.10010   0.45470   0.92700   1.000
    H2136   H    0.35460   0.89990   0.92700   1.000
    H2137   H    0.54530   0.64540   0.92700   1.000
    H2138   H    0.21197   0.23323   0.76033   1.000
    H2139   H    0.76677   0.97873   0.76033   1.000
    H2140   H    0.02127   0.78803   0.76033   1.000
    H2141   H    0.56657   0.87863   0.40633   1.000
    H2142   H    0.31207   0.43343   0.40633   1.000
    H2143   H    0.12137   0.68793   0.40633   1.000
    H2144   H    0.12137   0.43343   0.90633   1.000
    H2145   H    0.56657   0.68793   0.90633   1.000
    H2146   H    0.31207   0.87863   0.90633   1.000
    H2147   H    0.76677   0.78803   0.26033   1.000
    H2148   H    0.02127   0.23323   0.26033   1.000
    H2149   H    0.21197   0.97873   0.26033   1.000
    H2150   H    0.87863   0.56657   0.09367   1.000
    H2151   H    0.43343   0.31207   0.09367   1.000
    H2152   H    0.68793   0.12137   0.09367   1.000
    H2153   H    0.23323   0.21197   0.73967   1.000
    H2154   H    0.97873   0.76677   0.73967   1.000
    H2155   H    0.78803   0.02127   0.73967   1.000
    H2156   H    0.78803   0.76677   0.23967   1.000
    H2157   H    0.23323   0.02127   0.23967   1.000
    H2158   H    0.97873   0.21197   0.23967   1.000
    H2159   H    0.43343   0.12137   0.59367   1.000
    H2160   H    0.68793   0.56657   0.59367   1.000
    H2161   H    0.87863   0.31207   0.59367   1.000
    H2162   H    0.03120   0.49370   0.40950   1.000
    H2163   H    0.50630   0.53750   0.40950   1.000
    N2164   N    0.96920   0.49100   0.08565   1.000
    N2165   N    0.52180   0.03080   0.08565   1.000
    N2166   N    0.50900   0.47820   0.08565   1.000
    N2167   N    0.50900   0.03080   0.58565   1.000
    N2168   N    0.96920   0.47820   0.58565   1.000
    N2169   N    0.52180   0.49100   0.58565   1.000
    N2170   N    0.03080   0.50900   0.91435   1.000
    N2171   N    0.47820   0.96920   0.91435   1.000
    N2172   N    0.49100   0.52180   0.91435   1.000
    N2173   N    0.15767   0.30253   0.74768   1.000
    N2174   N    0.69747   0.85513   0.74768   1.000
    N2175   N    0.14487   0.84233   0.74768   1.000
    N2176   N    0.63587   0.82433   0.41898   1.000
    N2177   N    0.18847   0.36413   0.41898   1.000
    N2178   N    0.17567   0.81153   0.41898   1.000
    N2179   N    0.17567   0.36413   0.91898   1.000
    N2180   N    0.63587   0.81153   0.91898   1.000
    N2181   N    0.18847   0.82433   0.91898   1.000
    N2182   N    0.69747   0.84233   0.24768   1.000
    N2183   N    0.14487   0.30253   0.24768   1.000
    N2184   N    0.15767   0.85513   0.24768   1.000
    N2185   N    0.82433   0.63587   0.08102   1.000
    N2186   N    0.36413   0.18847   0.08102   1.000
    N2187   N    0.81153   0.17567   0.08102   1.000
    N2188   N    0.30253   0.15767   0.75232   1.000
    N2189   N    0.85513   0.69747   0.75232   1.000
    N2190   N    0.84233   0.14487   0.75232   1.000
    N2191   N    0.84233   0.69747   0.25232   1.000
    N2192   N    0.30253   0.14487   0.25232   1.000
    N2193   N    0.85513   0.15767   0.25232   1.000
    N2194   N    0.36413   0.17567   0.58102   1.000
    N2195   N    0.81153   0.63587   0.58102   1.000
    N2196   N    0.82433   0.18847   0.58102   1.000
    C2197   C    0.08470   0.58490   0.41400   1.000
    C2198   C    0.41510   0.49980   0.41400   1.000
    H2199   H    0.96880   0.46250   0.09050   1.000
    H2200   H    0.49370   0.03120   0.09050   1.000
    H2201   H    0.53750   0.50630   0.09050   1.000
    H2202   H    0.53750   0.03120   0.59050   1.000
    H2203   H    0.96880   0.50630   0.59050   1.000
    H2204   H    0.49370   0.46250   0.59050   1.000
    H2205   H    0.03120   0.53750   0.90950   1.000
    H2206   H    0.50630   0.96880   0.90950   1.000
    H2207   H    0.46250   0.49370   0.90950   1.000
    H2208   H    0.12917   0.30213   0.74283   1.000
    H2209   H    0.69787   0.82703   0.74283   1.000
    H2210   H    0.17297   0.87083   0.74283   1.000
    H2211   H    0.63547   0.79583   0.42383   1.000
    H2212   H    0.16037   0.36453   0.42383   1.000
    H2213   H    0.20417   0.83963   0.42383   1.000
    H2214   H    0.20417   0.36453   0.92383   1.000
    H2215   H    0.63547   0.83963   0.92383   1.000
    H2216   H    0.16037   0.79583   0.92383   1.000
    H2217   H    0.69787   0.87083   0.24283   1.000
    H2218   H    0.17297   0.30213   0.24283   1.000
    H2219   H    0.12917   0.82703   0.24283   1.000
    H2220   H    0.79583   0.63547   0.07617   1.000
    H2221   H    0.36453   0.16037   0.07617   1.000
    H2222   H    0.83963   0.20417   0.07617   1.000
    H2223   H    0.30213   0.12917   0.75717   1.000
    H2224   H    0.82703   0.69787   0.75717   1.000
    H2225   H    0.87083   0.17297   0.75717   1.000
    H2226   H    0.87083   0.69787   0.25717   1.000
    H2227   H    0.30213   0.17297   0.25717   1.000
    H2228   H    0.82703   0.12917   0.25717   1.000
    H2229   H    0.36453   0.20417   0.57617   1.000
    H2230   H    0.83963   0.63547   0.57617   1.000
    H2231   H    0.79583   0.16037   0.57617   1.000
    N2232   N    0.98270   0.44450   0.45712   1.000
    N2233   N    0.55550   0.53820   0.45712   1.000
    C2234   C    0.91530   0.50020   0.08600   1.000
    C2235   C    0.58490   0.08470   0.08600   1.000
    C2236   C    0.49980   0.41510   0.08600   1.000
    C2237   C    0.49980   0.08470   0.58600   1.000
    C2238   C    0.91530   0.41510   0.58600   1.000
    C2239   C    0.58490   0.50020   0.58600   1.000
    C2240   C    0.08470   0.49980   0.91400   1.000
    C2241   C    0.41510   0.91530   0.91400   1.000
    C2242   C    0.50020   0.58490   0.91400   1.000
    C2243   C    0.16687   0.24863   0.74733   1.000
    C2244   C    0.75137   0.91823   0.74733   1.000
    C2245   C    0.08177   0.83313   0.74733   1.000
    C2246   C    0.58197   0.83353   0.41933   1.000
    C2247   C    0.25157   0.41803   0.41933   1.000
    C2248   C    0.16647   0.74843   0.41933   1.000
    C2249   C    0.16647   0.41803   0.91933   1.000
    C2250   C    0.58197   0.74843   0.91933   1.000
    C2251   C    0.25157   0.83353   0.91933   1.000
    C2252   C    0.75137   0.83313   0.24733   1.000
    C2253   C    0.08177   0.24863   0.24733   1.000
    C2254   C    0.16687   0.91823   0.24733   1.000
    C2255   C    0.83353   0.58197   0.08067   1.000
    C2256   C    0.41803   0.25157   0.08067   1.000
    C2257   C    0.74843   0.16647   0.08067   1.000
    C2258   C    0.24863   0.16687   0.75267   1.000
    C2259   C    0.91823   0.75137   0.75267   1.000
    C2260   C    0.83313   0.08177   0.75267   1.000
    C2261   C    0.83313   0.75137   0.25267   1.000
    C2262   C    0.24863   0.08177   0.25267   1.000
    C2263   C    0.91823   0.16687   0.25267   1.000
    C2264   C    0.41803   0.16647   0.58067   1.000
    C2265   C    0.74843   0.58197   0.58067   1.000
    C2266   C    0.83353   0.25157   0.58067   1.000
    H2267   H    0.98790   0.41160   0.45780   1.000
    H2268   H    0.58840   0.57630   0.45780   1.000
    N2269   N    0.01730   0.46180   0.04288   1.000
    N2270   N    0.44450   0.98270   0.04288   1.000
    N2271   N    0.53820   0.55550   0.04288   1.000
    N2272   N    0.53820   0.98270   0.54288   1.000
    N2273   N    0.01730   0.55550   0.54288   1.000
    N2274   N    0.44450   0.46180   0.54288   1.000
    N2275   N    0.98270   0.53820   0.95712   1.000
    N2276   N    0.55550   0.01730   0.95712   1.000
    N2277   N    0.46180   0.44450   0.95712   1.000
    N2278   N    0.12847   0.35063   0.79045   1.000
    N2279   N    0.64937   0.77783   0.79045   1.000
    N2280   N    0.22217   0.87153   0.79045   1.000
    N2281   N    0.68397   0.79513   0.37621   1.000
    N2282   N    0.11117   0.31603   0.37621   1.000
    N2283   N    0.20487   0.88883   0.37621   1.000
    N2284   N    0.20487   0.31603   0.87621   1.000
    N2285   N    0.68397   0.88883   0.87621   1.000
    N2286   N    0.11117   0.79513   0.87621   1.000
    N2287   N    0.64937   0.87153   0.29045   1.000
    N2288   N    0.22217   0.35063   0.29045   1.000
    N2289   N    0.12847   0.77783   0.29045   1.000
    N2290   N    0.79513   0.68397   0.12379   1.000
    N2291   N    0.31603   0.11117   0.12379   1.000
    N2292   N    0.88883   0.20487   0.12379   1.000
    N2293   N    0.35063   0.12847   0.70955   1.000
    N2294   N    0.77783   0.64937   0.70955   1.000
    N2295   N    0.87153   0.22217   0.70955   1.000
    N2296   N    0.87153   0.64937   0.20955   1.000
    N2297   N    0.35063   0.22217   0.20955   1.000
    N2298   N    0.77783   0.12847   0.20955   1.000
    N2299   N    0.31603   0.20487   0.62379   1.000
    N2300   N    0.88883   0.68397   0.62379   1.000
    N2301   N    0.79513   0.11117   0.62379   1.000
    N2302   N    0.90460   0.46290   0.45210   1.000
    N2303   N    0.53710   0.44170   0.45210   1.000
    H2304   H    0.01210   0.42370   0.04220   1.000
    H2305   H    0.41160   0.98790   0.04220   1.000
    H2306   H    0.57630   0.58840   0.04220   1.000
    H2307   H    0.57630   0.98790   0.54220   1.000
    H2308   H    0.01210   0.58840   0.54220   1.000
    H2309   H    0.41160   0.42370   0.54220   1.000
    H2310   H    0.98790   0.57630   0.95780   1.000
    H2311   H    0.58840   0.01210   0.95780   1.000
    H2312   H    0.42370   0.41160   0.95780   1.000
    H2313   H    0.09037   0.34543   0.79113   1.000
    H2314   H    0.65457   0.74493   0.79113   1.000
    H2315   H    0.25507   0.90963   0.79113   1.000
    H2316   H    0.67877   0.75703   0.37553   1.000
    H2317   H    0.07827   0.32123   0.37553   1.000
    H2318   H    0.24297   0.92173   0.37553   1.000
    H2319   H    0.24297   0.32123   0.87553   1.000
    H2320   H    0.67877   0.92173   0.87553   1.000
    H2321   H    0.07827   0.75703   0.87553   1.000
    H2322   H    0.65457   0.90963   0.29113   1.000
    H2323   H    0.25507   0.34543   0.29113   1.000
    H2324   H    0.09037   0.74493   0.29113   1.000
    H2325   H    0.75703   0.67877   0.12447   1.000
    H2326   H    0.32123   0.07827   0.12447   1.000
    H2327   H    0.92173   0.24297   0.12447   1.000
    H2328   H    0.34543   0.09037   0.70887   1.000
    H2329   H    0.74493   0.65457   0.70887   1.000
    H2330   H    0.90963   0.25507   0.70887   1.000
    H2331   H    0.90963   0.65457   0.20887   1.000
    H2332   H    0.34543   0.25507   0.20887   1.000
    H2333   H    0.74493   0.09037   0.20887   1.000
    H2334   H    0.32123   0.24297   0.62447   1.000
    H2335   H    0.92173   0.67877   0.62447   1.000
    H2336   H    0.75703   0.07827   0.62447   1.000
    H2337   H    0.88170   0.47930   0.45450   1.000
    H2338   H    0.52070   0.40240   0.45450   1.000
    N2339   N    0.09540   0.55830   0.04790   1.000
    N2340   N    0.46290   0.90460   0.04790   1.000
    N2341   N    0.44170   0.53710   0.04790   1.000
    N2342   N    0.44170   0.90460   0.54790   1.000
    N2343   N    0.09540   0.53710   0.54790   1.000
    N2344   N    0.46290   0.55830   0.54790   1.000
    N2345   N    0.90460   0.44170   0.95210   1.000
    N2346   N    0.53710   0.09540   0.95210   1.000
    N2347   N    0.55830   0.46290   0.95210   1.000
    N2348   N    0.22497   0.42873   0.78543   1.000
    N2349   N    0.57127   0.79623   0.78543   1.000
    N2350   N    0.20377   0.77503   0.78543   1.000
    N2351   N    0.76207   0.89163   0.38123   1.000
    N2352   N    0.12957   0.23793   0.38123   1.000
    N2353   N    0.10837   0.87043   0.38123   1.000
    N2354   N    0.10837   0.23793   0.88123   1.000
    N2355   N    0.76207   0.87043   0.88123   1.000
    N2356   N    0.12957   0.89163   0.88123   1.000
    N2357   N    0.57127   0.77503   0.28543   1.000
    N2358   N    0.20377   0.42873   0.28543   1.000
    N2359   N    0.22497   0.79623   0.28543   1.000
    N2360   N    0.89163   0.76207   0.11877   1.000
    N2361   N    0.23793   0.12957   0.11877   1.000
    N2362   N    0.87043   0.10837   0.11877   1.000
    N2363   N    0.42873   0.22497   0.71457   1.000
    N2364   N    0.79623   0.57127   0.71457   1.000
    N2365   N    0.77503   0.20377   0.71457   1.000
    N2366   N    0.77503   0.57127   0.21457   1.000
    N2367   N    0.42873   0.20377   0.21457   1.000
    N2368   N    0.79623   0.22497   0.21457   1.000
    N2369   N    0.23793   0.10837   0.61877   1.000
    N2370   N    0.87043   0.76207   0.61877   1.000
    N2371   N    0.89163   0.12957   0.61877   1.000
    C2372   C    0.92270   0.43690   0.46210   1.000
    C2373   C    0.56310   0.48580   0.46210   1.000
    H2374   H    0.11830   0.59760   0.04550   1.000
    H2375   H    0.47930   0.88170   0.04550   1.000
    H2376   H    0.40240   0.52070   0.04550   1.000
    H2377   H    0.40240   0.88170   0.54550   1.000
    H2378   H    0.11830   0.52070   0.54550   1.000
    H2379   H    0.47930   0.59760   0.54550   1.000
    H2380   H    0.88170   0.40240   0.95450   1.000
    H2381   H    0.52070   0.11830   0.95450   1.000
    H2382   H    0.59760   0.47930   0.95450   1.000
    H2383   H    0.26427   0.45163   0.78783   1.000
    H2384   H    0.54837   0.81263   0.78783   1.000
    H2385   H    0.18737   0.73573   0.78783   1.000
    H2386   H    0.78497   0.93093   0.37883   1.000
    H2387   H    0.14597   0.21503   0.37883   1.000
    H2388   H    0.06907   0.85403   0.37883   1.000
    H2389   H    0.06907   0.21503   0.87883   1.000
    H2390   H    0.78497   0.85403   0.87883   1.000
    H2391   H    0.14597   0.93093   0.87883   1.000
    H2392   H    0.54837   0.73573   0.28783   1.000
    H2393   H    0.18737   0.45163   0.28783   1.000
    H2394   H    0.26427   0.81263   0.28783   1.000
    H2395   H    0.93093   0.78497   0.12117   1.000
    H2396   H    0.21503   0.14597   0.12117   1.000
    H2397   H    0.85403   0.06907   0.12117   1.000
    H2398   H    0.45163   0.26427   0.71217   1.000
    H2399   H    0.81263   0.54837   0.71217   1.000
    H2400   H    0.73573   0.18737   0.71217   1.000
    H2401   H    0.73573   0.54837   0.21217   1.000
    H2402   H    0.45163   0.18737   0.21217   1.000
    H2403   H    0.81263   0.26427   0.21217   1.000
    H2404   H    0.21503   0.06907   0.62117   1.000
    H2405   H    0.85403   0.78497   0.62117   1.000
    H2406   H    0.93093   0.14597   0.62117   1.000
    C2407   C    0.07730   0.51420   0.03790   1.000
    C2408   C    0.43690   0.92270   0.03790   1.000
    C2409   C    0.48580   0.56310   0.03790   1.000
    C2410   C    0.48580   0.92270   0.53790   1.000
    C2411   C    0.07730   0.56310   0.53790   1.000
    C2412   C    0.43690   0.51420   0.53790   1.000
    C2413   C    0.92270   0.48580   0.96210   1.000
    C2414   C    0.56310   0.07730   0.96210   1.000
    C2415   C    0.51420   0.43690   0.96210   1.000
    C2416   C    0.18087   0.41063   0.79543   1.000
    C2417   C    0.58937   0.77023   0.79543   1.000
    C2418   C    0.22977   0.81913   0.79543   1.000
    C2419   C    0.74397   0.84753   0.37123   1.000
    C2420   C    0.10357   0.25603   0.37123   1.000
    C2421   C    0.15247   0.89643   0.37123   1.000
    C2422   C    0.15247   0.25603   0.87123   1.000
    C2423   C    0.74397   0.89643   0.87123   1.000
    C2424   C    0.10357   0.84753   0.87123   1.000
    C2425   C    0.58937   0.81913   0.29543   1.000
    C2426   C    0.22977   0.41063   0.29543   1.000
    C2427   C    0.18087   0.77023   0.29543   1.000
    C2428   C    0.84753   0.74397   0.12877   1.000
    C2429   C    0.25603   0.10357   0.12877   1.000
    C2430   C    0.89643   0.15247   0.12877   1.000
    C2431   C    0.41063   0.18087   0.70457   1.000
    C2432   C    0.77023   0.58937   0.70457   1.000
    C2433   C    0.81913   0.22977   0.70457   1.000
    C2434   C    0.81913   0.58937   0.20457   1.000
    C2435   C    0.41063   0.22977   0.20457   1.000
    C2436   C    0.77023   0.18087   0.20457   1.000
    C2437   C    0.25603   0.15247   0.62877   1.000
    C2438   C    0.89643   0.74397   0.62877   1.000
    C2439   C    0.84753   0.10357   0.62877   1.000
loop_
    _geom_bond_atom_site_label_1
    _geom_bond_atom_site_label_2
    _geom_bond_distance
    _geom_bond_site_symmetry_2
    _ccdc_geom_bond_type
    C1342  C1307     1.41245      .   S
    C1342  C1412     1.28209      .   S
    C1342  H1377     0.95170  1_554   S
    C1341  C1306     1.41245      .   S
    C1341  C1411     1.28209      .   S
    C1341  H1376     0.95170  1_554   S
    C1340  C1305     1.41245      .   S
    C1340  C1410     1.28209      .   S
    C1340  H1375     0.95170  1_554   S
    C1305  C1235     1.43713      .   S
    C1305  C1480     1.53367  1_554   S
    C1307  C1237     1.43713      .   S
    C1307  C1482     1.53367  1_554   S
    C1306  C1236     1.43713      .   S
    C1306  C1481     1.53367  1_554   S
    H1369  C1334     0.95170  1_554   S
    H1370  C1335     0.95170  1_554   S
    H1371  C1336     0.95170  1_554   S
    C1474  O320      1.16042      .   S
    C1474  O355      1.51592      .   S
    C1474  C1299     1.53367  1_554   S
    C1476  O322      1.16042      .   S
    C1476  O357      1.51592      .   S
    C1476  C1301     1.53367  1_554   S
    C1475  O321      1.16042      .   S
    C1475  O356      1.51592      .   S
    C1475  C1300     1.53367  1_554   S
    O321   Zn125     1.87734      .   S
    O322   Zn123     1.87734      .   S
    O320   Zn124     1.87734      .   S
    H1447  C1412     0.95056      .   S
    H1446  C1411     0.95056      .   S
    H1445  C1410     0.95056      .   S
    O355   Zn123     1.80628      .   S
    O356   Zn124     1.80628      .   S
    O357   Zn125     1.80628      .   S
    H1270  C1235     0.94932      .   S
    H1271  C1236     0.94932      .   S
    H1272  C1237     0.94932      .   S
    C1410  C1165     1.48748      .   S
    C1412  C1167     1.48748      .   S
    C1411  C1166     1.48748      .   S
    C1237  C1202     1.38515      .   S
    C1236  C1201     1.38515      .   S
    C1235  C1200     1.38515      .   S
    Zn123  O430      1.96104      .   S
    Zn124  O431      1.96104      .   S
    Zn125  O189      1.94120      .   S
    Zn125  O429      1.96104      .   S
    C1201  C1166     1.45249      .   S
    C1201  N689      1.47250      .   S
    C1200  C1165     1.45249      .   S
    C1200  N688      1.47250      .   S
    C1202  C1167     1.45249      .   S
    C1202  N690      1.47250      .   S
    C1166  C944      1.42151      .   S
    C1165  C943      1.42151      .   S
    C1167  C945      1.42151      .   S
    H655   N620      0.88291  1_545   S
    H654   N619      0.88291  1_655   S
    H653   N618      0.88291      .   S
    O189   Zn122     1.88816      .   S
    N619   C1131     1.46906      .   S
    N619   C909      1.43139      .   S
    N620   C1132     1.46906      .   S
    N620   C910      1.43139      .   S
    N618   C1130     1.46906      .   S
    N618   C908      1.43139      .   S
    N688   C1130     1.26439      .   S
    N688   H723      0.88080      .   S
    N689   C1131     1.26439      .   S
    N689   H724      0.88080      .   S
    N690   C1132     1.26439      .   S
    N690   H725      0.88080      .   S
    C944   C909      1.42467      .   S
    C944   C979      1.31172      .   S
    C945   C910      1.42467      .   S
    C945   C980      1.31172      .   S
    C943   C908      1.42467      .   S
    C943   C978      1.31172      .   S
    C1130  O291      1.13307      .   S
    C1131  O292      1.13307  1_455   S
    C1132  O293      1.13307  1_565   S
    C908   C838      1.41715      .   S
    C910   C840      1.41715      .   S
    C909   C839      1.41715      .   S
    H1014  C979      0.94698      .   S
    H1013  C978      0.94698      .   S
    H1015  C980      0.94698      .   S
    O431   C1511     1.27106      .   S
    O430   C1510     1.27106      .   S
    O429   C1509     1.27106      .   S
    C978   C1048     1.43040      .   S
    C979   C1049     1.43040      .   S
    C980   C1050     1.43040      .   S
    O502   C2409     1.14833      .   S
    O501   C2408     1.14833      .   S
    O500   C2407     1.14833      .   S
    C838   H873      0.95051      .   S
    C838   C794      1.37472      .   S
    C839   H874      0.95051  1_455   S
    C839   C795      1.37472      .   S
    C840   H875      0.95051  1_565   S
    C840   C796      1.37472      .   S
    H1770  C1735     0.94598      .   S
    H1771  C1736     0.94598      .   S
    H1772  C1737     0.94598      .   S
    C1050  C796      1.44574      .   S
    C1050  H1097     0.94937      .   S
    C1049  C795      1.44574      .   S
    C1049  H1096     0.94937      .   S
    C1048  C794      1.44574      .   S
    C1048  H1095     0.94937      .   S
    Zn122  O391      1.92853      .   S
    Zn122  O390      1.92897      .   S
    Zn122  O392      1.93067      .   S
    C796   C760      1.47957      .   S
    C794   C758      1.47957      .   S
    C795   C759      1.47957      .   S
    C2409  N2271     1.49425      .   S
    C2409  N2341     1.46938      .   S
    C2408  N2270     1.49425      .   S
    C2408  N2340     1.46938      .   S
    C2407  N2269     1.49425      .   S
    C2407  N2339     1.46938      .   S
    C1511  O392      1.24881      .   S
    C1511  C1546     1.52151      .   S
    C1510  O391      1.24881      .   S
    C1510  C1545     1.52151      .   S
    C1509  O390      1.24881      .   S
    C1509  C1544     1.52151      .   S
    C1736  C1545     1.32211      .   S
    C1736  C1701     1.44525      .   S
    C1735  C1544     1.32211      .   S
    C1735  C1700     1.44525      .   S
    C1737  C1546     1.32211      .   S
    C1737  C1702     1.44525      .   S
    H2305  N2270     0.87878      .   S
    H2304  N2269     0.87878      .   S
    H2306  N2271     0.87878      .   S
    N2269  C1700     1.38928  1_455   S
    N2271  C1702     1.38928      .   S
    N2270  C1701     1.38928  1_565   S
    C758   O219      1.22516      .   S
    C758   O254      1.34273      .   S
    C759   O220      1.22516  1_455   S
    C759   O255      1.34273      .   S
    C760   O221      1.22516  1_565   S
    C760   O256      1.34273      .   S
    C1545  C1580     1.38417      .   S
    C1544  C1579     1.38417      .   S
    C1546  C1581     1.38417      .   S
    H2375  N2340     0.87926      .   S
    H2376  N2341     0.87926      .   S
    H2374  N2339     0.87926      .   S
    O220   Zn94      1.91203      .   S
    O219   Zn96      1.91203      .   S
    O221   Zn95      1.91203      .   S
    N2341  C2053     1.36686      .   S
    N2340  C2052     1.36686      .   S
    N2339  C2051     1.36686      .   S
    C1700  C1665     1.31386      .   S
    C1701  C1666     1.31386      .   S
    C1702  C1667     1.31386      .   S
    O254   Zn94      1.87392  1_565   S
    O255   Zn95      1.87392      .   S
    O256   Zn96      1.87392  1_455   S
    C1579  H1615     0.95075      .   S
    C1579  C1612     1.43854      .   S
    C1580  H1616     0.95075      .   S
    C1580  C1613     1.43854      .   S
    C1581  H1617     0.95075      .   S
    C1581  C1614     1.43854      .   S
    Zn96   O563      1.87455      .   S
    Zn95   O178      1.93287      .   S
    Zn95   O564      1.87455      .   S
    Zn94   O178      1.93287  1_655   S
    Zn94   O565      1.87455      .   S
    C1667  C1614     1.38180      .   S
    C1667  C1807     1.41515      .   S
    C1666  C1613     1.38180      .   S
    C1666  C1806     1.41515  1_545   S
    C1665  C1612     1.38180      .   S
    C1665  C1805     1.41515  1_655   S
    C2051  C1805     1.41521      .   S
    C2051  C1980     1.33862      .   S
    C2052  C1806     1.41521      .   S
    C2052  C1981     1.33862      .   S
    C2053  C1807     1.41521      .   S
    C2053  C1982     1.33862      .   S
    C1612  N2094     1.44860      .   S
    C1613  N2095     1.44860      .   S
    C1614  N2096     1.44860      .   S
    H2017  C1982     0.94802      .   S
    H2016  C1981     0.94802      .   S
    H2015  C1980     0.94802      .   S
    C1807  C1842     1.43562      .   S
    C1806  C1841     1.43562      .   S
    C1805  C1840     1.43562      .   S
    C1980  C1945     1.37475      .   S
    C1981  C1946     1.37475      .   S
    C1982  C1947     1.37475      .   S
    O564   C2081     1.19042      .   S
    O563   C2080     1.19042      .   S
    O565   C2082     1.19042      .   S
    O485   C2255     1.12166      .   S
    O486   C2256     1.12166      .   S
    O487   C2257     1.12166      .   S
    H2130  N2095     0.87778      .   S
    H2131  N2096     0.87778      .   S
    H2129  N2094     0.87778      .   S
    N2094  C2234     1.46454      .   S
    N2096  C2236     1.46454      .   S
    N2095  C2235     1.46454      .   S
    H1933  C1898     0.94808      .   S
    H1931  C1896     0.94808      .   S
    H1932  C1897     0.94808      .   S
    H2221  N2186     0.88301      .   S
    H2222  N2187     0.88301      .   S
    H2220  N2185     0.88301      .   S
    C1840  C1875     1.33681      .   S
    C1840  N2164     1.48041  1_455   S
    C1842  C1877     1.33681      .   S
    C1842  N2166     1.48041      .   S
    C1841  C1876     1.33681      .   S
    C1841  N2165     1.48041  1_565   S
    C1947  C1877     1.42566      .   S
    C1947  C1072     1.55459      .   S
    C1946  C1876     1.42566      .   S
    C1946  C1071     1.55459      .   S
    C1945  C1875     1.42566      .   S
    C1945  C1070     1.55459      .   S
    C2082  O600      1.33972      .   S
    C2082  C1968     1.55459      .   S
    C2081  O599      1.33972      .   S
    C2081  C1967     1.55459      .   S
    C2080  O598      1.33972      .   S
    C2080  C1966     1.55459      .   S
    Zn76   O600      1.90979  1_455   S
    Zn76   O599      1.90979      .   S
    Zn76   O598      1.90979  1_445   S
    C2257  N2187     1.44487      .   S
    C2257  N2117     1.46454      .   S
    C2255  N2185     1.44487      .   S
    C2255  N2115     1.46454      .   S
    C2256  N2186     1.44487      .   S
    C2256  N2116     1.46454      .   S
    O579   Zn83      1.90979      .   S
    O579   C1072     1.33972      .   S
    O578   Zn83      1.90979      .   S
    O578   C1071     1.33972      .   S
    O577   Zn83      1.90979      .   S
    O577   C1070     1.33972      .   S
    N2185  C1861     1.48041      .   S
    N2186  C1862     1.48041      .   S
    N2187  C1863     1.48041      .   S
    C1897  C1967     1.42566      .   S
    C1897  C1862     1.33681      .   S
    C1898  C1968     1.42566      .   S
    C1898  C1863     1.33681      .   S
    C1896  C1966     1.42566      .   S
    C1896  C1861     1.33681      .   S
    C1877  H1912     0.94808      .   S
    C1875  H1910     0.94808      .   S
    C1876  H1911     0.94808      .   S
    N2166  C2236     1.44487      .   S
    N2166  H2201     0.88301      .   S
    N2165  C2235     1.44487      .   S
    N2165  H2200     0.88301      .   S
    N2164  C2234     1.44487      .   S
    N2164  H2199     0.88301      .   S
    C2236  O466      1.12166      .   S
    C2235  O465      1.12166      .   S
    C2234  O464      1.12166      .   S
    C1072  O544      1.19042      .   S
    C1071  O499      1.19042      .   S
    C1070  O498      1.19042      .   S
    C1966  C2001     1.37475      .   S
    C1967  C2002     1.37475      .   S
    C1968  C2003     1.37475      .   S
    C1861  C1826     1.43562      .   S
    C1863  C1828     1.43562      .   S
    C1862  C1827     1.43562      .   S
    N2117  H2152     0.87778      .   S
    N2117  C1653     1.44860      .   S
    N2116  H2151     0.87778      .   S
    N2116  C1652     1.44860      .   S
    N2115  H2150     0.87778      .   S
    N2115  C1651     1.44860      .   S
    O544   Zn116     1.87455      .   S
    O498   Zn118     1.87455      .   S
    O499   Zn117     1.87455      .   S
    C2001  H2036     0.94802      .   S
    C2001  C2072     1.33862      .   S
    C2002  H2037     0.94802      .   S
    C2002  C2073     1.33862      .   S
    C2003  H2038     0.94802      .   S
    C2003  C2074     1.33862      .   S
    C1828  C2074     1.41521      .   S
    C1828  C1688     1.41515      .   S
    C1827  C2073     1.41521      .   S
    C1827  C1687     1.41515      .   S
    C1826  C2072     1.41521      .   S
    C1826  C1686     1.41515      .   S
    O185   Zn116     1.93287      .   S
    O185   Zn117     1.93287      .   S
    C1652  C1687     1.38180      .   S
    C1652  C1601     1.43854      .   S
    C1653  C1688     1.38180      .   S
    C1653  C1602     1.43854      .   S
    C1651  C1686     1.38180      .   S
    C1651  C1600     1.43854      .   S
    C2074  N2362     1.36686      .   S
    C2073  N2361     1.36686      .   S
    C2072  N2360     1.36686      .   S
    H824   C1602     0.95075      .   S
    H823   C1601     0.95075      .   S
    H822   C1600     0.95075      .   S
    C1686  C1721     1.31386      .   S
    C1687  C1722     1.31386      .   S
    C1688  C1723     1.31386      .   S
    Zn116  O277      1.87392      .   S
    Zn116  O241      1.91203      .   S
    Zn118  O279      1.87392      .   S
    Zn118  O240      1.91203      .   S
    Zn117  O278      1.87392      .   S
    Zn117  O242      1.91203      .   S
    C1602  C1567     1.38417      .   S
    C1601  C1566     1.38417      .   S
    C1600  C1565     1.38417      .   S
    O278   C780      1.34273      .   S
    O279   C781      1.34273      .   S
    O277   C779      1.34273      .   S
    C1722  N2291     1.38928      .   S
    C1722  C1757     1.44525      .   S
    C1721  N2290     1.38928      .   S
    C1721  C1756     1.44525      .   S
    C1723  N2292     1.38928      .   S
    C1723  C1758     1.44525      .   S
    N2360  H2395     0.87926      .   S
    N2360  C2428     1.46938      .   S
    N2361  H2396     0.87926      .   S
    N2361  C2429     1.46938      .   S
    N2362  H2397     0.87926      .   S
    N2362  C2430     1.46938      .   S
    O242   C781      1.22516      .   S
    O240   C779      1.22516      .   S
    O241   C780      1.22516      .   S
    C1565  C1756     1.32211      .   S
    C1565  C1530     1.52151      .   S
    C1566  C1757     1.32211      .   S
    C1566  C1531     1.52151      .   S
    C1567  C1758     1.32211      .   S
    C1567  C1532     1.52151      .   S
    C781   C817      1.47957      .   S
    C780   C816      1.47957      .   S
    C779   C815      1.47957      .   S
    O210   C1532     1.24881      .   S
    O210   Zn170     1.93067      .   S
    O209   C1531     1.24881      .   S
    O209   Zn170     1.92853      .   S
    O208   C1530     1.24881      .   S
    O208   Zn170     1.92897      .   S
    N2292  H2327     0.87878      .   S
    N2292  C2430     1.49425      .   S
    N2290  H2325     0.87878      .   S
    N2290  C2428     1.49425      .   S
    N2291  H2326     0.87878      .   S
    N2291  C2429     1.49425      .   S
    C1758  H1793     0.94598      .   S
    C1757  H1792     0.94598      .   S
    C1756  H1791     0.94598      .   S
    C1531  O451      1.27106      .   S
    C1532  O452      1.27106      .   S
    C1530  O450      1.27106      .   S
    C2428  O521      1.14833      .   S
    C2429  O522      1.14833      .   S
    C2430  O523      1.14833      .   S
    H1118  C542      0.94937      .   S
    H1117  C541      0.94937      .   S
    H1116  C540      0.94937      .   S
    C815   C540      1.44574      .   S
    C815   C859      1.37472      .   S
    C816   C541      1.44574      .   S
    C816   C860      1.37472      .   S
    C817   C542      1.44574      .   S
    C817   C861      1.37472      .   S
    Zn170  O200      1.88816      .   S
    H894   C859      0.95051      .   S
    H895   C860      0.95051      .   S
    H896   C861      0.95051      .   S
    C541   C1000     1.43040      .   S
    C542   C1001     1.43040      .   S
    C540   C999      1.43040      .   S
    C859   C929      1.41715      .   S
    C860   C930      1.41715      .   S
    C861   C931      1.41715      .   S
    C999   H1034     0.94698      .   S
    C999   C964      1.31172      .   S
    C1000  H1035     0.94698      .   S
    C1000  C965      1.31172      .   S
    C1001  H1036     0.94698      .   S
    C1001  C966      1.31172      .   S
    O452   Zn147     1.96104      .   S
    O451   Zn146     1.96104      .   S
    O450   Zn148     1.96104      .   S
    H744   N709      0.88080  1_655   S
    H746   N711      0.88080  1_545   S
    H745   N710      0.88080      .   S
    C931   C966      1.42467      .   S
    C931   N641      1.43139      .   S
    C930   C965      1.42467      .   S
    C930   N640      1.43139      .   S
    C929   C964      1.42467      .   S
    C929   N639      1.43139      .   S
    O312   C1151     1.13307  1_655   S
    O314   C1153     1.13307  1_545   S
    O313   C1152     1.13307      .   S
    C1153  N711      1.26439      .   S
    C1153  N641      1.46906      .   S
    C1152  N710      1.26439      .   S
    C1152  N640      1.46906      .   S
    C1151  N709      1.26439      .   S
    C1151  N639      1.46906      .   S
    C966   C1188     1.42151      .   S
    C965   C1187     1.42151      .   S
    C964   C1186     1.42151      .   S
    N711   C1223     1.47250      .   S
    N710   C1222     1.47250      .   S
    N709   C1221     1.47250      .   S
    N639   H674      0.88291      .   S
    N641   H676      0.88291      .   S
    N640   H675      0.88291      .   S
    O200   Zn148     1.94120      .   S
    C1188  C1223     1.45249      .   S
    C1188  C1433     1.48748      .   S
    C1187  C1222     1.45249      .   S
    C1187  C1432     1.48748      .   S
    C1186  C1221     1.45249      .   S
    C1186  C1431     1.48748      .   S
    C1222  C1257     1.38515      .   S
    C1221  C1256     1.38515      .   S
    C1223  C1258     1.38515      .   S
    Zn148  O378      1.80628      .   S
    Zn148  O342      1.87734      .   S
    Zn147  O377      1.80628      .   S
    Zn147  O341      1.87734      .   S
    Zn146  O376      1.80628      .   S
    Zn146  O343      1.87734      .   S
    C1256  H1291     0.94932  1_455   S
    C1256  C1326     1.43713      .   S
    C1257  H1292     0.94932      .   S
    C1257  C1327     1.43713      .   S
    C1258  H1293     0.94932  1_565   S
    C1258  C1328     1.43713      .   S
    C1432  H1467     0.95056      .   S
    C1432  C1362     1.28209      .   S
    C1433  H1468     0.95056      .   S
    C1433  C1363     1.28209      .   S
    C1431  H1466     0.95056      .   S
    C1431  C1361     1.28209      .   S
    O378   C1497     1.51592      .   S
    O377   C1496     1.51592      .   S
    O376   C1495     1.51592      .   S
    O343   C1497     1.16042      .   S
    O342   C1496     1.16042      .   S
    O341   C1495     1.16042      .   S
    C1495  C1320     1.53367      .   S
    C1496  C1321     1.53367      .   S
    C1497  C1322     1.53367      .   S
    H1392  C1357     0.95170      .   S
    H1391  C1356     0.95170      .   S
    H1390  C1355     0.95170      .   S
    C1326  C1361     1.41245      .   S
    C1326  C1501     1.53367      .   S
    C1327  C1362     1.41245      .   S
    C1327  C1502     1.53367      .   S
    C1328  C1363     1.41245      .   S
    C1328  C1503     1.53367      .   S
    C1362  H1397     0.95170      .   S
    C1363  H1398     0.95170      .   S
    C1361  H1396     0.95170      .   S
    C1356  C1321     1.41245      .   S
    C1356  C1426     1.28209      .   S
    C1357  C1322     1.41245      .   S
    C1357  C1427     1.28209      .   S
    C1355  C1320     1.41245      .   S
    C1355  C1425     1.28209      .   S
    C1322  C1252     1.43713      .   S
    C1321  C1251     1.43713      .   S
    C1320  C1250     1.43713      .   S
    C1503  O349      1.16042  1_565   S
    C1503  O384      1.51592      .   S
    C1502  O348      1.16042      .   S
    C1502  O383      1.51592      .   S
    C1501  O347      1.16042  1_455   S
    C1501  O382      1.51592      .   S
    O349   Zn152     1.87734      .   S
    O348   Zn154     1.87734      .   S
    O347   Zn153     1.87734      .   S
    H1462  C1427     0.95056      .   S
    H1461  C1426     0.95056      .   S
    H1460  C1425     0.95056      .   S
    O384   Zn154     1.80628  1_455   S
    O382   Zn152     1.80628      .   S
    O383   Zn153     1.80628  1_565   S
    H1287  C1252     0.94932      .   S
    H1286  C1251     0.94932      .   S
    H1285  C1250     0.94932      .   S
    C1427  C1182     1.48748      .   S
    C1426  C1181     1.48748      .   S
    C1425  C1180     1.48748      .   S
    C1250  C1215     1.38515      .   S
    C1251  C1216     1.38515      .   S
    C1252  C1217     1.38515      .   S
    Zn152  O205      1.94120      .   S
    Zn153  O206      1.94120  1_545   S
    Zn154  O204      1.94120  1_655   S
    C1217  C1182     1.45249      .   S
    C1217  N705      1.47250      .   S
    C1215  C1180     1.45249      .   S
    C1215  N703      1.47250      .   S
    C1216  C1181     1.45249      .   S
    C1216  N704      1.47250      .   S
    C1180  C958      1.42151  1_545   S
    C1181  C959      1.42151  1_655   S
    C1182  C960      1.42151      .   S
    H668   N633      0.88291      .   S
    H669   N634      0.88291      .   S
    H670   N635      0.88291      .   S
    O206   Zn176     1.88816      .   S
    O205   Zn175     1.88816      .   S
    O204   Zn174     1.88816      .   S
    N634   C1146     1.46906  1_455   S
    N634   C924      1.43139      .   S
    N633   C1145     1.46906  1_565   S
    N633   C923      1.43139      .   S
    N635   C1147     1.46906      .   S
    N635   C925      1.43139      .   S
    N705   C1147     1.26439      .   S
    N705   H740      0.88080      .   S
    N704   C1146     1.26439      .   S
    N704   H739      0.88080      .   S
    N703   C1145     1.26439      .   S
    N703   H738      0.88080      .   S
    C960   C925      1.42467      .   S
    C960   C995      1.31172      .   S
    C959   C924      1.42467      .   S
    C959   C994      1.31172      .   S
    C958   C923      1.42467      .   S
    C958   C993      1.31172      .   S
    C1145  O306      1.13307      .   S
    C1146  O307      1.13307      .   S
    C1147  O308      1.13307      .   S
    C924   C854      1.41715      .   S
    C923   C853      1.41715      .   S
    C925   C855      1.41715      .   S
    H1030  C995      0.94698      .   S
    H1029  C994      0.94698      .   S
    H1028  C993      0.94698      .   S
    O458   C1538     1.27106      .   S
    O456   C1536     1.27106      .   S
    O457   C1537     1.27106      .   S
    C993   C534      1.43040      .   S
    C994   C535      1.43040      .   S
    C995   C536      1.43040      .   S
    O527   C2434     1.14833      .   S
    O528   C2435     1.14833      .   S
    O529   C2436     1.14833      .   S
    C853   H888      0.95051      .   S
    C853   C809      1.37472      .   S
    C855   H890      0.95051      .   S
    C855   C811      1.37472      .   S
    C854   H889      0.95051      .   S
    C854   C810      1.37472      .   S
    H1797  C1762     0.94598      .   S
    H1798  C1763     0.94598      .   S
    H1799  C1764     0.94598      .   S
    C535   C810      1.44574      .   S
    C535   H1111     0.94937      .   S
    C534   C809      1.44574      .   S
    C534   H1110     0.94937      .   S
    C536   C811      1.44574      .   S
    C536   H1112     0.94937      .   S
    C811   C775      1.47957      .   S
    C809   C773      1.47957      .   S
    C810   C774      1.47957      .   S
    C2436  N2298     1.49425      .   S
    C2436  N2368     1.46938      .   S
    C2435  N2297     1.49425      .   S
    C2435  N2367     1.46938      .   S
    C2434  N2296     1.49425      .   S
    C2434  N2366     1.46938      .   S
    C1537  O422      1.24881      .   S
    C1537  C1572     1.52151      .   S
    C1538  O423      1.24881      .   S
    C1538  C1573     1.52151      .   S
    C1536  O421      1.24881      .   S
    C1536  C1571     1.52151      .   S
    C1762  C1571     1.32211      .   S
    C1762  C1727     1.44525      .   S
    C1763  C1572     1.32211      .   S
    C1763  C1728     1.44525      .   S
    C1764  C1573     1.32211      .   S
    C1764  C1729     1.44525      .   S
    H2333  N2298     0.87878      .   S
    H2332  N2297     0.87878      .   S
    H2331  N2296     0.87878      .   S
    N2298  C1729     1.38928      .   S
    N2297  C1728     1.38928      .   S
    N2296  C1727     1.38928      .   S
    C774   O235      1.22516      .   S
    C774   O136      1.34273      .   S
    C775   O236      1.22516      .   S
    C775   O273      1.34273      .   S
    C773   O234      1.22516      .   S
    C773   O135      1.34273      .   S
    C1571  C1606     1.38417      .   S
    C1573  C1608     1.38417      .   S
    C1572  C1607     1.38417      .   S
    H2402  N2367     0.87926      .   S
    H2401  N2366     0.87926      .   S
    H2403  N2368     0.87926      .   S
    O236   Zn111     1.91203      .   S
    O235   Zn110     1.91203      .   S
    O234   Zn112     1.91203      .   S
    N2368  C1062     1.36686      .   S
    N2366  C1060     1.36686      .   S
    N2367  C1061     1.36686      .   S
    C1729  C1694     1.31386      .   S
    C1728  C1693     1.31386      .   S
    C1727  C1692     1.31386      .   S
    O273   Zn112     1.87392      .   S
    O136   Zn111     1.87392      .   S
    O135   Zn110     1.87392      .   S
    C1606  H828      0.95075      .   S
    C1606  C1657     1.43854      .   S
    C1608  H830      0.95075      .   S
    C1608  C1659     1.43854      .   S
    C1607  H829      0.95075      .   S
    C1607  C1658     1.43854      .   S
    Zn112  O183      1.93287      .   S
    Zn112  O560      1.87455      .   S
    Zn111  O561      1.87455      .   S
    Zn110  O183      1.93287      .   S
    Zn110  O562      1.87455      .   S
    C1694  C1659     1.38180      .   S
    C1694  C1834     1.41515      .   S
    C1692  C1657     1.38180      .   S
    C1692  C1832     1.41515      .   S
    C1693  C1658     1.38180      .   S
    C1693  C1833     1.41515      .   S
    C1061  C1833     1.41521      .   S
    C1061  C2008     1.33862      .   S
    C1060  C1832     1.41521      .   S
    C1060  C2007     1.33862      .   S
    C1062  C1834     1.41521      .   S
    C1062  C2009     1.33862      .   S
    C1658  N2122     1.44860      .   S
    C1657  N2121     1.44860      .   S
    C1659  N2123     1.44860      .   S
    H2042  C2007     0.94802      .   S
    H2043  C2008     0.94802      .   S
    H2044  C2009     0.94802      .   S
    C1833  C1868     1.43562      .   S
    C1834  C1869     1.43562      .   S
    C1832  C1867     1.43562      .   S
    C2009  C1974     1.37475      .   S
    C2008  C1973     1.37475      .   S
    C2007  C1972     1.37475      .   S
    O562   C2079     1.19042      .   S
    O561   C2078     1.19042      .   S
    O560   C2077     1.19042      .   S
    O484   C2254     1.12166      .   S
    O483   C2253     1.12166      .   S
    O482   C2252     1.12166      .   S
    H2158  N2123     0.87778      .   S
    H2157  N2122     0.87778      .   S
    H2156  N2121     0.87778      .   S
    N2122  C2262     1.46454      .   S
    N2121  C2261     1.46454      .   S
    N2123  C2263     1.46454      .   S
    H1930  C1895     0.94808      .   S
    H1929  C1894     0.94808      .   S
    H1928  C1893     0.94808      .   S
    H2219  N2184     0.88301      .   S
    H2218  N2183     0.88301      .   S
    H2217  N2182     0.88301      .   S
    C1869  C1904     1.33681      .   S
    C1869  N2193     1.48041      .   S
    C1867  C1902     1.33681      .   S
    C1867  N2191     1.48041      .   S
    C1868  C1903     1.33681      .   S
    C1868  N2192     1.48041      .   S
    C1973  C1903     1.42566      .   S
    C1973  C2087     1.55459      .   S
    C1974  C1904     1.42566      .   S
    C1974  C2088     1.55459      .   S
    C1972  C1902     1.42566      .   S
    C1972  C2086     1.55459      .   S
    C2079  O597      1.33972      .   S
    C2079  C1965     1.55459      .   S
    C2078  O596      1.33972      .   S
    C2078  C1964     1.55459      .   S
    C2077  O595      1.33972      .   S
    C2077  C1963     1.55459      .   S
    Zn81   O597      1.90979      .   S
    Zn81   O596      1.90979      .   S
    Zn81   O595      1.90979      .   S
    C2254  N2184     1.44487      .   S
    C2254  N2114     1.46454      .   S
    C2253  N2183     1.44487      .   S
    C2253  N2113     1.46454      .   S
    C2252  N2182     1.44487      .   S
    C2252  N2112     1.46454      .   S
    O604   Zn78      1.90979      .   S
    O604   C2086     1.33972      .   S
    O605   Zn78      1.90979      .   S
    O605   C2087     1.33972      .   S
    O606   Zn78      1.90979      .   S
    O606   C2088     1.33972      .   S
    N2183  C1859     1.48041      .   S
    N2184  C1860     1.48041      .   S
    N2182  C1858     1.48041      .   S
    C1893  C1963     1.42566      .   S
    C1893  C1858     1.33681      .   S
    C1895  C1965     1.42566      .   S
    C1895  C1860     1.33681      .   S
    C1894  C1964     1.42566      .   S
    C1894  C1859     1.33681      .   S
    C1902  H1937     0.94808      .   S
    C1904  H1939     0.94808      .   S
    C1903  H1938     0.94808      .   S
    N2191  C2261     1.44487      .   S
    N2191  H2226     0.88301      .   S
    N2192  C2262     1.44487      .   S
    N2192  H2227     0.88301      .   S
    N2193  C2263     1.44487      .   S
    N2193  H2228     0.88301      .   S
    C2263  O493      1.12166      .   S
    C2261  O491      1.12166      .   S
    C2262  O492      1.12166      .   S
    C2086  O569      1.19042      .   S
    C2087  O570      1.19042      .   S
    C2088  O571      1.19042      .   S
    C1963  C1998     1.37475      .   S
    C1965  C2000     1.37475      .   S
    C1964  C1999     1.37475      .   S
    C1860  C1825     1.43562      .   S
    C1859  C1824     1.43562      .   S
    C1858  C1823     1.43562      .   S
    N2113  H2148     0.87778      .   S
    N2113  C1649     1.44860      .   S
    N2112  H2147     0.87778      .   S
    N2112  C1648     1.44860      .   S
    N2114  H2149     0.87778      .   S
    N2114  C1650     1.44860      .   S
    O569   Zn102     1.87455      .   S
    O571   Zn100     1.87455      .   S
    O570   Zn101     1.87455      .   S
    C1998  H2033     0.94802      .   S
    C1998  C2069     1.33862      .   S
    C1999  H2034     0.94802      .   S
    C1999  C2070     1.33862      .   S
    C2000  H2035     0.94802      .   S
    C2000  C2071     1.33862      .   S
    C1824  C2070     1.41521      .   S
    C1824  C1684     1.41515      .   S
    C1823  C2069     1.41521      .   S
    C1823  C1683     1.41515      .   S
    C1825  C2071     1.41521      .   S
    C1825  C1685     1.41515      .   S
    O180   Zn100     1.93287      .   S
    O180   Zn102     1.93287      .   S
    C1649  C1684     1.38180      .   S
    C1649  C1598     1.43854      .   S
    C1650  C1685     1.38180      .   S
    C1650  C1599     1.43854      .   S
    C1648  C1683     1.38180      .   S
    C1648  C1597     1.43854      .   S
    C2070  N2358     1.36686      .   S
    C2069  N2357     1.36686      .   S
    C2071  N2359     1.36686      .   S
    H821   C1599     0.95075      .   S
    H819   C1597     0.95075      .   S
    H820   C1598     0.95075      .   S
    C1684  C1719     1.31386      .   S
    C1683  C1718     1.31386      .   S
    C1685  C1720     1.31386      .   S
    Zn101  O261      1.87392      .   S
    Zn101  O227      1.91203      .   S
    Zn100  O260      1.87392      .   S
    Zn100  O226      1.91203      .   S
    Zn102  O262      1.87392      .   S
    Zn102  O225      1.91203      .   S
    C1597  C1562     1.38417      .   S
    C1598  C1563     1.38417      .   S
    C1599  C1564     1.38417      .   S
    O260   C764      1.34273      .   S
    O261   C765      1.34273      .   S
    O262   C766      1.34273      .   S
    C1720  N2289     1.38928      .   S
    C1720  C1755     1.44525      .   S
    C1719  N2288     1.38928      .   S
    C1719  C1754     1.44525      .   S
    C1718  N2287     1.38928      .   S
    C1718  C1753     1.44525      .   S
    N2357  H2392     0.87926      .   S
    N2357  C2425     1.46938      .   S
    N2359  H2394     0.87926      .   S
    N2359  C2427     1.46938      .   S
    N2358  H2393     0.87926      .   S
    N2358  C2426     1.46938      .   S
    O225   C764      1.22516      .   S
    O226   C765      1.22516      .   S
    O227   C766      1.22516      .   S
    C1564  C1755     1.32211      .   S
    C1564  C1529     1.52151      .   S
    C1562  C1753     1.32211      .   S
    C1562  C1527     1.52151      .   S
    C1563  C1754     1.32211      .   S
    C1563  C1528     1.52151      .   S
    C765   C801      1.47957      .   S
    C766   C802      1.47957      .   S
    C764   C800      1.47957      .   S
    O408   C1527     1.24881      .   S
    O409   C1528     1.24881      .   S
    O207   C1529     1.24881      .   S
    N2287  H2322     0.87878      .   S
    N2287  C2425     1.49425      .   S
    N2288  H2323     0.87878      .   S
    N2288  C2426     1.49425      .   S
    N2289  H2324     0.87878      .   S
    N2289  C2427     1.49425      .   S
    C1755  H1790     0.94598      .   S
    C1754  H1789     0.94598      .   S
    C1753  H1788     0.94598      .   S
    C1528  O448      1.27106      .   S
    C1527  O447      1.27106      .   S
    C1529  O449      1.27106      .   S
    C2425  O518      1.14833      .   S
    C2427  O520      1.14833      .   S
    C2426  O519      1.14833      .   S
    H1101  C1054     0.94937      .   S
    H1102  C1055     0.94937      .   S
    H1103  C1056     0.94937      .   S
    C802   C1056     1.44574      .   S
    C802   C846      1.37472      .   S
    C801   C1055     1.44574      .   S
    C801   C845      1.37472      .   S
    C800   C1054     1.44574      .   S
    C800   C844      1.37472      .   S
    Zn169  O199      1.88816      .   S
    Zn168  O198      1.88816      .   S
    Zn167  O197      1.88816      .   S
    C1055  C985      1.43040      .   S
    C1054  C984      1.43040      .   S
    C1056  C986      1.43040      .   S
    H881   C846      0.95051      .   S
    H880   C845      0.95051      .   S
    H879   C844      0.95051      .   S
    C846   C916      1.41715      .   S
    C845   C915      1.41715      .   S
    C844   C914      1.41715      .   S
    C986   H1021     0.94698      .   S
    C986   C951      1.31172      .   S
    C985   H1020     0.94698      .   S
    C985   C950      1.31172      .   S
    C984   H1019     0.94698      .   S
    C984   C949      1.31172      .   S
    H731   N696      0.88080      .   S
    H729   N694      0.88080      .   S
    H730   N695      0.88080      .   S
    C914   C949      1.42467      .   S
    C914   N624      1.43139      .   S
    C915   C950      1.42467      .   S
    C915   N625      1.43139      .   S
    C916   C951      1.42467      .   S
    C916   N626      1.43139      .   S
    O297   C1136     1.13307      .   S
    O299   C1138     1.13307      .   S
    O298   C1137     1.13307      .   S
    C1138  N696      1.26439      .   S
    C1138  N626      1.46906      .   S
    C1137  N695      1.26439      .   S
    C1137  N625      1.46906  1_565   S
    C1136  N694      1.26439      .   S
    C1136  N624      1.46906  1_455   S
    C950   C1172     1.42151  1_545   S
    C949   C1171     1.42151  1_655   S
    C951   C1173     1.42151      .   S
    N696   C1208     1.47250      .   S
    N695   C1207     1.47250      .   S
    N694   C1206     1.47250      .   S
    N624   H659      0.88291      .   S
    N625   H660      0.88291      .   S
    N626   H661      0.88291      .   S
    O198   Zn143     1.94120      .   S
    O197   Zn145     1.94120  1_545   S
    O199   Zn144     1.94120  1_655   S
    C1171  C1206     1.45249      .   S
    C1171  C1416     1.48748      .   S
    C1172  C1207     1.45249      .   S
    C1172  C1417     1.48748      .   S
    C1173  C1208     1.45249      .   S
    C1173  C1418     1.48748      .   S
    C1208  C1243     1.38515      .   S
    C1207  C1242     1.38515      .   S
    C1206  C1241     1.38515      .   S
    Zn144  O374      1.80628  1_455   S
    Zn144  O338      1.87734      .   S
    Zn143  O373      1.80628      .   S
    Zn143  O340      1.87734      .   S
    Zn145  O375      1.80628  1_565   S
    Zn145  O339      1.87734      .   S
    C1242  H1277     0.94932      .   S
    C1242  C1312     1.43713      .   S
    C1243  H1278     0.94932      .   S
    C1243  C1313     1.43713      .   S
    C1241  H1276     0.94932      .   S
    C1241  C1311     1.43713      .   S
    C1418  H1453     0.95056      .   S
    C1418  C1348     1.28209      .   S
    C1417  H1452     0.95056      .   S
    C1417  C1347     1.28209      .   S
    C1416  H1451     0.95056      .   S
    C1416  C1346     1.28209      .   S
    O373   C1492     1.51592      .   S
    O374   C1493     1.51592      .   S
    O375   C1494     1.51592      .   S
    O338   C1492     1.16042  1_565   S
    O339   C1493     1.16042      .   S
    O340   C1494     1.16042  1_455   S
    C1494  C1319     1.53367      .   S
    C1493  C1318     1.53367      .   S
    C1492  C1317     1.53367      .   S
    H1387  C1352     0.95170      .   S
    H1388  C1353     0.95170      .   S
    H1389  C1354     0.95170      .   S
    C1311  C1346     1.41245      .   S
    C1311  C1486     1.53367      .   S
    C1312  C1347     1.41245      .   S
    C1312  C1487     1.53367      .   S
    C1313  C1348     1.41245      .   S
    C1313  C1488     1.53367      .   S
    C1346  H1381     0.95170      .   S
    C1347  H1382     0.95170      .   S
    C1348  H1383     0.95170      .   S
    C1353  C1318     1.41245      .   S
    C1353  C1423     1.28209      .   S
    C1352  C1317     1.41245      .   S
    C1352  C1422     1.28209      .   S
    C1354  C1319     1.41245      .   S
    C1354  C1424     1.28209      .   S
    C1319  C1249     1.43713      .   S
    C1317  C1247     1.43713      .   S
    C1318  C1248     1.43713      .   S
    C1487  O333      1.16042      .   S
    C1487  O368      1.51592      .   S
    C1486  O332      1.16042      .   S
    C1486  O367      1.51592      .   S
    C1488  O334      1.16042      .   S
    C1488  O369      1.51592      .   S
    O334   Zn137     1.87734      .   S
    O332   Zn138     1.87734      .   S
    O333   Zn139     1.87734      .   S
    H1457  C1422     0.95056      .   S
    H1459  C1424     0.95056      .   S
    H1458  C1423     0.95056      .   S
    O367   Zn137     1.80628      .   S
    O369   Zn139     1.80628      .   S
    O368   Zn138     1.80628      .   S
    H1282  C1247     0.94932  1_565   S
    H1283  C1248     0.94932      .   S
    H1284  C1249     0.94932  1_455   S
    C1422  C1177     1.48748      .   S
    C1423  C1178     1.48748      .   S
    C1424  C1179     1.48748      .   S
    C1248  C1213     1.38515      .   S
    C1249  C1214     1.38515      .   S
    C1247  C1212     1.38515      .   S
    Zn137  O442      1.96104      .   S
    Zn138  O443      1.96104      .   S
    Zn139  O195      1.94120      .   S
    Zn139  O441      1.96104      .   S
    C1214  C1179     1.45249      .   S
    C1214  N702      1.47250      .   S
    C1213  C1178     1.45249      .   S
    C1213  N701      1.47250      .   S
    C1212  C1177     1.45249      .   S
    C1212  N700      1.47250      .   S
    C1177  C955      1.42151      .   S
    C1178  C956      1.42151      .   S
    C1179  C957      1.42151      .   S
    H666   N631      0.88291      .   S
    H665   N630      0.88291      .   S
    H667   N632      0.88291      .   S
    O195   Zn165     1.88816      .   S
    N631   C1143     1.46906      .   S
    N631   C921      1.43139      .   S
    N632   C1144     1.46906      .   S
    N632   C922      1.43139      .   S
    N630   C1142     1.46906      .   S
    N630   C920      1.43139      .   S
    N701   C1143     1.26439      .   S
    N701   H736      0.88080      .   S
    N700   C1142     1.26439      .   S
    N700   H735      0.88080  1_545   S
    N702   C1144     1.26439      .   S
    N702   H737      0.88080  1_655   S
    C956   C921      1.42467      .   S
    C956   C991      1.31172      .   S
    C955   C920      1.42467      .   S
    C955   C990      1.31172      .   S
    C957   C922      1.42467      .   S
    C957   C992      1.31172      .   S
    C1144  O305      1.13307  1_655   S
    C1142  O303      1.13307  1_545   S
    C1143  O304      1.13307      .   S
    C922   C852      1.41715      .   S
    C921   C851      1.41715      .   S
    C920   C850      1.41715      .   S
    H1025  C990      0.94698      .   S
    H1027  C992      0.94698      .   S
    H1026  C991      0.94698      .   S
    O443   C1523     1.27106      .   S
    O442   C1522     1.27106      .   S
    O441   C1521     1.27106      .   S
    C990   C531      1.43040      .   S
    C992   C533      1.43040      .   S
    C991   C532      1.43040      .   S
    O514   C2421     1.14833      .   S
    O513   C2420     1.14833      .   S
    O512   C2419     1.14833      .   S
    C852   H887      0.95051      .   S
    C852   C808      1.37472      .   S
    C851   H886      0.95051      .   S
    C851   C807      1.37472      .   S
    C850   H885      0.95051      .   S
    C850   C806      1.37472      .   S
    H1783  C1748     0.94598      .   S
    H1782  C1747     0.94598      .   S
    H1784  C1749     0.94598      .   S
    C533   C808      1.44574      .   S
    C533   H1109     0.94937      .   S
    C532   C807      1.44574      .   S
    C532   H1108     0.94937      .   S
    C531   C806      1.44574      .   S
    C531   H1107     0.94937      .   S
    Zn165  O403      1.92853      .   S
    Zn165  O402      1.92897      .   S
    Zn165  O404      1.93067      .   S
    C807   C771      1.47957      .   S
    C808   C772      1.47957      .   S
    C806   C770      1.47957      .   S
    C2420  N2282     1.49425      .   S
    C2420  N2352     1.46938      .   S
    C2421  N2283     1.49425      .   S
    C2421  N2353     1.46938      .   S
    C2419  N2281     1.49425      .   S
    C2419  N2351     1.46938      .   S
    C1521  O402      1.24881      .   S
    C1521  C1556     1.52151      .   S
    C1522  O403      1.24881      .   S
    C1522  C1557     1.52151      .   S
    C1523  O404      1.24881      .   S
    C1523  C1558     1.52151      .   S
    C1747  C1556     1.32211      .   S
    C1747  C1712     1.44525      .   S
    C1749  C1558     1.32211      .   S
    C1749  C1714     1.44525      .   S
    C1748  C1557     1.32211      .   S
    C1748  C1713     1.44525      .   S
    H2316  N2281     0.87878      .   S
    H2317  N2282     0.87878      .   S
    H2318  N2283     0.87878      .   S
    N2283  C1714     1.38928      .   S
    N2282  C1713     1.38928      .   S
    N2281  C1712     1.38928      .   S
    C770   O231      1.22516      .   S
    C770   O266      1.34273      .   S
    C772   O233      1.22516      .   S
    C772   O134      1.34273      .   S
    C771   O232      1.22516      .   S
    C771   O133      1.34273      .   S
    C1558  C1593     1.38417      .   S
    C1557  C1592     1.38417      .   S
    C1556  C1591     1.38417      .   S
    H2387  N2352     0.87926      .   S
    H2388  N2353     0.87926      .   S
    H2386  N2351     0.87926      .   S
    O231   Zn109     1.91203      .   S
    O233   Zn108     1.91203      .   S
    O232   Zn107     1.91203      .   S
    N2352  C2064     1.36686      .   S
    N2353  C2065     1.36686      .   S
    N2351  C2063     1.36686      .   S
    C1713  C1678     1.31386      .   S
    C1712  C1677     1.31386      .   S
    C1714  C1679     1.31386      .   S
    O266   Zn107     1.87392      .   S
    O133   Zn108     1.87392      .   S
    O134   Zn109     1.87392      .   S
    C1592  H1628     0.95075      .   S
    C1592  C1643     1.43854      .   S
    C1591  H1627     0.95075      .   S
    C1591  C1642     1.43854      .   S
    C1593  H1629     0.95075      .   S
    C1593  C1644     1.43854      .   S
    Zn107  O182      1.93287      .   S
    Zn107  O497      1.87455      .   S
    Zn108  O272      1.87455      .   S
    Zn109  O182      1.93287      .   S
    Zn109  O18       1.87455      .   S
    C1678  C1643     1.38180      .   S
    C1678  C1818     1.41515      .   S
    C1677  C1642     1.38180      .   S
    C1677  C1817     1.41515      .   S
    C1679  C1644     1.38180      .   S
    C1679  C1819     1.41515      .   S
    C2064  C1818     1.41521      .   S
    C2064  C1993     1.33862      .   S
    C2063  C1817     1.41521      .   S
    C2063  C1992     1.33862      .   S
    C2065  C1819     1.41521      .   S
    C2065  C1994     1.33862      .   S
    C1644  N2108     1.44860      .   S
    C1643  N2107     1.44860      .   S
    C1642  N2106     1.44860      .   S
    H2029  C1994     0.94802      .   S
    H2028  C1993     0.94802      .   S
    H2027  C1992     0.94802      .   S
    C1819  C1854     1.43562      .   S
    C1818  C1853     1.43562      .   S
    C1817  C1852     1.43562      .   S
    C1992  C1957     1.37475      .   S
    C1994  C1959     1.37475      .   S
    C1993  C1958     1.37475      .   S
    O18    C61       1.19042      .   S
    O497   C1069     1.19042      .   S
    O272   C1068     1.19042      .   S
    O16    C34       1.12166      .   S
    O427   C2197     1.12166      .   S
    O428   C2198     1.12166      .   S
    H2143  N2108     0.87778      .   S
    H2141  N2106     0.87778      .   S
    H2142  N2107     0.87778      .   S
    N2106  C2246     1.46454      .   S
    N2107  C2247     1.46454      .   S
    N2108  C2248     1.46454      .   S
    H56    C55       0.94808      .   S
    H1874  C1839     0.94808      .   S
    H1873  C1838     0.94808      .   S
    H2163  N2128     0.88301      .   S
    H65    N64       0.88301      .   S
    H2162  N2127     0.88301      .   S
    C1854  C1889     1.33681      .   S
    C1854  N2178     1.48041      .   S
    C1852  C1887     1.33681      .   S
    C1852  N2176     1.48041      .   S
    C1853  C1888     1.33681      .   S
    C1853  N2177     1.48041      .   S
    C1959  C1889     1.42566      .   S
    C1959  C1084     1.55459      .   S
    C1957  C1887     1.42566      .   S
    C1957  C1082     1.55459      .   S
    C1958  C1888     1.42566      .   S
    C1958  C1083     1.55459      .   S
    C61    O19       1.33972      .   S
    C61    C57       1.55459      .   S
    C1068  O270      1.33972      .   S
    C1068  C1908     1.55459      .   S
    C1069  O271      1.33972      .   S
    C1069  C1909     1.55459      .   S
    Zn80   O19       1.90979      .   S
    Zn80   O271      1.90979      .   S
    Zn80   O270      1.90979      .   S
    C34    N64       1.44487      .   S
    C34    N62       1.46454      .   S
    C2197  N2127     1.44487      .   S
    C2197  N1066     1.46454      .   S
    C2198  N2128     1.44487      .   S
    C2198  N1067     1.46454      .   S
    O591   Zn75      1.90979  1_565   S
    O591   C1084     1.33972      .   S
    O590   Zn75      1.90979      .   S
    O590   C1083     1.33972      .   S
    O589   Zn75      1.90979  1_665   S
    O589   C1082     1.33972      .   S
    N2128  C1804     1.48041      .   S
    N2127  C1803     1.48041  1_455   S
    N64    C54       1.48041  1_565   S
    C55    C57       1.42566      .   S
    C55    C54       1.33681      .   S
    C1838  C1908     1.42566      .   S
    C1838  C1803     1.33681      .   S
    C1839  C1909     1.42566      .   S
    C1839  C1804     1.33681      .   S
    C1887  H1922     0.94808      .   S
    C1888  H1923     0.94808      .   S
    C1889  H1924     0.94808      .   S
    N2176  C2246     1.44487      .   S
    N2176  H2211     0.88301      .   S
    N2177  C2247     1.44487      .   S
    N2177  H2212     0.88301      .   S
    N2178  C2248     1.44487      .   S
    N2178  H2213     0.88301      .   S
    C2248  O478      1.12166      .   S
    C2247  O477      1.12166      .   S
    C2246  O476      1.12166      .   S
    C1084  O556      1.19042      .   S
    C1083  O555      1.19042      .   S
    C1082  O554      1.19042      .   S
    C57    C58       1.37475      .   S
    C1909  C1944     1.37475      .   S
    C1908  C1943     1.37475      .   S
    C54    C53       1.43562      .   S
    C1803  C1768     1.43562      .   S
    C1804  C1769     1.43562      .   S
    N1066  H2092     0.87778      .   S
    N1066  C836      1.44860      .   S
    N1067  H2093     0.87778      .   S
    N1067  C837      1.44860      .   S
    N62    H63       0.87778      .   S
    N62    C48       1.44860      .   S
    O555   Zn92      1.87455      .   S
    O554   Zn93      1.87455      .   S
    O556   Zn91      1.87455      .   S
    C1944  H1979     0.94802      .   S
    C1944  C2014     1.33862      .   S
    C1943  H1978     0.94802      .   S
    C1943  C2013     1.33862      .   S
    C58    H59       0.94802      .   S
    C58    C60       1.33862      .   S
    C1768  C2013     1.41521      .   S
    C1768  C834      1.41515  1_655   S
    C1769  C2014     1.41521      .   S
    C1769  C835      1.41515      .   S
    C53    C60       1.41521      .   S
    C53    C49       1.41515  1_545   S
    O159   Zn91      1.93287  1_545   S
    O159   Zn92      1.93287      .   S
    C48    C49       1.38180      .   S
    C48    C46       1.43854      .   S
    C836   C834      1.38180      .   S
    C836   C1542     1.43854      .   S
    C837   C835      1.38180      .   S
    C837   C1543     1.43854      .   S
    C2014  N2303     1.36686      .   S
    C60    N70       1.36686      .   S
    C2013  N2302     1.36686      .   S
    H47    C46       0.95075      .   S
    H1578  C1543     0.95075      .   S
    H1577  C1542     0.95075      .   S
    C834   C1663     1.31386      .   S
    C49    C50       1.31386      .   S
    C835   C1664     1.31386      .   S
    Zn93   O253      1.87392  1_565   S
    Zn93   O216      1.91203      .   S
    Zn91   O251      1.87392  1_455   S
    Zn91   O217      1.91203      .   S
    Zn92   O252      1.87392      .   S
    Zn92   O218      1.91203      .   S
    C1542  C1507     1.38417      .   S
    C1543  C1508     1.38417      .   S
    C46    C45       1.38417      .   S
    O253   C757      1.34273      .   S
    O252   C756      1.34273      .   S
    O251   C755      1.34273      .   S
    C1663  N2232     1.38928  1_455   S
    C1663  C1698     1.44525      .   S
    C1664  N2233     1.38928      .   S
    C1664  C1699     1.44525      .   S
    C50    N68       1.38928  1_565   S
    C50    C51       1.44525      .   S
    N2302  H2337     0.87926      .   S
    N2302  C2372     1.46938      .   S
    N2303  H2338     0.87926      .   S
    N2303  C2373     1.46938      .   S
    N70    H71       0.87926      .   S
    N70    C72       1.46938      .   S
    O217   C756      1.22516  1_565   S
    O218   C757      1.22516  1_455   S
    O216   C755      1.22516      .   S
    C1508  C1699     1.32211      .   S
    C1508  C1473     1.52151      .   S
    C45    C51       1.32211      .   S
    C45    C44       1.52151      .   S
    C1507  C1698     1.32211      .   S
    C1507  C1472     1.52151      .   S
    C755   C791      1.47957      .   S
    C757   C793      1.47957      .   S
    C756   C792      1.47957      .   S
    O354   C1473     1.24881      .   S
    O354   Zn6       1.93067      .   S
    O14    C44       1.24881      .   S
    O14    Zn6       1.92897      .   S
    O353   C1472     1.24881      .   S
    O353   Zn6       1.92853      .   S
    N68    H69       0.87878      .   S
    N68    C72       1.49425      .   S
    N2232  H2267     0.87878      .   S
    N2232  C2372     1.49425      .   S
    N2233  H2268     0.87878      .   S
    N2233  C2373     1.49425      .   S
    C51    H52       0.94598      .   S
    C1699  H1734     0.94598      .   S
    C1698  H1733     0.94598      .   S
    C1472  O388      1.27106      .   S
    C44    O15       1.27106      .   S
    C1473  O389      1.27106      .   S
    C72    O17       1.14833      .   S
    C2372  O462      1.14833      .   S
    C2373  O463      1.14833      .   S
    H1094  C1047     0.94937      .   S
    H1093  C1046     0.94937      .   S
    H1092  C1045     0.94937      .   S
    C791   C1045     1.44574      .   S
    C791   C785      1.37472      .   S
    C793   C1047     1.44574      .   S
    C793   C787      1.37472      .   S
    C792   C1046     1.44574      .   S
    C792   C786      1.37472      .   S
    Zn6    O8        1.88816      .   S
    H871   C786      0.95051  1_565   S
    H870   C785      0.95051      .   S
    C1047  C977      1.43040      .   S
    C1045  C975      1.43040      .   S
    C1046  C976      1.43040      .   S
    H872   C787      0.95051  1_455   S
    C785   C905      1.41715      .   S
    C787   C907      1.41715      .   S
    C786   C906      1.41715      .   S
    C977   H1012     0.94698      .   S
    C977   C942      1.31172      .   S
    C975   H1010     0.94698      .   S
    C975   C940      1.31172      .   S
    C976   H1011     0.94698      .   S
    C976   C941      1.31172      .   S
    O15    Zn86      1.96104      .   S
    O388   Zn5       1.96104      .   S
    O389   Zn85      1.96104      .   S
    H720   N685      0.88080      .   S
    H721   N686      0.88080      .   S
    H722   N687      0.88080      .   S
    C905   C940      1.42467      .   S
    C905   N615      1.43139      .   S
    C906   C941      1.42467      .   S
    C906   N616      1.43139      .   S
    C907   C942      1.42467      .   S
    C907   N617      1.43139      .   S
    O288   C1127     1.13307      .   S
    O289   C1128     1.13307  1_565   S
    O290   C1129     1.13307  1_455   S
    C1129  N687      1.26439      .   S
    C1129  N617      1.46906      .   S
    C1128  N686      1.26439      .   S
    C1128  N616      1.46906      .   S
    C1127  N685      1.26439      .   S
    C1127  N615      1.46906      .   S
    C942   C1164     1.42151      .   S
    C940   C1162     1.42151      .   S
    C941   C1163     1.42151      .   S
    N685   C1197     1.47250      .   S
    N687   C1199     1.47250      .   S
    N686   C1198     1.47250      .   S
    N617   H652      0.88291  1_655   S
    N616   H651      0.88291  1_545   S
    N615   H650      0.88291      .   S
    O8     Zn86      1.94120      .   S
    C1164  C1199     1.45249      .   S
    C1164  C1409     1.48748      .   S
    C1163  C1198     1.45249      .   S
    C1163  C1408     1.48748      .   S
    C1162  C1197     1.45249      .   S
    C1162  C1407     1.48748      .   S
    C1199  C1234     1.38515      .   S
    C1197  C1232     1.38515      .   S
    C1198  C1233     1.38515      .   S
    Zn5    O13       1.80628      .   S
    Zn5    O284      1.87734      .   S
    Zn86   O319      1.80628      .   S
    Zn86   O283      1.87734      .   S
    Zn85   O318      1.80628      .   S
    Zn85   O12       1.87734      .   S
    C1232  H1267     0.94932      .   S
    C1232  C1302     1.43713      .   S
    C1233  H1268     0.94932      .   S
    C1233  C1303     1.43713      .   S
    C1234  H1269     0.94932      .   S
    C1234  C1304     1.43713      .   S
    C1408  H1443     0.95056      .   S
    C1408  C1338     1.28209      .   S
    C1409  H1444     0.95056      .   S
    C1409  C1339     1.28209      .   S
    C1407  H1442     0.95056      .   S
    C1407  C1337     1.28209      .   S
    O13    C43       1.51592      .   S
    O318   C1437     1.51592      .   S
    O319   C1438     1.51592      .   S
    O12    C43       1.16042      .   S
    O283   C1437     1.16042      .   S
    O284   C1438     1.16042      .   S
    C43    C38       1.53367      .   S
    C1437  C1262     1.53367      .   S
    C1438  C1263     1.53367      .   S
    H1333  C1298     0.95170      .   S
    H1332  C1297     0.95170      .   S
    H40    C39       0.95170      .   S
    C1304  C1339     1.41245      .   S
    C1304  C1479     1.53367      .   S
    C1303  C1338     1.41245      .   S
    C1303  C1478     1.53367      .   S
    C1302  C1337     1.41245      .   S
    C1302  C1477     1.53367      .   S
    C1339  H1374     0.95170      .   S
    C1338  H1373     0.95170      .   S
    C1337  H1372     0.95170      .   S
    C1298  C1263     1.41245      .   S
    C1298  C1368     1.28209      .   S
    C1297  C1262     1.41245      .   S
    C1297  C1367     1.28209      .   S
    C39    C38       1.41245      .   S
    C39    C41       1.28209      .   S
    C38    C36       1.43713      .   S
    C1262  C1192     1.43713      .   S
    C1263  C1193     1.43713      .   S
    C1479  O325      1.16042      .   S
    C1479  O360      1.51592      .   S
    C1478  O324      1.16042      .   S
    C1478  O359      1.51592      .   S
    C1477  O323      1.16042      .   S
    C1477  O358      1.51592      .   S
    O324   Zn128     1.87734      .   S
    O325   Zn126     1.87734      .   S
    O323   Zn127     1.87734      .   S
    H42    C41       0.95056      .   S
    H1402  C1367     0.95056      .   S
    H1403  C1368     0.95056      .   S
    O358   Zn126     1.80628      .   S
    O359   Zn127     1.80628      .   S
    O360   Zn128     1.80628      .   S
    H37    C36       0.94932      .   S
    H1227  C1192     0.94932      .   S
    H1228  C1193     0.94932      .   S
    C41    C0        1.48748      .   S
    C1367  C1122     1.48748      .   S
    C1368  C1123     1.48748      .   S
    C36    C35       1.38515      .   S
    C1192  C1157     1.38515      .   S
    C1193  C1158     1.38515      .   S
    Zn127  O434      1.96104      .   S
    Zn126  O433      1.96104      .   S
    Zn128  O190      1.94120      .   S
    Zn128  O432      1.96104      .   S
    C35    C0        1.45249      .   S
    C35    N21       1.47250      .   S
    C1157  C1122     1.45249      .   S
    C1157  N645      1.47250      .   S
    C1158  C1123     1.45249      .   S
    C1158  N646      1.47250      .   S
    C0     C28       1.42151      .   S
    C1122  C900      1.42151      .   S
    C1123  C901      1.42151      .   S
    H610   N575      0.88291  1_545   S
    H611   N576      0.88291  1_655   S
    H2     N1        0.88291      .   S
    O190   Zn160     1.88816      .   S
    N575   C1087     1.46906      .   S
    N575   C865      1.43139      .   S
    N1     C33       1.46906      .   S
    N1     C27       1.43139      .   S
    N576   C1088     1.46906      .   S
    N576   C866      1.43139      .   S
    N21    C33       1.26439      .   S
    N21    H22       0.88080      .   S
    N645   C1087     1.26439      .   S
    N645   H680      0.88080      .   S
    N646   C1088     1.26439      .   S
    N646   H681      0.88080      .   S
    C28    C27       1.42467      .   S
    C28    C29       1.31172      .   S
    C900   C865      1.42467      .   S
    C900   C935      1.31172      .   S
    C901   C866      1.42467      .   S
    C901   C936      1.31172      .   S
    C33    O11       1.13307      .   S
    C1088  O247      1.13307  1_455   S
    C1087  O246      1.13307  1_565   S
    C865   C414      1.41715      .   S
    C866   C415      1.41715      .   S
    C27    C25       1.41715      .   S
    H30    C29       0.94698      .   S
    H971   C936      0.94698      .   S
    H970   C935      0.94698      .   S
    O432   C1512     1.27106      .   S
    O433   C1513     1.27106      .   S
    O434   C1514     1.27106      .   S
    C936   C1006     1.43040      .   S
    C935   C1005     1.43040      .   S
    C29    C31       1.43040      .   S
    O503   C2410     1.14833      .   S
    O504   C2411     1.14833      .   S
    O505   C2412     1.14833      .   S
    C25    H26       0.95051      .   S
    C25    C24       1.37472      .   S
    C414   H412      0.95051  1_565   S
    C414   C750      1.37472      .   S
    C415   H413      0.95051  1_455   S
    C415   C751      1.37472      .   S
    H1775  C1740     0.94598      .   S
    H1773  C1738     0.94598      .   S
    H1774  C1739     0.94598      .   S
    C1006  C751      1.44574      .   S
    C1006  H1041     0.94937      .   S
    C1005  C750      1.44574      .   S
    C1005  H1040     0.94937      .   S
    C31    C24       1.44574      .   S
    C31    H32       0.94937      .   S
    Zn160  O395      1.93067      .   S
    Zn160  O394      1.92853      .   S
    Zn160  O393      1.92897      .   S
    C751   C716      1.47957      .   S
    C24    C23       1.47957      .   S
    C750   C715      1.47957      .   S
    C2410  N2272     1.49425      .   S
    C2410  N2342     1.46938      .   S
    C2411  N2273     1.49425      .   S
    C2411  N2343     1.46938      .   S
    C2412  N2274     1.49425      .   S
    C2412  N2344     1.46938      .   S
    C1512  O393      1.24881      .   S
    C1512  C1547     1.52151      .   S
    C1513  O394      1.24881      .   S
    C1513  C1548     1.52151      .   S
    C1514  O395      1.24881      .   S
    C1514  C1549     1.52151      .   S
    C1738  C1547     1.32211      .   S
    C1738  C1703     1.44525      .   S
    C1739  C1548     1.32211      .   S
    C1739  C1704     1.44525      .   S
    C1740  C1549     1.32211      .   S
    C1740  C1705     1.44525      .   S
    H2308  N2273     0.87878      .   S
    H2307  N2272     0.87878      .   S
    H2309  N2274     0.87878      .   S
    N2273  C1704     1.38928  1_455   S
    N2272  C1703     1.38928  1_565   S
    N2274  C1705     1.38928      .   S
    C715   O187      1.22516  1_565   S
    C715   O106      1.34273      .   S
    C716   O188      1.22516  1_455   S
    C716   O212      1.34273      .   S
    C23    O9        1.22516      .   S
    C23    O10       1.34273      .   S
    C1548  C1583     1.38417      .   S
    C1547  C1582     1.38417      .   S
    C1549  C1584     1.38417      .   S
    H2378  N2343     0.87926      .   S
    H2377  N2342     0.87926      .   S
    H2379  N2344     0.87926      .   S
    O9     Zn87      1.91203      .   S
    O188   Zn73      1.91203      .   S
    O187   Zn4       1.91203      .   S
    N2343  C2055     1.36686      .   S
    N2344  C2056     1.36686      .   S
    N2342  C2054     1.36686      .   S
    C1704  C1669     1.31386      .   S
    C1705  C1670     1.31386      .   S
    C1703  C1668     1.31386      .   S
    O10    Zn4       1.87392  1_455   S
    O106   Zn73      1.87392      .   S
    O212   Zn87      1.87392  1_565   S
    C1582  H1618     0.95075      .   S
    C1582  C1633     1.43854      .   S
    C1583  H1619     0.95075      .   S
    C1583  C1634     1.43854      .   S
    C1584  H1620     0.95075      .   S
    C1584  C1635     1.43854      .   S
    Zn4    O7        1.93287  1_655   S
    Zn4    O574      1.87455      .   S
    Zn87   O7        1.93287      .   S
    Zn87   O572      1.87455      .   S
    Zn73   O573      1.87455      .   S
    C1670  C1635     1.38180      .   S
    C1670  C1810     1.41515      .   S
    C1669  C1634     1.38180      .   S
    C1669  C1809     1.41515  1_655   S
    C1668  C1633     1.38180      .   S
    C1668  C1808     1.41515  1_545   S
    C2054  C1808     1.41521      .   S
    C2054  C1983     1.33862      .   S
    C2055  C1809     1.41521      .   S
    C2055  C1984     1.33862      .   S
    C2056  C1810     1.41521      .   S
    C2056  C1985     1.33862      .   S
    C1633  N2097     1.44860      .   S
    C1634  N2098     1.44860      .   S
    C1635  N2099     1.44860      .   S
    H2018  C1983     0.94802      .   S
    H2019  C1984     0.94802      .   S
    H2020  C1985     0.94802      .   S
    C1810  C1845     1.43562      .   S
    C1809  C1844     1.43562      .   S
    C1808  C1843     1.43562      .   S
    C1985  C1950     1.37475      .   S
    C1984  C1949     1.37475      .   S
    C1983  C1948     1.37475      .   S
    O574   C2091     1.19042      .   S
    O573   C2090     1.19042      .   S
    O572   C2089     1.19042      .   S
    O494   C2264     1.12166      .   S
    O495   C2265     1.12166      .   S
    O496   C2266     1.12166      .   S
    H2132  N2097     0.87778      .   S
    H2133  N2098     0.87778      .   S
    H2134  N2099     0.87778      .   S
    N2099  C2239     1.46454      .   S
    N2098  C2238     1.46454      .   S
    N2097  C2237     1.46454      .   S
    H1942  C1907     0.94808      .   S
    H1941  C1906     0.94808      .   S
    H1940  C1905     0.94808      .   S
    H2231  N2196     0.88301      .   S
    H2230  N2195     0.88301      .   S
    H2229  N2194     0.88301      .   S
    C1845  C1880     1.33681      .   S
    C1845  N2169     1.48041      .   S
    C1843  C1878     1.33681      .   S
    C1843  N2167     1.48041  1_565   S
    C1844  C1879     1.33681      .   S
    C1844  N2168     1.48041  1_455   S
    C1948  C1878     1.42566      .   S
    C1948  C1073     1.55459      .   S
    C1949  C1879     1.42566      .   S
    C1949  C1074     1.55459      .   S
    C1950  C1880     1.42566      .   S
    C1950  C1075     1.55459      .   S
    C2091  O609      1.33972      .   S
    C2091  C1977     1.55459      .   S
    C2090  O608      1.33972      .   S
    C2090  C1976     1.55459      .   S
    C2089  O607      1.33972      .   S
    C2089  C1975     1.55459      .   S
    Zn3    O609      1.90979  1_455   S
    Zn3    O608      1.90979  1_445   S
    Zn3    O607      1.90979      .   S
    C2266  N2196     1.44487      .   S
    C2266  N2126     1.46454      .   S
    C2264  N2194     1.44487      .   S
    C2264  N2124     1.46454      .   S
    C2265  N2195     1.44487      .   S
    C2265  N2125     1.46454      .   S
    O581   Zn82      1.90979      .   S
    O581   C1074     1.33972      .   S
    O580   Zn82      1.90979      .   S
    O580   C1073     1.33972      .   S
    O582   Zn82      1.90979      .   S
    O582   C1075     1.33972      .   S
    N2196  C1872     1.48041      .   S
    N2195  C1871     1.48041      .   S
    N2194  C1870     1.48041      .   S
    C1907  C1977     1.42566      .   S
    C1907  C1872     1.33681      .   S
    C1906  C1976     1.42566      .   S
    C1906  C1871     1.33681      .   S
    C1905  C1975     1.42566      .   S
    C1905  C1870     1.33681      .   S
    C1880  H1915     0.94808      .   S
    C1879  H1914     0.94808      .   S
    C1878  H1913     0.94808      .   S
    N2169  C2239     1.44487      .   S
    N2169  H2204     0.88301      .   S
    N2167  C2237     1.44487      .   S
    N2167  H2202     0.88301      .   S
    N2168  C2238     1.44487      .   S
    N2168  H2203     0.88301      .   S
    C2239  O469      1.12166      .   S
    C2237  O467      1.12166      .   S
    C2238  O468      1.12166      .   S
    C1075  O547      1.19042      .   S
    C1074  O546      1.19042      .   S
    C1073  O545      1.19042      .   S
    C1976  C2011     1.37475      .   S
    C1977  C2012     1.37475      .   S
    C1975  C2010     1.37475      .   S
    C1870  C1835     1.43562      .   S
    C1872  C1837     1.43562      .   S
    C1871  C1836     1.43562      .   S
    N2126  H2161     0.87778      .   S
    N2126  C1662     1.44860      .   S
    N2125  H2160     0.87778      .   S
    N2125  C1661     1.44860      .   S
    N2124  H2159     0.87778      .   S
    N2124  C1660     1.44860      .   S
    O547   Zn113     1.87455      .   S
    O546   Zn114     1.87455      .   S
    O545   Zn115     1.87455      .   S
    C2010  H2045     0.94802      .   S
    C2010  C1063     1.33862      .   S
    C2011  H2046     0.94802      .   S
    C2011  C1064     1.33862      .   S
    C2012  H2047     0.94802      .   S
    C2012  C1065     1.33862      .   S
    C1837  C1065     1.41521      .   S
    C1837  C1697     1.41515      .   S
    C1835  C1063     1.41521      .   S
    C1835  C1695     1.41515      .   S
    C1836  C1064     1.41521      .   S
    C1836  C1696     1.41515      .   S
    O184   Zn113     1.93287      .   S
    O184   Zn115     1.93287      .   S
    C1660  C1695     1.38180      .   S
    C1660  C1609     1.43854      .   S
    C1661  C1696     1.38180      .   S
    C1661  C1610     1.43854      .   S
    C1662  C1697     1.38180      .   S
    C1662  C1611     1.43854      .   S
    C1065  N2371     1.36686      .   S
    C1064  N2370     1.36686      .   S
    C1063  N2369     1.36686      .   S
    H831   C1609     0.95075      .   S
    H832   C1610     0.95075      .   S
    H833   C1611     0.95075      .   S
    C1697  C1732     1.31386      .   S
    C1696  C1731     1.31386      .   S
    C1695  C1730     1.31386      .   S
    Zn114  O275      1.87392      .   S
    Zn114  O239      1.91203      .   S
    Zn113  O274      1.87392      .   S
    Zn113  O238      1.91203      .   S
    Zn115  O276      1.87392      .   S
    Zn115  O237      1.91203      .   S
    C1611  C1576     1.38417      .   S
    C1609  C1574     1.38417      .   S
    C1610  C1575     1.38417      .   S
    O274   C776      1.34273      .   S
    O275   C777      1.34273      .   S
    O276   C778      1.34273      .   S
    C1731  N2300     1.38928      .   S
    C1731  C1766     1.44525      .   S
    C1730  N2299     1.38928      .   S
    C1730  C1765     1.44525      .   S
    C1732  N2301     1.38928      .   S
    C1732  C1767     1.44525      .   S
    N2369  H2404     0.87926      .   S
    N2369  C2437     1.46938      .   S
    N2370  H2405     0.87926      .   S
    N2370  C2438     1.46938      .   S
    N2371  H2406     0.87926      .   S
    N2371  C2439     1.46938      .   S
    O239   C778      1.22516      .   S
    O238   C777      1.22516      .   S
    O237   C776      1.22516      .   S
    C1574  C1765     1.32211      .   S
    C1574  C1539     1.52151      .   S
    C1575  C1766     1.32211      .   S
    C1575  C1540     1.52151      .   S
    C1576  C1767     1.32211      .   S
    C1576  C1541     1.52151      .   S
    C777   C813      1.47957      .   S
    C776   C812      1.47957      .   S
    C778   C814      1.47957      .   S
    O424   C1539     1.24881      .   S
    O424   Zn177     1.92897      .   S
    O425   C1540     1.24881      .   S
    O425   Zn177     1.92853      .   S
    O426   C1541     1.24881      .   S
    O426   Zn177     1.93067      .   S
    N2301  H2336     0.87878      .   S
    N2301  C2439     1.49425      .   S
    N2300  H2335     0.87878      .   S
    N2300  C2438     1.49425      .   S
    N2299  H2334     0.87878      .   S
    N2299  C2437     1.49425      .   S
    C1765  H1800     0.94598      .   S
    C1766  H1801     0.94598      .   S
    C1767  H1802     0.94598      .   S
    C1541  O461      1.27106      .   S
    C1540  O460      1.27106      .   S
    C1539  O459      1.27106      .   S
    C2439  O269      1.14833      .   S
    C2438  O268      1.14833      .   S
    C2437  O267      1.14833      .   S
    H1113  C537      0.94937      .   S
    H1114  C538      0.94937      .   S
    H1115  C539      0.94937      .   S
    C812   C537      1.44574      .   S
    C812   C856      1.37472      .   S
    C813   C538      1.44574      .   S
    C813   C857      1.37472      .   S
    C814   C539      1.44574      .   S
    C814   C858      1.37472      .   S
    Zn177  O105      1.88816      .   S
    C539   C998      1.43040      .   S
    C537   C996      1.43040      .   S
    C538   C997      1.43040      .   S
    H891   C856      0.95051      .   S
    H892   C857      0.95051      .   S
    H893   C858      0.95051      .   S
    C856   C926      1.41715      .   S
    C857   C927      1.41715      .   S
    C858   C928      1.41715      .   S
    C998   H1033     0.94698      .   S
    C998   C963      1.31172      .   S
    C997   H1032     0.94698      .   S
    C997   C962      1.31172      .   S
    C996   H1031     0.94698      .   S
    C996   C961      1.31172      .   S
    O459   Zn157     1.96104      .   S
    O460   Zn155     1.96104      .   S
    O461   Zn156     1.96104      .   S
    H741   N706      0.88080  1_545   S
    H743   N708      0.88080  1_655   S
    H742   N707      0.88080      .   S
    C927   C962      1.42467      .   S
    C927   N637      1.43139      .   S
    C928   C963      1.42467      .   S
    C928   N638      1.43139      .   S
    C926   C961      1.42467      .   S
    C926   N636      1.43139      .   S
    O311   C1150     1.13307  1_655   S
    O310   C1149     1.13307      .   S
    O309   C1148     1.13307  1_545   S
    C1148  N706      1.26439      .   S
    C1148  N636      1.46906      .   S
    C1150  N708      1.26439      .   S
    C1150  N638      1.46906      .   S
    C1149  N707      1.26439      .   S
    C1149  N637      1.46906      .   S
    C963   C1185     1.42151      .   S
    C961   C1183     1.42151      .   S
    C962   C1184     1.42151      .   S
    N706   C1218     1.47250      .   S
    N708   C1220     1.47250      .   S
    N707   C1219     1.47250      .   S
    N638   H673      0.88291      .   S
    N637   H672      0.88291      .   S
    N636   H671      0.88291      .   S
    O105   Zn157     1.94120      .   S
    C1185  C1220     1.45249      .   S
    C1185  C1430     1.48748      .   S
    C1184  C1219     1.45249      .   S
    C1184  C1429     1.48748      .   S
    C1183  C1218     1.45249      .   S
    C1183  C1428     1.48748      .   S
    C1218  C1253     1.38515      .   S
    C1219  C1254     1.38515      .   S
    C1220  C1255     1.38515      .   S
    Zn155  O385      1.80628      .   S
    Zn155  O352      1.87734      .   S
    Zn156  O386      1.80628      .   S
    Zn156  O350      1.87734      .   S
    Zn157  O387      1.80628      .   S
    Zn157  O351      1.87734      .   S
    C1255  H1290     0.94932  1_455   S
    C1255  C1325     1.43713      .   S
    C1254  H1289     0.94932      .   S
    C1254  C1324     1.43713      .   S
    C1253  H1288     0.94932  1_565   S
    C1253  C1323     1.43713      .   S
    C1430  H1465     0.95056      .   S
    C1430  C1360     1.28209      .   S
    C1429  H1464     0.95056      .   S
    C1429  C1359     1.28209      .   S
    C1428  H1463     0.95056      .   S
    C1428  C1358     1.28209      .   S
    O387   C1506     1.51592      .   S
    O385   C1504     1.51592      .   S
    O386   C1505     1.51592      .   S
    O351   C1505     1.16042      .   S
    O352   C1506     1.16042      .   S
    O350   C1504     1.16042      .   S
    C1505  C1330     1.53367      .   S
    C1506  C1331     1.53367      .   S
    C1504  C1329     1.53367      .   S
    H1401  C1366     0.95170      .   S
    H1400  C1365     0.95170      .   S
    H1399  C1364     0.95170      .   S
    C1323  C1358     1.41245      .   S
    C1323  C1498     1.53367      .   S
    C1325  C1360     1.41245      .   S
    C1325  C1500     1.53367      .   S
    C1324  C1359     1.41245      .   S
    C1324  C1499     1.53367      .   S
    C1360  H1395     0.95170      .   S
    C1359  H1394     0.95170      .   S
    C1358  H1393     0.95170      .   S
    C1366  C1331     1.41245      .   S
    C1366  C1436     1.28209      .   S
    C1364  C1329     1.41245      .   S
    C1364  C1434     1.28209      .   S
    C1365  C1330     1.41245      .   S
    C1365  C1435     1.28209      .   S
    C1331  C1261     1.43713      .   S
    C1329  C1259     1.43713      .   S
    C1330  C1260     1.43713      .   S
    C1500  O346      1.16042  1_455   S
    C1500  O381      1.51592      .   S
    C1498  O344      1.16042  1_565   S
    C1498  O379      1.51592      .   S
    C1499  O345      1.16042      .   S
    C1499  O380      1.51592      .   S
    O344   Zn150     1.87734      .   S
    O345   Zn151     1.87734      .   S
    O346   Zn149     1.87734      .   S
    H1471  C1436     0.95056      .   S
    H1469  C1434     0.95056      .   S
    H1470  C1435     0.95056      .   S
    O379   Zn149     1.80628      .   S
    O380   Zn150     1.80628  1_455   S
    O381   Zn151     1.80628  1_565   S
    H1296  C1261     0.94932      .   S
    H1295  C1260     0.94932      .   S
    H1294  C1259     0.94932      .   S
    C1436  C1191     1.48748      .   S
    C1435  C1190     1.48748      .   S
    C1434  C1189     1.48748      .   S
    C1259  C1224     1.38515      .   S
    C1260  C1225     1.38515      .   S
    C1261  C1226     1.38515      .   S
    Zn151  O201      1.94120  1_545   S
    Zn150  O203      1.94120  1_655   S
    Zn149  O202      1.94120      .   S
    C1226  C1191     1.45249      .   S
    C1226  N714      1.47250      .   S
    C1224  C1189     1.45249      .   S
    C1224  N712      1.47250      .   S
    C1225  C1190     1.45249      .   S
    C1225  N713      1.47250      .   S
    C1189  C967      1.42151  1_655   S
    C1190  C968      1.42151  1_545   S
    C1191  C969      1.42151      .   S
    H679   N644      0.88291      .   S
    H678   N643      0.88291      .   S
    H677   N642      0.88291      .   S
    O201   Zn171     1.88816      .   S
    O202   Zn172     1.88816      .   S
    O203   Zn173     1.88816      .   S
    N644   C1156     1.46906      .   S
    N644   C934      1.43139      .   S
    N643   C1155     1.46906  1_565   S
    N643   C933      1.43139      .   S
    N642   C1154     1.46906  1_455   S
    N642   C932      1.43139      .   S
    N713   C1155     1.26439      .   S
    N713   H748      0.88080      .   S
    N712   C1154     1.26439      .   S
    N712   H747      0.88080      .   S
    N714   C1156     1.26439      .   S
    N714   H749      0.88080      .   S
    C967   C932      1.42467      .   S
    C967   C1002     1.31172      .   S
    C968   C933      1.42467      .   S
    C968   C1003     1.31172      .   S
    C969   C934      1.42467      .   S
    C969   C1004     1.31172      .   S
    C1156  O317      1.13307      .   S
    C1154  O315      1.13307      .   S
    C1155  O316      1.13307      .   S
    C934   C864      1.41715      .   S
    C933   C863      1.41715      .   S
    C932   C862      1.41715      .   S
    H1039  C1004     0.94698      .   S
    H1038  C1003     0.94698      .   S
    H1037  C1002     0.94698      .   S
    O454   C1534     1.27106      .   S
    O453   C1533     1.27106      .   S
    O455   C1535     1.27106      .   S
    C1002  C543      1.43040      .   S
    C1003  C1085     1.43040      .   S
    C1004  C1086     1.43040      .   S
    O526   C2433     1.14833      .   S
    O525   C2432     1.14833      .   S
    O524   C2431     1.14833      .   S
    C862   H897      0.95051      .   S
    C862   C818      1.37472      .   S
    C864   H899      0.95051      .   S
    C864   C411      1.37472      .   S
    C863   H898      0.95051      .   S
    C863   C410      1.37472      .   S
    H1796  C1761     0.94598      .   S
    H1795  C1760     0.94598      .   S
    H1794  C1759     0.94598      .   S
    C1086  C411      1.44574      .   S
    C1086  H1121     0.94937      .   S
    C1085  C410      1.44574      .   S
    C1085  H1120     0.94937      .   S
    C543   C818      1.44574      .   S
    C543   H1119     0.94937      .   S
    C410   C783      1.47957      .   S
    C411   C784      1.47957      .   S
    C818   C782      1.47957      .   S
    C2432  N2294     1.49425      .   S
    C2432  N2364     1.46938      .   S
    C2431  N2293     1.49425      .   S
    C2431  N2363     1.46938      .   S
    C2433  N2295     1.49425      .   S
    C2433  N2365     1.46938      .   S
    C1534  O419      1.24881      .   S
    C1534  C1569     1.52151      .   S
    C1533  O211      1.24881      .   S
    C1533  C1568     1.52151      .   S
    C1535  O420      1.24881      .   S
    C1535  C1570     1.52151      .   S
    C1759  C1568     1.32211      .   S
    C1759  C1724     1.44525      .   S
    C1760  C1569     1.32211      .   S
    C1760  C1725     1.44525      .   S
    C1761  C1570     1.32211      .   S
    C1761  C1726     1.44525      .   S
    H2328  N2293     0.87878      .   S
    H2329  N2294     0.87878      .   S
    H2330  N2295     0.87878      .   S
    N2294  C1725     1.38928      .   S
    N2293  C1724     1.38928      .   S
    N2295  C1726     1.38928      .   S
    C784   O245      1.22516      .   S
    C784   O282      1.34273      .   S
    C782   O243      1.22516      .   S
    C782   O280      1.34273      .   S
    C783   O244      1.22516      .   S
    C783   O281      1.34273      .   S
    C1569  C1604     1.38417      .   S
    C1570  C1605     1.38417      .   S
    C1568  C1603     1.38417      .   S
    H2398  N2363     0.87926      .   S
    H2400  N2365     0.87926      .   S
    H2399  N2364     0.87926      .   S
    O244   Zn119     1.91203      .   S
    O245   Zn120     1.91203      .   S
    O243   Zn121     1.91203      .   S
    N2363  C2075     1.36686      .   S
    N2364  C2076     1.36686      .   S
    N2365  C1059     1.36686      .   S
    C1725  C1690     1.31386      .   S
    C1724  C1689     1.31386      .   S
    C1726  C1691     1.31386      .   S
    O280   Zn119     1.87392      .   S
    O282   Zn121     1.87392      .   S
    O281   Zn120     1.87392      .   S
    C1603  H825      0.95075      .   S
    C1603  C1654     1.43854      .   S
    C1605  H827      0.95075      .   S
    C1605  C1656     1.43854      .   S
    C1604  H826      0.95075      .   S
    C1604  C1655     1.43854      .   S
    Zn119  O186      1.93287      .   S
    Zn119  O553      1.87455      .   S
    Zn121  O551      1.87455      .   S
    Zn120  O186      1.93287      .   S
    Zn120  O552      1.87455      .   S
    C1690  C1655     1.38180      .   S
    C1690  C1830     1.41515      .   S
    C1689  C1654     1.38180      .   S
    C1689  C1829     1.41515      .   S
    C1691  C1656     1.38180      .   S
    C1691  C1831     1.41515      .   S
    C2075  C1829     1.41521      .   S
    C2075  C2004     1.33862      .   S
    C1059  C1831     1.41521      .   S
    C1059  C2006     1.33862      .   S
    C2076  C1830     1.41521      .   S
    C2076  C2005     1.33862      .   S
    C1656  N2120     1.44860      .   S
    C1655  N2119     1.44860      .   S
    C1654  N2118     1.44860      .   S
    H2039  C2004     0.94802      .   S
    H2041  C2006     0.94802      .   S
    H2040  C2005     0.94802      .   S
    C1830  C1865     1.43562      .   S
    C1829  C1864     1.43562      .   S
    C1831  C1866     1.43562      .   S
    C2006  C1971     1.37475      .   S
    C2005  C1970     1.37475      .   S
    C2004  C1969     1.37475      .   S
    O551   C1079     1.19042      .   S
    O553   C1081     1.19042      .   S
    O552   C1080     1.19042      .   S
    O474   C2244     1.12166      .   S
    O473   C2243     1.12166      .   S
    O475   C2245     1.12166      .   S
    H2153  N2118     0.87778      .   S
    H2154  N2119     0.87778      .   S
    H2155  N2120     0.87778      .   S
    N2119  C2259     1.46454      .   S
    N2118  C2258     1.46454      .   S
    N2120  C2260     1.46454      .   S
    H1919  C1884     0.94808      .   S
    H1920  C1885     0.94808      .   S
    H1921  C1886     0.94808      .   S
    H2208  N2173     0.88301      .   S
    H2209  N2174     0.88301      .   S
    H2210  N2175     0.88301      .   S
    C1866  C1901     1.33681      .   S
    C1866  N2190     1.48041      .   S
    C1864  C1899     1.33681      .   S
    C1864  N2188     1.48041      .   S
    C1865  C1900     1.33681      .   S
    C1865  N2189     1.48041      .   S
    C1971  C1901     1.42566      .   S
    C1971  C2085     1.55459      .   S
    C1970  C1900     1.42566      .   S
    C1970  C2084     1.55459      .   S
    C1969  C1899     1.42566      .   S
    C1969  C2083     1.55459      .   S
    C1079  O586      1.33972      .   S
    C1079  C1954     1.55459      .   S
    C1080  O587      1.33972      .   S
    C1080  C1955     1.55459      .   S
    C1081  O588      1.33972      .   S
    C1081  C1956     1.55459      .   S
    Zn84   O586      1.90979      .   S
    Zn84   O587      1.90979      .   S
    Zn84   O588      1.90979      .   S
    C2244  N2174     1.44487      .   S
    C2244  N2104     1.46454      .   S
    C2243  N2173     1.44487      .   S
    C2243  N2103     1.46454      .   S
    C2245  N2175     1.44487      .   S
    C2245  N2105     1.46454      .   S
    O601   Zn79      1.90979      .   S
    O601   C2083     1.33972      .   S
    O602   Zn79      1.90979      .   S
    O602   C2084     1.33972      .   S
    O603   Zn79      1.90979      .   S
    O603   C2085     1.33972      .   S
    N2173  C1849     1.48041      .   S
    N2174  C1850     1.48041      .   S
    N2175  C1851     1.48041      .   S
    C1886  C1956     1.42566      .   S
    C1886  C1851     1.33681      .   S
    C1884  C1954     1.42566      .   S
    C1884  C1849     1.33681      .   S
    C1885  C1955     1.42566      .   S
    C1885  C1850     1.33681      .   S
    C1899  H1934     0.94808      .   S
    C1900  H1935     0.94808      .   S
    C1901  H1936     0.94808      .   S
    N2189  C2259     1.44487      .   S
    N2189  H2224     0.88301      .   S
    N2190  C2260     1.44487      .   S
    N2190  H2225     0.88301      .   S
    N2188  C2258     1.44487      .   S
    N2188  H2223     0.88301      .   S
    C2259  O489      1.12166      .   S
    C2258  O488      1.12166      .   S
    C2260  O490      1.12166      .   S
    C2083  O566      1.19042      .   S
    C2085  O568      1.19042      .   S
    C2084  O567      1.19042      .   S
    C1954  C1989     1.37475      .   S
    C1956  C1991     1.37475      .   S
    C1955  C1990     1.37475      .   S
    C1850  C1815     1.43562      .   S
    C1849  C1814     1.43562      .   S
    C1851  C1816     1.43562      .   S
    N2103  H2138     0.87778      .   S
    N2103  C1639     1.44860      .   S
    N2104  H2139     0.87778      .   S
    N2104  C1640     1.44860      .   S
    N2105  H2140     0.87778      .   S
    N2105  C1641     1.44860      .   S
    O566   Zn20      1.87455      .   S
    O567   Zn104     1.87455      .   S
    O568   Zn103     1.87455      .   S
    C1989  H2024     0.94802      .   S
    C1989  C2060     1.33862      .   S
    C1990  H2025     0.94802      .   S
    C1990  C2061     1.33862      .   S
    C1991  H2026     0.94802      .   S
    C1991  C2062     1.33862      .   S
    C1816  C2062     1.41521      .   S
    C1816  C1676     1.41515      .   S
    C1814  C2060     1.41521      .   S
    C1814  C1674     1.41515      .   S
    C1815  C2061     1.41521      .   S
    C1815  C1675     1.41515      .   S
    O181   Zn104     1.93287      .   S
    O181   Zn103     1.93287      .   S
    C1641  C1676     1.38180      .   S
    C1641  C1590     1.43854      .   S
    C1639  C1674     1.38180      .   S
    C1639  C1588     1.43854      .   S
    C1640  C1675     1.38180      .   S
    C1640  C1589     1.43854      .   S
    C2061  N2349     1.36686      .   S
    C2062  N2350     1.36686      .   S
    C2060  N2348     1.36686      .   S
    H1626  C1590     0.95075      .   S
    H1625  C1589     0.95075      .   S
    H1624  C1588     0.95075      .   S
    C1676  C1711     1.31386      .   S
    C1675  C1710     1.31386      .   S
    C1674  C1709     1.31386      .   S
    Zn104  O264      1.87392      .   S
    Zn104  O230      1.91203      .   S
    Zn103  O263      1.87392      .   S
    Zn103  O229      1.91203      .   S
    Zn20   O265      1.87392      .   S
    Zn20   O228      1.91203      .   S
    C1589  C1554     1.38417      .   S
    C1588  C1553     1.38417      .   S
    C1590  C1555     1.38417      .   S
    O263   C767      1.34273      .   S
    O264   C768      1.34273      .   S
    O265   C769      1.34273      .   S
    C1711  N2280     1.38928      .   S
    C1711  C1746     1.44525      .   S
    C1709  N2278     1.38928      .   S
    C1709  C1744     1.44525      .   S
    C1710  N2279     1.38928      .   S
    C1710  C1745     1.44525      .   S
    N2348  H2383     0.87926      .   S
    N2348  C2416     1.46938      .   S
    N2349  H2384     0.87926      .   S
    N2349  C2417     1.46938      .   S
    N2350  H2385     0.87926      .   S
    N2350  C2418     1.46938      .   S
    O229   C768      1.22516      .   S
    O230   C769      1.22516      .   S
    O228   C767      1.22516      .   S
    C1555  C1746     1.32211      .   S
    C1555  C1520     1.52151      .   S
    C1554  C1745     1.32211      .   S
    C1554  C1519     1.52151      .   S
    C1553  C1744     1.32211      .   S
    C1553  C1518     1.52151      .   S
    C769   C805      1.47957      .   S
    C767   C803      1.47957      .   S
    C768   C804      1.47957      .   S
    O400   C1519     1.24881      .   S
    O399   C1518     1.24881      .   S
    O401   C1520     1.24881      .   S
    N2280  H2315     0.87878      .   S
    N2280  C2418     1.49425      .   S
    N2279  H2314     0.87878      .   S
    N2279  C2417     1.49425      .   S
    N2278  H2313     0.87878      .   S
    N2278  C2416     1.49425      .   S
    C1745  H1780     0.94598      .   S
    C1746  H1781     0.94598      .   S
    C1744  H1779     0.94598      .   S
    C1518  O438      1.27106      .   S
    C1519  O439      1.27106      .   S
    C1520  O440      1.27106      .   S
    C2418  O511      1.14833      .   S
    C2417  O510      1.14833      .   S
    C2416  O509      1.14833      .   S
    H1106  C530      0.94937      .   S
    H1105  C1058     0.94937      .   S
    H1104  C1057     0.94937      .   S
    C805   C530      1.44574      .   S
    C805   C849      1.37472      .   S
    C803   C1057     1.44574      .   S
    C803   C847      1.37472      .   S
    C804   C1058     1.44574      .   S
    C804   C848      1.37472      .   S
    Zn163  O193      1.88816      .   S
    Zn162  O192      1.88816      .   S
    Zn164  O194      1.88816      .   S
    H883   C848      0.95051      .   S
    C1058  C988      1.43040      .   S
    H884   C849      0.95051      .   S
    C530   C989      1.43040      .   S
    H882   C847      0.95051      .   S
    C1057  C987      1.43040      .   S
    C848   C918      1.41715      .   S
    C849   C919      1.41715      .   S
    C847   C917      1.41715      .   S
    C987   H1022     0.94698      .   S
    C987   C952      1.31172      .   S
    C988   H1023     0.94698      .   S
    C988   C953      1.31172      .   S
    C989   H1024     0.94698      .   S
    C989   C954      1.31172      .   S
    H734   N699      0.88080      .   S
    H732   N697      0.88080      .   S
    H733   N698      0.88080      .   S
    C917   C952      1.42467      .   S
    C917   N627      1.43139      .   S
    C919   C954      1.42467      .   S
    C919   N629      1.43139      .   S
    C918   C953      1.42467      .   S
    C918   N628      1.43139      .   S
    O302   C1141     1.13307      .   S
    O300   C1139     1.13307      .   S
    O301   C1140     1.13307      .   S
    C1141  N699      1.26439      .   S
    C1141  N629      1.46906      .   S
    C1139  N697      1.26439      .   S
    C1139  N627      1.46906  1_565   S
    C1140  N698      1.26439      .   S
    C1140  N628      1.46906  1_455   S
    C952   C1174     1.42151  1_545   S
    C953   C1175     1.42151  1_655   S
    C954   C1176     1.42151      .   S
    N698   C1210     1.47250      .   S
    N699   C1211     1.47250      .   S
    N697   C1209     1.47250      .   S
    N628   H663      0.88291      .   S
    N627   H662      0.88291      .   S
    N629   H664      0.88291      .   S
    O194   Zn66      1.94120  1_545   S
    O193   Zn132     1.94120      .   S
    O192   Zn67      1.94120  1_655   S
    C1176  C1211     1.45249      .   S
    C1176  C1421     1.48748      .   S
    C1174  C1209     1.45249      .   S
    C1174  C1419     1.48748      .   S
    C1175  C1210     1.45249      .   S
    C1175  C1420     1.48748      .   S
    C1209  C1244     1.38515      .   S
    C1210  C1245     1.38515      .   S
    C1211  C1246     1.38515      .   S
    Zn132  O364      1.80628      .   S
    Zn132  O331      1.87734      .   S
    Zn66   O365      1.80628  1_565   S
    Zn66   O329      1.87734      .   S
    Zn67   O366      1.80628  1_455   S
    Zn67   O330      1.87734      .   S
    C1246  H1281     0.94932      .   S
    C1246  C1316     1.43713      .   S
    C1245  H1280     0.94932      .   S
    C1245  C1315     1.43713      .   S
    C1244  H1279     0.94932      .   S
    C1244  C1314     1.43713      .   S
    C1419  H1454     0.95056      .   S
    C1419  C1349     1.28209      .   S
    C1420  H1455     0.95056      .   S
    C1420  C1350     1.28209      .   S
    C1421  H1456     0.95056      .   S
    C1421  C1351     1.28209      .   S
    O365   C1484     1.51592      .   S
    O366   C1485     1.51592      .   S
    O364   C1483     1.51592      .   S
    O329   C1483     1.16042  1_455   S
    O331   C1485     1.16042  1_565   S
    O330   C1484     1.16042      .   S
    C1485  C1310     1.53367      .   S
    C1484  C1309     1.53367      .   S
    C1483  C1308     1.53367      .   S
    H1379  C1344     0.95170      .   S
    H1378  C1343     0.95170      .   S
    H1380  C1345     0.95170      .   S
    C1316  C1351     1.41245      .   S
    C1316  C1491     1.53367      .   S
    C1315  C1350     1.41245      .   S
    C1315  C1490     1.53367      .   S
    C1314  C1349     1.41245      .   S
    C1314  C1489     1.53367      .   S
    C1351  H1386     0.95170      .   S
    C1350  H1385     0.95170      .   S
    C1349  H1384     0.95170      .   S
    C1345  C1310     1.41245      .   S
    C1345  C1415     1.28209      .   S
    C1344  C1309     1.41245      .   S
    C1344  C1414     1.28209      .   S
    C1343  C1308     1.41245      .   S
    C1343  C1413     1.28209      .   S
    C1310  C1240     1.43713      .   S
    C1309  C1239     1.43713      .   S
    C1308  C1238     1.43713      .   S
    C1491  O337      1.16042      .   S
    C1491  O372      1.51592      .   S
    C1489  O335      1.16042      .   S
    C1489  O370      1.51592      .   S
    C1490  O336      1.16042      .   S
    C1490  O371      1.51592      .   S
    O337   Zn140     1.87734      .   S
    O336   Zn142     1.87734      .   S
    O335   Zn141     1.87734      .   S
    H1449  C1414     0.95056      .   S
    H1450  C1415     0.95056      .   S
    H1448  C1413     0.95056      .   S
    O371   Zn141     1.80628      .   S
    O372   Zn142     1.80628      .   S
    O370   Zn140     1.80628      .   S
    H1273  C1238     0.94932  1_455   S
    H1274  C1239     0.94932      .   S
    H1275  C1240     0.94932  1_565   S
    C1413  C1168     1.48748      .   S
    C1414  C1169     1.48748      .   S
    C1415  C1170     1.48748      .   S
    C1238  C1203     1.38515      .   S
    C1239  C1204     1.38515      .   S
    C1240  C1205     1.38515      .   S
    Zn141  O446      1.96104      .   S
    Zn142  O196      1.94120      .   S
    Zn142  O444      1.96104      .   S
    Zn140  O445      1.96104      .   S
    C1203  C1168     1.45249      .   S
    C1203  N691      1.47250      .   S
    C1204  C1169     1.45249      .   S
    C1204  N692      1.47250      .   S
    C1205  C1170     1.45249      .   S
    C1205  N693      1.47250      .   S
    C1170  C948      1.42151      .   S
    C1169  C947      1.42151      .   S
    C1168  C946      1.42151      .   S
    H656   N621      0.88291      .   S
    H657   N622      0.88291      .   S
    H658   N623      0.88291      .   S
    O196   Zn166     1.88816      .   S
    N623   C1135     1.46906      .   S
    N623   C913      1.43139      .   S
    N622   C1134     1.46906      .   S
    N622   C912      1.43139      .   S
    N621   C1133     1.46906      .   S
    N621   C911      1.43139      .   S
    N693   C1135     1.26439      .   S
    N693   H728      0.88080  1_545   S
    N692   C1134     1.26439      .   S
    N692   H727      0.88080      .   S
    N691   C1133     1.26439      .   S
    N691   H726      0.88080  1_655   S
    C948   C913      1.42467      .   S
    C948   C983      1.31172      .   S
    C946   C911      1.42467      .   S
    C946   C981      1.31172      .   S
    C947   C912      1.42467      .   S
    C947   C982      1.31172      .   S
    C1134  O295      1.13307      .   S
    C1135  O296      1.13307  1_545   S
    C1133  O294      1.13307  1_655   S
    C911   C841      1.41715      .   S
    C912   C842      1.41715      .   S
    C913   C843      1.41715      .   S
    H1018  C983      0.94698      .   S
    H1017  C982      0.94698      .   S
    H1016  C981      0.94698      .   S
    O444   C1524     1.27106      .   S
    O445   C1525     1.27106      .   S
    O446   C1526     1.27106      .   S
    C983   C1053     1.43040      .   S
    C982   C1052     1.43040      .   S
    C981   C1051     1.43040      .   S
    O515   C2422     1.14833      .   S
    O516   C2423     1.14833      .   S
    O517   C2424     1.14833      .   S
    C843   H878      0.95051      .   S
    C843   C799      1.37472      .   S
    C842   H877      0.95051      .   S
    C842   C798      1.37472      .   S
    C841   H876      0.95051      .   S
    C841   C797      1.37472      .   S
    H1785  C1750     0.94598      .   S
    H1787  C1752     0.94598      .   S
    H1786  C1751     0.94598      .   S
    C1052  C798      1.44574      .   S
    C1052  H1099     0.94937      .   S
    C1053  C799      1.44574      .   S
    C1053  H1100     0.94937      .   S
    C1051  C797      1.44574      .   S
    C1051  H1098     0.94937      .   S
    Zn166  O407      1.93067      .   S
    Zn166  O405      1.92897      .   S
    Zn166  O406      1.92853      .   S
    C798   C762      1.47957      .   S
    C799   C763      1.47957      .   S
    C797   C761      1.47957      .   S
    C2422  N2284     1.49425      .   S
    C2422  N2354     1.46938      .   S
    C2423  N2285     1.49425      .   S
    C2423  N2355     1.46938      .   S
    C2424  N2286     1.49425      .   S
    C2424  N2356     1.46938      .   S
    C1524  O405      1.24881      .   S
    C1524  C1559     1.52151      .   S
    C1525  O406      1.24881      .   S
    C1525  C1560     1.52151      .   S
    C1526  O407      1.24881      .   S
    C1526  C1561     1.52151      .   S
    C1752  C1561     1.32211      .   S
    C1752  C1717     1.44525      .   S
    C1751  C1560     1.32211      .   S
    C1751  C1716     1.44525      .   S
    C1750  C1559     1.32211      .   S
    C1750  C1715     1.44525      .   S
    H2321  N2286     0.87878      .   S
    H2320  N2285     0.87878      .   S
    H2319  N2284     0.87878      .   S
    N2284  C1715     1.38928      .   S
    N2285  C1716     1.38928      .   S
    N2286  C1717     1.38928      .   S
    C761   O222      1.22516      .   S
    C761   O257      1.34273      .   S
    C762   O223      1.22516      .   S
    C762   O258      1.34273      .   S
    C763   O224      1.22516      .   S
    C763   O259      1.34273      .   S
    C1559  C1594     1.38417      .   S
    C1560  C1595     1.38417      .   S
    C1561  C1596     1.38417      .   S
    H2390  N2355     0.87926      .   S
    H2391  N2356     0.87926      .   S
    H2389  N2354     0.87926      .   S
    O222   Zn99      1.91203      .   S
    O223   Zn97      1.91203      .   S
    O224   Zn98      1.91203      .   S
    N2354  C2066     1.36686      .   S
    N2355  C2067     1.36686      .   S
    N2356  C2068     1.36686      .   S
    C1715  C1680     1.31386      .   S
    C1716  C1681     1.31386      .   S
    C1717  C1682     1.31386      .   S
    O257   Zn97      1.87392      .   S
    O258   Zn98      1.87392      .   S
    O259   Zn99      1.87392      .   S
    C1596  H1632     0.95075      .   S
    C1596  C1647     1.43854      .   S
    C1595  H1631     0.95075      .   S
    C1595  C1646     1.43854      .   S
    C1594  H1630     0.95075      .   S
    C1594  C1645     1.43854      .   S
    Zn99   O548      1.87455      .   S
    Zn97   O179      1.93287      .   S
    Zn97   O550      1.87455      .   S
    Zn98   O179      1.93287      .   S
    Zn98   O549      1.87455      .   S
    C1682  C1647     1.38180      .   S
    C1682  C1822     1.41515      .   S
    C1680  C1645     1.38180      .   S
    C1680  C1820     1.41515      .   S
    C1681  C1646     1.38180      .   S
    C1681  C1821     1.41515      .   S
    C2066  C1820     1.41521      .   S
    C2066  C1995     1.33862      .   S
    C2067  C1821     1.41521      .   S
    C2067  C1996     1.33862      .   S
    C2068  C1822     1.41521      .   S
    C2068  C1997     1.33862      .   S
    C1645  N2109     1.44860      .   S
    C1646  N2110     1.44860      .   S
    C1647  N2111     1.44860      .   S
    H2030  C1995     0.94802      .   S
    H2031  C1996     0.94802      .   S
    H2032  C1997     0.94802      .   S
    C1820  C1855     1.43562      .   S
    C1821  C1856     1.43562      .   S
    C1822  C1857     1.43562      .   S
    C1997  C1962     1.37475      .   S
    C1995  C1960     1.37475      .   S
    C1996  C1961     1.37475      .   S
    O550   C1078     1.19042      .   S
    O549   C1077     1.19042      .   S
    O548   C1076     1.19042      .   S
    O470   C2240     1.12166      .   S
    O471   C2241     1.12166      .   S
    O472   C2242     1.12166      .   S
    H2146  N2111     0.87778      .   S
    H2145  N2110     0.87778      .   S
    H2144  N2109     0.87778      .   S
    N2109  C2249     1.46454      .   S
    N2110  C2250     1.46454      .   S
    N2111  C2251     1.46454      .   S
    H1918  C1883     0.94808      .   S
    H1916  C1881     0.94808      .   S
    H1917  C1882     0.94808      .   S
    H2205  N2170     0.88301      .   S
    H2206  N2171     0.88301      .   S
    H2207  N2172     0.88301      .   S
    C1857  C1892     1.33681      .   S
    C1857  N2181     1.48041      .   S
    C1855  C1890     1.33681      .   S
    C1855  N2179     1.48041      .   S
    C1856  C1891     1.33681      .   S
    C1856  N2180     1.48041      .   S
    C1961  C1891     1.42566      .   S
    C1961  C2049     1.55459      .   S
    C1962  C1892     1.42566      .   S
    C1962  C2050     1.55459      .   S
    C1960  C1890     1.42566      .   S
    C1960  C2048     1.55459      .   S
    C1078  O585      1.33972      .   S
    C1078  C1953     1.55459      .   S
    C1077  O584      1.33972      .   S
    C1077  C1952     1.55459      .   S
    C1076  O583      1.33972      .   S
    C1076  C1951     1.55459      .   S
    Zn77   O585      1.90979      .   S
    Zn77   O584      1.90979      .   S
    Zn77   O583      1.90979      .   S
    C2240  N2170     1.44487      .   S
    C2240  N2100     1.46454      .   S
    C2241  N2171     1.44487      .   S
    C2241  N2101     1.46454      .   S
    C2242  N2172     1.44487      .   S
    C2242  N2102     1.46454      .   S
    O592   Zn74      1.90979      .   S
    O592   C2048     1.33972      .   S
    O593   Zn74      1.90979  1_665   S
    O593   C2049     1.33972      .   S
    O594   Zn74      1.90979  1_565   S
    O594   C2050     1.33972      .   S
    N2172  C1848     1.48041      .   S
    N2171  C1847     1.48041  1_565   S
    N2170  C1846     1.48041  1_455   S
    C1883  C1953     1.42566      .   S
    C1883  C1848     1.33681      .   S
    C1882  C1952     1.42566      .   S
    C1882  C1847     1.33681      .   S
    C1881  C1951     1.42566      .   S
    C1881  C1846     1.33681      .   S
    C1890  H1925     0.94808      .   S
    C1892  H1927     0.94808      .   S
    C1891  H1926     0.94808      .   S
    N2181  C2251     1.44487      .   S
    N2181  H2216     0.88301      .   S
    N2179  C2249     1.44487      .   S
    N2179  H2214     0.88301      .   S
    N2180  C2250     1.44487      .   S
    N2180  H2215     0.88301      .   S
    C2249  O479      1.12166      .   S
    C2250  O480      1.12166      .   S
    C2251  O481      1.12166      .   S
    C2050  O559      1.19042      .   S
    C2048  O557      1.19042      .   S
    C2049  O558      1.19042      .   S
    C1952  C1987     1.37475      .   S
    C1953  C1988     1.37475      .   S
    C1951  C1986     1.37475      .   S
    C1848  C1813     1.43562      .   S
    C1847  C1812     1.43562      .   S
    C1846  C1811     1.43562      .   S
    N2102  H2137     0.87778      .   S
    N2102  C1638     1.44860      .   S
    N2100  H2135     0.87778      .   S
    N2100  C1636     1.44860      .   S
    N2101  H2136     0.87778      .   S
    N2101  C1637     1.44860      .   S
    O557   Zn90      1.87455      .   S
    O558   Zn89      1.87455      .   S
    O559   Zn88      1.87455      .   S
    C1988  H2023     0.94802      .   S
    C1988  C2059     1.33862      .   S
    C1987  H2022     0.94802      .   S
    C1987  C2058     1.33862      .   S
    C1986  H2021     0.94802      .   S
    C1986  C2057     1.33862      .   S
    C1811  C2057     1.41521      .   S
    C1811  C1671     1.41515  1_655   S
    C1812  C2058     1.41521      .   S
    C1812  C1672     1.41515  1_545   S
    C1813  C2059     1.41521      .   S
    C1813  C1673     1.41515      .   S
    O158   Zn89      1.93287  1_445   S
    O158   Zn88      1.93287  1_545   S
    C1637  C1672     1.38180      .   S
    C1637  C1586     1.43854      .   S
    C1638  C1673     1.38180      .   S
    C1638  C1587     1.43854      .   S
    C1636  C1671     1.38180      .   S
    C1636  C1585     1.43854      .   S
    C2057  N2345     1.36686      .   S
    C2059  N2347     1.36686      .   S
    C2058  N2346     1.36686      .   S
    H1623  C1587     0.95075      .   S
    H1622  C1586     0.95075      .   S
    H1621  C1585     0.95075      .   S
    C1671  C1706     1.31386      .   S
    C1672  C1707     1.31386      .   S
    C1673  C1708     1.31386      .   S
    Zn89   O249      1.87392      .   S
    Zn89   O215      1.91203      .   S
    Zn90   O250      1.87392  1_455   S
    Zn90   O213      1.91203      .   S
    Zn88   O248      1.87392  1_565   S
    Zn88   O214      1.91203      .   S
    C1587  C1552     1.38417      .   S
    C1586  C1551     1.38417      .   S
    C1585  C1550     1.38417      .   S
    O250   C754      1.34273      .   S
    O249   C753      1.34273      .   S
    O248   C752      1.34273      .   S
    C1708  N2277     1.38928      .   S
    C1708  C1743     1.44525      .   S
    C1707  N2276     1.38928  1_565   S
    C1707  C1742     1.44525      .   S
    C1706  N2275     1.38928  1_455   S
    C1706  C1741     1.44525      .   S
    N2346  H2381     0.87926      .   S
    N2346  C2414     1.46938      .   S
    N2347  H2382     0.87926      .   S
    N2347  C2415     1.46938      .   S
    N2345  H2380     0.87926      .   S
    N2345  C2413     1.46938      .   S
    O213   C752      1.22516      .   S
    O214   C753      1.22516  1_455   S
    O215   C754      1.22516  1_565   S
    C1550  C1741     1.32211      .   S
    C1550  C1515     1.52151      .   S
    C1551  C1742     1.32211      .   S
    C1551  C1516     1.52151      .   S
    C1552  C1743     1.32211      .   S
    C1552  C1517     1.52151      .   S
    C752   C788      1.47957      .   S
    C753   C789      1.47957      .   S
    C754   C790      1.47957      .   S
    O398   C1517     1.24881      .   S
    O398   Zn161     1.93067      .   S
    O397   C1516     1.24881      .   S
    O397   Zn161     1.92853      .   S
    O396   C1515     1.24881      .   S
    O396   Zn161     1.92897      .   S
    N2275  H2310     0.87878      .   S
    N2275  C2413     1.49425      .   S
    N2277  H2312     0.87878      .   S
    N2277  C2415     1.49425      .   S
    N2276  H2311     0.87878      .   S
    N2276  C2414     1.49425      .   S
    C1741  H1776     0.94598      .   S
    C1742  H1777     0.94598      .   S
    C1743  H1778     0.94598      .   S
    C1517  O437      1.27106      .   S
    C1516  O436      1.27106      .   S
    C1515  O435      1.27106      .   S
    C2413  O506      1.14833      .   S
    C2414  O507      1.14833      .   S
    C2415  O508      1.14833      .   S
    H1089  C1042     0.94937      .   S
    H1090  C1043     0.94937      .   S
    H1091  C1044     0.94937      .   S
    C788   C1042     1.44574      .   S
    C788   C416      1.37472      .   S
    C789   C1043     1.44574      .   S
    C789   C417      1.37472      .   S
    C790   C1044     1.44574      .   S
    C790   C418      1.37472      .   S
    Zn161  O191      1.88816      .   S
    C1043  C973      1.43040      .   S
    C1042  C972      1.43040      .   S
    C1044  C974      1.43040      .   S
    H868   C417      0.95051  1_455   S
    H867   C416      0.95051      .   S
    H869   C418      0.95051  1_565   S
    C416   C902      1.41715      .   S
    C418   C904      1.41715      .   S
    C417   C903      1.41715      .   S
    C974   H1009     0.94698      .   S
    C974   C939      1.31172      .   S
    C973   H1008     0.94698      .   S
    C973   C938      1.31172      .   S
    C972   H1007     0.94698      .   S
    C972   C937      1.31172      .   S
    O437   Zn130     1.96104      .   S
    O436   Zn129     1.96104      .   S
    O435   Zn131     1.96104      .   S
    H719   N684      0.88080      .   S
    H717   N682      0.88080      .   S
    H718   N683      0.88080      .   S
    C904   C939      1.42467      .   S
    C904   N614      1.43139      .   S
    C903   C938      1.42467      .   S
    C903   N613      1.43139      .   S
    C902   C937      1.42467      .   S
    C902   N612      1.43139      .   S
    O287   C1126     1.13307  1_565   S
    O286   C1125     1.13307  1_455   S
    O285   C1124     1.13307      .   S
    C1126  N684      1.26439      .   S
    C1126  N614      1.46906      .   S
    C1124  N682      1.26439      .   S
    C1124  N612      1.46906      .   S
    C1125  N683      1.26439      .   S
    C1125  N613      1.46906      .   S
    C939   C1161     1.42151      .   S
    C938   C1160     1.42151      .   S
    C937   C1159     1.42151      .   S
    N682   C1194     1.47250      .   S
    N684   C1196     1.47250      .   S
    N683   C1195     1.47250      .   S
    N612   H647      0.88291      .   S
    N613   H648      0.88291  1_655   S
    N614   H649      0.88291  1_545   S
    O191   Zn131     1.94120      .   S
    C1159  C1194     1.45249      .   S
    C1159  C1404     1.48748      .   S
    C1160  C1195     1.45249      .   S
    C1160  C1405     1.48748      .   S
    C1161  C1196     1.45249      .   S
    C1161  C1406     1.48748      .   S
    C1194  C1229     1.38515      .   S
    C1195  C1230     1.38515      .   S
    C1196  C1231     1.38515      .   S
    Zn130  O362      1.80628      .   S
    Zn130  O326      1.87734      .   S
    Zn129  O361      1.80628      .   S
    Zn129  O328      1.87734      .   S
    Zn131  O363      1.80628      .   S
    Zn131  O327      1.87734      .   S
    C1229  H1264     0.94932      .   S
    C1229  C1299     1.43713      .   S
    C1230  H1265     0.94932      .   S
    C1230  C1300     1.43713      .   S
    C1231  H1266     0.94932      .   S
    C1231  C1301     1.43713      .   S
    C1404  H1439     0.95056      .   S
    C1404  C1334     1.28209      .   S
    C1406  H1441     0.95056      .   S
    C1406  C1336     1.28209      .   S
    C1405  H1440     0.95056      .   S
    C1405  C1335     1.28209      .   S
    O363   C1482     1.51592      .   S
    O362   C1481     1.51592      .   S
    O361   C1480     1.51592      .   S
    O326   C1480     1.16042      .   S
    O327   C1481     1.16042      .   S
    O328   C1482     1.16042      .   S
    C1300  C1335     1.41245      .   S
    C1301  C1336     1.41245      .   S
    C1299  C1334     1.41245      .   S
    O7     Zn3       1.94240      .   S
    O7     Zn73      1.93287  1_445   S
    O8     Zn5       1.94160      .   S
    O8     Zn85      1.94336      .   S
    O158   Zn74      1.94240      .   S
    O158   Zn90      1.93287      .   S
    O159   Zn75      1.94240      .   S
    O159   Zn93      1.93287  1_445   S
    O178   Zn76      1.94240      .   S
    O178   Zn96      1.93287  1_445   S
    O179   Zn77      1.94240      .   S
    O179   Zn99      1.93287      .   S
    O180   Zn78      1.94240      .   S
    O180   Zn101     1.93287      .   S
    O181   Zn79      1.94240      .   S
    O181   Zn20      1.93287      .   S
    O182   Zn80      1.94240      .   S
    O182   Zn108     1.93287      .   S
    O183   Zn81      1.94240      .   S
    O183   Zn111     1.93287      .   S
    O184   Zn82      1.94240      .   S
    O184   Zn114     1.93287      .   S
    O185   Zn83      1.94240      .   S
    O185   Zn118     1.93287      .   S
    O186   Zn84      1.94240      .   S
    O186   Zn121     1.93287      .   S
    O189   Zn123     1.94160      .   S
    O189   Zn124     1.94336      .   S
    O190   Zn126     1.94160      .   S
    O190   Zn127     1.94336      .   S
    O191   Zn129     1.94160      .   S
    O191   Zn130     1.94336      .   S
    O192   Zn132     1.94160  1_545   S
    O192   Zn66      1.94336  1_645   S
    O192   Zn163     1.88816  1_545   S
    O192   Zn164     1.88816  1_655   S
    O193   Zn66      1.94160  1_655   S
    O193   Zn67      1.94336  1_665   S
    O193   Zn162     1.88816  1_565   S
    O193   Zn164     1.88816  1_665   S
    O194   Zn132     1.94336  1_445   S
    O194   Zn67      1.94160      .   S
    O194   Zn162     1.88816  1_455   S
    O194   Zn163     1.88816  1_445   S
    O195   Zn137     1.94160      .   S
    O195   Zn138     1.94336      .   S
    O196   Zn140     1.94160      .   S
    O196   Zn141     1.94336      .   S
    O197   Zn143     1.94160  1_655   S
    O197   Zn144     1.94336  1_645   S
    O197   Zn168     1.88816  1_655   S
    O197   Zn169     1.88816  1_545   S
    O198   Zn144     1.94160  1_545   S
    O198   Zn145     1.94336  1_445   S
    O198   Zn167     1.88816  1_455   S
    O198   Zn169     1.88816  1_445   S
    O199   Zn143     1.94336  1_665   S
    O199   Zn145     1.94160      .   S
    O199   Zn167     1.88816  1_565   S
    O199   Zn168     1.88816  1_665   S
    O200   Zn146     1.94160      .   S
    O200   Zn147     1.94336      .   S
    O201   Zn149     1.94160  1_455   S
    O201   Zn150     1.94336  1_465   S
    O201   Zn172     1.88816  1_455   S
    O201   Zn173     1.88816  1_565   S
    O202   Zn150     1.94160  1_565   S
    O202   Zn151     1.94336  1_665   S
    O202   Zn171     1.88816  1_655   S
    O202   Zn173     1.88816  1_665   S
    O203   Zn149     1.94336  1_445   S
    O203   Zn151     1.94160      .   S
    O203   Zn171     1.88816  1_545   S
    O203   Zn172     1.88816  1_445   S
    O204   Zn152     1.94160  1_565   S
    O204   Zn153     1.94336  1_465   S
    O204   Zn175     1.88816  1_565   S
    O204   Zn176     1.88816  1_455   S
    O205   Zn153     1.94160  1_455   S
    O205   Zn154     1.94336  1_445   S
    O205   Zn174     1.88816  1_545   S
    O205   Zn176     1.88816  1_445   S
    O206   Zn152     1.94336  1_665   S
    O206   Zn154     1.94160      .   S
    O206   Zn174     1.88816  1_655   S
    O206   Zn175     1.88816  1_665   S
    O105   Zn155     1.94160      .   S
    O105   Zn156     1.94336      .   S
    O399   Zn162     1.92897  1_455   S
    O399   Zn163     1.93067  1_445   S
    O399   Zn164     1.92853      .   S
    O400   Zn162     1.92853  1_565   S
    O400   Zn163     1.92897      .   S
    O400   Zn164     1.93067  1_665   S
    O401   Zn162     1.93067  1_465   S
    O401   Zn163     1.92853  1_455   S
    O401   Zn164     1.92897  1_565   S
    O408   Zn167     1.92897  1_565   S
    O408   Zn168     1.93067  1_665   S
    O408   Zn169     1.92853      .   S
    O409   Zn167     1.92853  1_455   S
    O409   Zn168     1.92897      .   S
    O409   Zn169     1.93067  1_445   S
    O207   Zn167     1.93067  1_465   S
    O207   Zn168     1.92853  1_565   S
    O207   Zn169     1.92897  1_455   S
    O211   Zn171     1.92897  1_545   S
    O211   Zn172     1.93067  1_445   S
    O211   Zn173     1.92853      .   S
    O419   Zn171     1.92853  1_655   S
    O419   Zn172     1.92897      .   S
    O419   Zn173     1.93067  1_665   S
    O420   Zn171     1.93067  1_645   S
    O420   Zn172     1.92853  1_545   S
    O420   Zn173     1.92897  1_655   S
    O421   Zn174     1.92897  1_655   S
    O421   Zn175     1.93067  1_665   S
    O421   Zn176     1.92853      .   S
    O422   Zn174     1.92853  1_545   S
    O422   Zn175     1.92897      .   S
    O422   Zn176     1.93067  1_445   S
    O423   Zn174     1.93067  1_645   S
    O423   Zn175     1.92853  1_655   S
    O423   Zn176     1.92897  1_545   S
    O438   Zn67      1.96104      .   S
    O439   Zn132     1.96104      .   S
    O440   Zn66      1.96104      .   S
    O447   Zn145     1.96104      .   S
    O448   Zn143     1.96104      .   S
    O449   Zn144     1.96104      .   S
    O453   Zn151     1.96104      .   S
    O454   Zn149     1.96104      .   S
    O455   Zn150     1.96104      .   S
    O456   Zn154     1.96104      .   S
    O457   Zn152     1.96104      .   S
    O458   Zn153     1.96104      .   S
