# CIF file generated by openbabel 2.4.90, see http://openbabel.sf.net
data_I
_chemical_name_common ''
_cell_length_a 24.4635
_cell_length_b 24.4635
_cell_length_c 112.996
_cell_angle_alpha 90
_cell_angle_beta 90
_cell_angle_gamma 120
_space_group_name_H-M_alt 'P 1'
_space_group_name_Hall 'P 1'
loop_
    _symmetry_equiv_pos_as_xyz
    x,y,z
loop_
    _atom_site_label
    _atom_site_type_symbol
    _atom_site_fract_x
    _atom_site_fract_y
    _atom_site_fract_z
    _atom_site_occupancy
    Zn0     Zn   0.00000   0.00000   0.57964   1.000
    Zn1     Zn   0.97026   0.05473   0.55658   1.000
    Zn2     Zn   0.24871   0.61158   0.48622   1.000
    Zn3     Zn   0.33330   0.66670   0.46351   1.000
    O4      O    0.00000   0.00000   0.56245   1.000
    O5      O    0.33330   0.66670   0.48022   1.000
    O6      O    0.11610   0.10290   0.54673   1.000
    O7      O    0.03630   0.12460   0.54896   1.000
    O8      O    0.34250   0.55800   0.49357   1.000
    O9      O    0.23500   0.53890   0.49299   1.000
    O10     O    0.38880   0.74920   0.45698   1.000
    O11     O    0.38320   0.80530   0.47220   1.000
    O12     O    0.60870   0.19080   0.40243   1.000
    O13     O    0.63250   0.24990   0.41916   1.000
    Zn14    Zn   0.58220   0.30359   0.77675   1.000
    C15     C    0.08980   0.13260   0.54405   1.000
    C16     C    0.28930   0.52800   0.49590   1.000
    C17     C    0.39810   0.79930   0.46170   1.000
    C18     C    0.61100   0.19650   0.41291   1.000
    Zn19    Zn   0.05509   0.97046   0.81955   1.000
    Zn20    Zn   0.02954   0.08462   0.81955   1.000
    Zn21    Zn   0.94527   0.91553   0.55658   1.000
    Zn22    Zn   0.00000   0.00000   0.92036   1.000
    Zn23    Zn   0.00000   0.00000   0.42036   1.000
    Zn24    Zn   0.00000   0.00000   0.07964   1.000
    Zn25    Zn   0.66667   0.33333   0.91297   1.000
    Zn26    Zn   0.66667   0.33333   0.25369   1.000
    Zn27    Zn   0.66667   0.33333   0.75369   1.000
    Zn28    Zn   0.66667   0.33333   0.41297   1.000
    Zn29    Zn   0.33333   0.66667   0.24631   1.000
    Zn30    Zn   0.33333   0.66667   0.58703   1.000
    Zn31    Zn   0.33333   0.66667   0.08703   1.000
    Zn32    Zn   0.33333   0.66667   0.74631   1.000
    Zn33    Zn   0.38842   0.63713   0.48622   1.000
    Zn34    Zn   0.36287   0.75129   0.48622   1.000
    Zn35    Zn   0.08447   0.02974   0.55658   1.000
    Zn36    Zn   0.05473   0.97026   0.94342   1.000
    Zn37    Zn   0.91553   0.94527   0.94342   1.000
    Zn38    Zn   0.02974   0.08447   0.94342   1.000
    Zn39    Zn   0.02974   0.94527   0.44342   1.000
    Zn40    Zn   0.05473   0.08447   0.44342   1.000
    Zn41    Zn   0.91553   0.97026   0.44342   1.000
    Zn42    Zn   0.94527   0.02974   0.05658   1.000
    Zn43    Zn   0.08447   0.05473   0.05658   1.000
    Zn44    Zn   0.97026   0.91553   0.05658   1.000
    Zn45    Zn   0.63693   0.38806   0.88991   1.000
    Zn46    Zn   0.61194   0.24886   0.88991   1.000
    Zn47    Zn   0.75114   0.36307   0.88991   1.000
    Zn48    Zn   0.72140   0.30359   0.27675   1.000
    Zn49    Zn   0.58220   0.27860   0.27675   1.000
    Zn50    Zn   0.69641   0.41780   0.27675   1.000
    Zn51    Zn   0.69641   0.27860   0.77675   1.000
    Zn52    Zn   0.72140   0.41780   0.77675   1.000
    O53     O    0.66663   0.33337   0.64689   1.000
    O54     O    0.87540   0.91170   0.54896   1.000
    Zn55    Zn   0.61194   0.36307   0.38991   1.000
    Zn56    Zn   0.75114   0.38806   0.38991   1.000
    Zn57    Zn   0.63693   0.24886   0.38991   1.000
    Zn58    Zn   0.30359   0.72140   0.22325   1.000
    Zn59    Zn   0.27860   0.58220   0.22325   1.000
    Zn60    Zn   0.41780   0.69641   0.22325   1.000
    Zn61    Zn   0.38806   0.63693   0.61009   1.000
    Zn62    Zn   0.24886   0.61194   0.61009   1.000
    Zn63    Zn   0.36307   0.75114   0.61009   1.000
    Zn64    Zn   0.36307   0.61194   0.11009   1.000
    Zn65    Zn   0.38806   0.75114   0.11009   1.000
    Zn66    Zn   0.24886   0.63693   0.11009   1.000
    Zn67    Zn   0.27860   0.69641   0.72325   1.000
    Zn68    Zn   0.41780   0.72140   0.72325   1.000
    Zn69    Zn   0.30359   0.58220   0.72325   1.000
    Zn70    Zn   0.66670   0.33330   0.03649   1.000
    Zn71    Zn   0.61158   0.24871   0.01378   1.000
    Zn72    Zn   0.63713   0.38842   0.01378   1.000
    Zn73    Zn   0.75129   0.36287   0.01378   1.000
    Zn74    Zn   0.75129   0.38842   0.51378   1.000
    Zn75    Zn   0.61158   0.36287   0.51378   1.000
    Zn76    Zn   0.63713   0.24871   0.51378   1.000
    Zn77    Zn   0.38842   0.75129   0.98622   1.000
    Zn78    Zn   0.36287   0.61158   0.98622   1.000
    Zn79    Zn   0.24871   0.63713   0.98622   1.000
    Zn80    Zn   0.91538   0.94491   0.81955   1.000
    O81     O    0.75497   0.45793   0.38229   1.000
    O82     O    0.70297   0.24503   0.38229   1.000
    O83     O    0.36963   0.79127   0.21563   1.000
    O84     O    0.20873   0.57837   0.21563   1.000
    Zn85    Zn   0.27825   0.58204   0.34711   1.000
    Zn86    Zn   0.30380   0.72175   0.34711   1.000
    Zn87    Zn   0.41796   0.69620   0.34711   1.000
    Zn88    Zn   0.41796   0.72175   0.84711   1.000
    Zn89    Zn   0.27825   0.69620   0.84711   1.000
    Zn90    Zn   0.30380   0.58204   0.84711   1.000
    Zn91    Zn   0.05509   0.08462   0.31955   1.000
    Zn92    Zn   0.02954   0.94491   0.31955   1.000
    Zn93    Zn   0.91538   0.97046   0.31955   1.000
    Zn94    Zn   0.58204   0.27825   0.15289   1.000
    Zn95    Zn   0.72175   0.30380   0.15289   1.000
    Zn96    Zn   0.69620   0.41796   0.15289   1.000
    Zn97    Zn   0.94491   0.91538   0.68045   1.000
    Zn98    Zn   0.97046   0.05509   0.68045   1.000
    Zn99    Zn   0.08462   0.02954   0.68045   1.000
    Zn100   Zn   0.08462   0.05509   0.18045   1.000
    Zn101   Zn   0.94491   0.02954   0.18045   1.000
    Zn102   Zn   0.97046   0.91538   0.18045   1.000
    Zn103   Zn   0.72175   0.41796   0.65289   1.000
    Zn104   Zn   0.69620   0.27825   0.65289   1.000
    Zn105   Zn   0.58204   0.30380   0.65289   1.000
    O106    O    0.00000   0.00000   0.93755   1.000
    O107    O    0.00000   0.00000   0.43755   1.000
    Zn108   Zn   0.66670   0.33330   0.53649   1.000
    Zn109   Zn   0.33330   0.66670   0.96351   1.000
    Zn110   Zn   0.99997   0.00003   0.79684   1.000
    Zn111   Zn   0.99997   0.99993   0.79684   1.000
    Zn112   Zn   0.00007   0.00003   0.79684   1.000
    Zn113   Zn   0.33337   0.66663   0.36982   1.000
    Zn114   Zn   0.33337   0.66663   0.86982   1.000
    Zn115   Zn   0.99997   0.00003   0.29684   1.000
    Zn116   Zn   0.00007   0.00003   0.29684   1.000
    Zn117   Zn   0.99997   0.99993   0.29684   1.000
    Zn118   Zn   0.66663   0.33337   0.13018   1.000
    Zn119   Zn   0.00003   0.99997   0.70316   1.000
    Zn120   Zn   0.99993   0.99997   0.70316   1.000
    Zn121   Zn   0.00003   0.00007   0.70316   1.000
    Zn122   Zn   0.00003   0.99997   0.20316   1.000
    Zn123   Zn   0.00003   0.00007   0.20316   1.000
    Zn124   Zn   0.99993   0.99997   0.20316   1.000
    Zn125   Zn   0.66663   0.33337   0.63018   1.000
    O126    O    0.00000   0.00000   0.06245   1.000
    O127    O    0.66667   0.33333   0.89578   1.000
    O128    O    0.66667   0.33333   0.27088   1.000
    O129    O    0.66667   0.33333   0.77088   1.000
    O130    O    0.66667   0.33333   0.39578   1.000
    O131    O    0.33333   0.66667   0.22912   1.000
    O132    O    0.33333   0.66667   0.60422   1.000
    O133    O    0.33333   0.66667   0.10422   1.000
    O134    O    0.33333   0.66667   0.72912   1.000
    O135    O    0.89710   0.01320   0.54673   1.000
    O136    O    0.98680   0.88390   0.54673   1.000
    O137    O    0.66670   0.33330   0.01978   1.000
    O138    O    0.66670   0.33330   0.51978   1.000
    O139    O    0.33330   0.66670   0.98022   1.000
    O140    O    0.99997   0.00003   0.81355   1.000
    O141    O    0.99997   0.99993   0.81355   1.000
    O142    O    0.00007   0.00003   0.81355   1.000
    O143    O    0.33337   0.66663   0.35311   1.000
    O144    O    0.33337   0.66663   0.85311   1.000
    O145    O    0.99997   0.00003   0.31355   1.000
    O146    O    0.00007   0.00003   0.31355   1.000
    O147    O    0.99997   0.99993   0.31355   1.000
    O148    O    0.66663   0.33337   0.14689   1.000
    O149    O    0.00003   0.99997   0.68645   1.000
    O150    O    0.99993   0.99997   0.68645   1.000
    O151    O    0.00003   0.00007   0.68645   1.000
    O152    O    0.00003   0.99997   0.18645   1.000
    O153    O    0.00003   0.00007   0.18645   1.000
    O154    O    0.99993   0.99997   0.18645   1.000
    O155    O    0.05547   0.97293   0.29031   1.000
    O156    O    0.72213   0.41587   0.12365   1.000
    O157    O    0.58413   0.30627   0.12365   1.000
    O158    O    0.69373   0.27787   0.12365   1.000
    O159    O    0.08253   0.05547   0.70969   1.000
    O160    O    0.08830   0.96370   0.54896   1.000
    O161    O    0.10290   0.11610   0.95327   1.000
    O162    O    0.01320   0.89710   0.95327   1.000
    O163    O    0.88390   0.98680   0.95327   1.000
    O164    O    0.88390   0.89710   0.45327   1.000
    O165    O    0.10290   0.98680   0.45327   1.000
    O166    O    0.01320   0.11610   0.45327   1.000
    O167    O    0.89710   0.88390   0.04673   1.000
    O168    O    0.98680   0.10290   0.04673   1.000
    O169    O    0.11610   0.01320   0.04673   1.000
    O170    O    0.78277   0.43623   0.88006   1.000
    O171    O    0.56377   0.34653   0.88006   1.000
    O172    O    0.65347   0.21723   0.88006   1.000
    O173    O    0.76957   0.44943   0.28660   1.000
    O174    O    0.67987   0.23043   0.28660   1.000
    O175    O    0.55057   0.32013   0.28660   1.000
    O176    O    0.55057   0.23043   0.78660   1.000
    O177    O    0.76957   0.32013   0.78660   1.000
    O178    O    0.67987   0.44943   0.78660   1.000
    O179    O    0.56377   0.21723   0.38006   1.000
    O180    O    0.65347   0.43623   0.38006   1.000
    O181    O    0.78277   0.34653   0.38006   1.000
    O182    O    0.44943   0.76957   0.21340   1.000
    O183    O    0.23043   0.67987   0.21340   1.000
    O184    O    0.32013   0.55057   0.21340   1.000
    O185    O    0.43623   0.78277   0.61994   1.000
    O186    O    0.34653   0.56377   0.61994   1.000
    O187    O    0.21723   0.65347   0.61994   1.000
    O188    O    0.21723   0.56377   0.11994   1.000
    O189    O    0.43623   0.65347   0.11994   1.000
    O190    O    0.34653   0.78277   0.11994   1.000
    O191    O    0.23043   0.55057   0.71340   1.000
    O192    O    0.32013   0.76957   0.71340   1.000
    O193    O    0.44943   0.67987   0.71340   1.000
    O194    O    0.12460   0.03630   0.95104   1.000
    O195    O    0.91170   0.87540   0.95104   1.000
    O196    O    0.96370   0.08830   0.95104   1.000
    O197    O    0.96370   0.87540   0.45104   1.000
    O198    O    0.12460   0.08830   0.45104   1.000
    O199    O    0.91170   0.03630   0.45104   1.000
    O200    O    0.87540   0.96370   0.04896   1.000
    O201    O    0.08830   0.12460   0.04896   1.000
    O202    O    0.03630   0.91170   0.04896   1.000
    O203    O    0.70297   0.45793   0.88229   1.000
    O204    O    0.54207   0.24503   0.88229   1.000
    O205    O    0.75497   0.29703   0.88229   1.000
    O206    O    0.79127   0.36963   0.28437   1.000
    O207    O    0.57837   0.20873   0.28437   1.000
    O208    O    0.63037   0.42163   0.28437   1.000
    O209    O    0.63037   0.20873   0.78437   1.000
    O210    O    0.79127   0.42163   0.78437   1.000
    O211    O    0.57837   0.36963   0.78437   1.000
    O212    O    0.54207   0.29703   0.38229   1.000
    O213    O    0.75010   0.38260   0.41916   1.000
    O214    O    0.61740   0.36750   0.41916   1.000
    O215    O    0.80920   0.41790   0.40243   1.000
    O216    O    0.42163   0.63037   0.21563   1.000
    O217    O    0.45793   0.70297   0.61771   1.000
    O218    O    0.24503   0.54207   0.61771   1.000
    O219    O    0.29703   0.75497   0.61771   1.000
    O220    O    0.29703   0.54207   0.11771   1.000
    O221    O    0.45793   0.75497   0.11771   1.000
    O222    O    0.24503   0.70297   0.11771   1.000
    O223    O    0.20873   0.63037   0.71563   1.000
    O224    O    0.42163   0.79127   0.71563   1.000
    O225    O    0.36963   0.57837   0.71563   1.000
    O226    O    0.44200   0.78450   0.49357   1.000
    O227    O    0.21550   0.65750   0.49357   1.000
    O228    O    0.46110   0.69610   0.49299   1.000
    O229    O    0.30390   0.76500   0.49299   1.000
    O230    O    0.55800   0.34250   0.00643   1.000
    O231    O    0.78450   0.44200   0.00643   1.000
    O232    O    0.65750   0.21550   0.00643   1.000
    O233    O    0.65750   0.44200   0.50643   1.000
    O234    O    0.55800   0.21550   0.50643   1.000
    O235    O    0.78450   0.34250   0.50643   1.000
    O236    O    0.44200   0.65750   0.99357   1.000
    O237    O    0.21550   0.55800   0.99357   1.000
    O238    O    0.34250   0.78450   0.99357   1.000
    O239    O    0.00917   0.89133   0.82690   1.000
    O240    O    0.10867   0.11783   0.82690   1.000
    O241    O    0.88217   0.99083   0.82690   1.000
    O242    O    0.22467   0.67583   0.33976   1.000
    O243    O    0.45117   0.77533   0.33976   1.000
    O244    O    0.32417   0.54883   0.33976   1.000
    O245    O    0.32417   0.77533   0.83976   1.000
    O246    O    0.22467   0.54883   0.83976   1.000
    O247    O    0.45117   0.67583   0.83976   1.000
    O248    O    0.10867   0.99083   0.32690   1.000
    O249    O    0.88217   0.89133   0.32690   1.000
    O250    O    0.00917   0.11783   0.32690   1.000
    O251    O    0.67583   0.22467   0.16024   1.000
    O252    O    0.77533   0.45117   0.16024   1.000
    O253    O    0.54883   0.32417   0.16024   1.000
    O254    O    0.89133   0.00917   0.67310   1.000
    O255    O    0.11783   0.10867   0.67310   1.000
    O256    O    0.99083   0.88217   0.67310   1.000
    O257    O    0.99083   0.10867   0.17310   1.000
    O258    O    0.89133   0.88217   0.17310   1.000
    O259    O    0.11783   0.00917   0.17310   1.000
    O260    O    0.77533   0.32417   0.66024   1.000
    O261    O    0.54883   0.22467   0.66024   1.000
    O262    O    0.67583   0.45117   0.66024   1.000
    O263    O    0.25080   0.63960   0.45698   1.000
    O264    O    0.36040   0.61120   0.45698   1.000
    O265    O    0.53890   0.23500   0.00701   1.000
    O266    O    0.69610   0.46110   0.00701   1.000
    O267    O    0.76500   0.30390   0.00701   1.000
    O268    O    0.76500   0.46110   0.50701   1.000
    O269    O    0.53890   0.30390   0.50701   1.000
    O270    O    0.69610   0.23500   0.50701   1.000
    O271    O    0.46110   0.76500   0.99299   1.000
    O272    O    0.30390   0.53890   0.99299   1.000
    O273    O    0.23500   0.69610   0.99299   1.000
    O274    O    0.90167   0.87223   0.82632   1.000
    O275    O    0.12777   0.02943   0.82632   1.000
    O276    O    0.97057   0.09833   0.82632   1.000
    O277    O    0.20557   0.56833   0.34034   1.000
    O278    O    0.36277   0.79443   0.34034   1.000
    O279    O    0.43167   0.63723   0.34034   1.000
    O280    O    0.43167   0.79443   0.84034   1.000
    O281    O    0.20557   0.63723   0.84034   1.000
    O282    O    0.36277   0.56833   0.84034   1.000
    O283    O    0.12777   0.09833   0.32632   1.000
    O284    O    0.97057   0.87223   0.32632   1.000
    O285    O    0.90167   0.02943   0.32632   1.000
    O286    O    0.56833   0.20557   0.15966   1.000
    O287    O    0.79443   0.36277   0.15966   1.000
    O288    O    0.63723   0.43167   0.15966   1.000
    O289    O    0.87223   0.90167   0.67368   1.000
    O290    O    0.02943   0.12777   0.67368   1.000
    O291    O    0.09833   0.97057   0.67368   1.000
    O292    O    0.09833   0.12777   0.17368   1.000
    O293    O    0.87223   0.97057   0.17368   1.000
    O294    O    0.02943   0.90167   0.17368   1.000
    O295    O    0.79443   0.43167   0.65966   1.000
    O296    O    0.63723   0.20557   0.65966   1.000
    O297    O    0.56833   0.36277   0.65966   1.000
    O298    O    0.19470   0.57790   0.47220   1.000
    O299    O    0.42210   0.61680   0.47220   1.000
    O300    O    0.74920   0.38880   0.04302   1.000
    O301    O    0.63960   0.25080   0.04302   1.000
    O302    O    0.61120   0.36040   0.04302   1.000
    O303    O    0.61120   0.25080   0.54302   1.000
    O304    O    0.74920   0.36040   0.54302   1.000
    O305    O    0.63960   0.38880   0.54302   1.000
    O306    O    0.25080   0.61120   0.95698   1.000
    O307    O    0.36040   0.74920   0.95698   1.000
    O308    O    0.38880   0.63960   0.95698   1.000
    O309    O    0.05547   0.08253   0.79031   1.000
    O310    O    0.91747   0.97293   0.79031   1.000
    O311    O    0.02707   0.94453   0.79031   1.000
    O312    O    0.41587   0.72213   0.37635   1.000
    O313    O    0.30627   0.58413   0.37635   1.000
    O314    O    0.27787   0.69373   0.37635   1.000
    O315    O    0.27787   0.58413   0.87635   1.000
    O316    O    0.41587   0.69373   0.87635   1.000
    O317    O    0.30627   0.72213   0.87635   1.000
    O318    O    0.91747   0.94453   0.29031   1.000
    O319    O    0.02707   0.08253   0.29031   1.000
    O320    O    0.97293   0.91747   0.70969   1.000
    O321    O    0.94453   0.02707   0.70969   1.000
    O322    O    0.94453   0.91747   0.20969   1.000
    O323    O    0.08253   0.02707   0.20969   1.000
    O324    O    0.97293   0.05547   0.20969   1.000
    O325    O    0.58413   0.27787   0.62365   1.000
    O326    O    0.69373   0.41587   0.62365   1.000
    O327    O    0.72213   0.30627   0.62365   1.000
    O328    O    0.80530   0.38320   0.02780   1.000
    O329    O    0.57790   0.19470   0.02780   1.000
    O330    O    0.61680   0.42210   0.02780   1.000
    O331    O    0.61680   0.19470   0.52780   1.000
    O332    O    0.80530   0.42210   0.52780   1.000
    O333    O    0.57790   0.38320   0.52780   1.000
    O334    O    0.19470   0.61680   0.97220   1.000
    O335    O    0.42210   0.80530   0.97220   1.000
    O336    O    0.38320   0.57790   0.97220   1.000
    O337    O    0.04987   0.13863   0.80553   1.000
    O338    O    0.86137   0.91123   0.80553   1.000
    O339    O    0.08877   0.95013   0.80553   1.000
    O340    O    0.47197   0.71653   0.36113   1.000
    O341    O    0.24457   0.52803   0.36113   1.000
    O342    O    0.28347   0.75543   0.36113   1.000
    O343    O    0.28347   0.52803   0.86113   1.000
    O344    O    0.47197   0.75543   0.86113   1.000
    O345    O    0.24457   0.71653   0.86113   1.000
    O346    O    0.86137   0.95013   0.30553   1.000
    O347    O    0.08877   0.13863   0.30553   1.000
    O348    O    0.04987   0.91123   0.30553   1.000
    O349    O    0.71653   0.47197   0.13887   1.000
    O350    O    0.52803   0.24457   0.13887   1.000
    O351    O    0.75543   0.28347   0.13887   1.000
    O352    O    0.13863   0.04987   0.69447   1.000
    O353    O    0.91123   0.86137   0.69447   1.000
    O354    O    0.95013   0.08877   0.69447   1.000
    O355    O    0.95013   0.86137   0.19447   1.000
    O356    O    0.13863   0.08877   0.19447   1.000
    O357    O    0.91123   0.04987   0.19447   1.000
    O358    O    0.52803   0.28347   0.63887   1.000
    O359    O    0.75543   0.47197   0.63887   1.000
    O360    O    0.71653   0.24457   0.63887   1.000
    O361    O    0.58210   0.39130   0.40243   1.000
    O362    O    0.19080   0.60870   0.09757   1.000
    O363    O    0.41790   0.80920   0.09757   1.000
    O364    O    0.39130   0.58210   0.09757   1.000
    O365    O    0.39130   0.80920   0.59757   1.000
    O366    O    0.19080   0.58210   0.59757   1.000
    O367    O    0.41790   0.60870   0.59757   1.000
    O368    O    0.80920   0.39130   0.90243   1.000
    O369    O    0.58210   0.19080   0.90243   1.000
    O370    O    0.60870   0.41790   0.90243   1.000
    O371    O    0.27537   0.52413   0.73576   1.000
    O372    O    0.47587   0.75123   0.73576   1.000
    O373    O    0.24877   0.72463   0.73576   1.000
    O374    O    0.85747   0.94203   0.43090   1.000
    O375    O    0.08457   0.14253   0.43090   1.000
    O376    O    0.05797   0.91543   0.43090   1.000
    O377    O    0.05797   0.14253   0.93090   1.000
    O378    O    0.85747   0.91543   0.93090   1.000
    O379    O    0.08457   0.94203   0.93090   1.000
    O380    O    0.47587   0.72463   0.23576   1.000
    O381    O    0.24877   0.52413   0.23576   1.000
    O382    O    0.27537   0.75123   0.23576   1.000
    O383    O    0.94203   0.85747   0.06910   1.000
    O384    O    0.14253   0.08457   0.06910   1.000
    O385    O    0.91543   0.05797   0.06910   1.000
    O386    O    0.52413   0.27537   0.76424   1.000
    O387    O    0.75123   0.47587   0.76424   1.000
    O388    O    0.72463   0.24877   0.76424   1.000
    O389    O    0.72463   0.47587   0.26424   1.000
    O390    O    0.52413   0.24877   0.26424   1.000
    O391    O    0.75123   0.27537   0.26424   1.000
    O392    O    0.14253   0.05797   0.56910   1.000
    O393    O    0.91543   0.85747   0.56910   1.000
    O394    O    0.94203   0.08457   0.56910   1.000
    O395    O    0.24990   0.63250   0.08084   1.000
    O396    O    0.38260   0.75010   0.08084   1.000
    O397    O    0.36750   0.61740   0.08084   1.000
    O398    O    0.36750   0.75010   0.58084   1.000
    O399    O    0.24990   0.61740   0.58084   1.000
    O400    O    0.38260   0.63250   0.58084   1.000
    O401    O    0.75010   0.36750   0.91916   1.000
    O402    O    0.61740   0.24990   0.91916   1.000
    O403    O    0.63250   0.38260   0.91916   1.000
    O404    O    0.29917   0.58323   0.75249   1.000
    O405    O    0.41677   0.71593   0.75249   1.000
    O406    O    0.28407   0.70083   0.75249   1.000
    O407    O    0.91657   0.96583   0.41417   1.000
    O408    O    0.04927   0.08343   0.41417   1.000
    O409    O    0.03417   0.95073   0.41417   1.000
    O410    O    0.03417   0.08343   0.91417   1.000
    O411    O    0.91657   0.95073   0.91417   1.000
    O412    O    0.04927   0.96583   0.91417   1.000
    O413    O    0.41677   0.70083   0.25249   1.000
    O414    O    0.28407   0.58323   0.25249   1.000
    O415    O    0.29917   0.71593   0.25249   1.000
    O416    O    0.96583   0.91657   0.08583   1.000
    O417    O    0.08343   0.04927   0.08583   1.000
    O418    O    0.95073   0.03417   0.08583   1.000
    O419    O    0.58323   0.29917   0.74751   1.000
    O420    O    0.71593   0.41677   0.74751   1.000
    O421    O    0.70083   0.28407   0.74751   1.000
    O422    O    0.70083   0.41677   0.24751   1.000
    O423    O    0.58323   0.28407   0.24751   1.000
    O424    O    0.71593   0.29917   0.24751   1.000
    O425    O    0.08343   0.03417   0.58583   1.000
    O426    O    0.95073   0.91657   0.58583   1.000
    O427    O    0.96583   0.04927   0.58583   1.000
    C428    C    0.86740   0.95720   0.54405   1.000
    C429    C    0.04280   0.91020   0.54405   1.000
    C430    C    0.13260   0.08980   0.95595   1.000
    C431    C    0.95720   0.86740   0.95595   1.000
    C432    C    0.91020   0.04280   0.95595   1.000
    C433    C    0.91020   0.86740   0.45595   1.000
    C434    C    0.13260   0.04280   0.45595   1.000
    C435    C    0.95720   0.08980   0.45595   1.000
    C436    C    0.86740   0.91020   0.04405   1.000
    C437    C    0.04280   0.13260   0.04405   1.000
    C438    C    0.08980   0.95720   0.04405   1.000
    C439    C    0.75647   0.46593   0.87738   1.000
    C440    C    0.53407   0.29053   0.87738   1.000
    C441    C    0.70947   0.24353   0.87738   1.000
    C442    C    0.79927   0.42313   0.28928   1.000
    C443    C    0.62387   0.20073   0.28928   1.000
    C444    C    0.57687   0.37613   0.28928   1.000
    C445    C    0.57687   0.20073   0.78928   1.000
    C446    C    0.79927   0.37613   0.78928   1.000
    C447    C    0.62387   0.42313   0.78928   1.000
    C448    C    0.53407   0.24353   0.37738   1.000
    C449    C    0.70947   0.46593   0.37738   1.000
    C450    C    0.75647   0.29053   0.37738   1.000
    C451    C    0.42313   0.79927   0.21072   1.000
    C452    C    0.20073   0.62387   0.21072   1.000
    C453    C    0.37613   0.57687   0.21072   1.000
    C454    C    0.46593   0.75647   0.62262   1.000
    C455    C    0.29053   0.53407   0.62262   1.000
    C456    C    0.24353   0.70947   0.62262   1.000
    C457    C    0.24353   0.53407   0.12262   1.000
    C458    C    0.46593   0.70947   0.12262   1.000
    C459    C    0.29053   0.75647   0.12262   1.000
    C460    C    0.20073   0.57687   0.71072   1.000
    C461    C    0.37613   0.79927   0.71072   1.000
    C462    C    0.42313   0.62387   0.71072   1.000
    C463    C    0.80350   0.41450   0.41291   1.000
    C464    C    0.58550   0.38900   0.41291   1.000
    C465    C    0.19650   0.61100   0.08709   1.000
    C466    C    0.41450   0.80350   0.08709   1.000
    C467    C    0.38900   0.58550   0.08709   1.000
    C468    C    0.38900   0.80350   0.58709   1.000
    C469    C    0.19650   0.58550   0.58709   1.000
    C470    C    0.41450   0.61100   0.58709   1.000
    C471    C    0.80350   0.38900   0.91291   1.000
    C472    C    0.58550   0.19650   0.91291   1.000
    C473    C    0.61100   0.41450   0.91291   1.000
    C474    C    0.27767   0.52983   0.74624   1.000
    C475    C    0.47017   0.74783   0.74624   1.000
    C476    C    0.25217   0.72233   0.74624   1.000
    C477    C    0.86317   0.94433   0.42042   1.000
    C478    C    0.08117   0.13683   0.42042   1.000
    C479    C    0.05567   0.91883   0.42042   1.000
    C480    C    0.47200   0.76130   0.49590   1.000
    C481    C    0.23870   0.71070   0.49590   1.000
    C482    C    0.20070   0.59880   0.46170   1.000
    C483    C    0.40120   0.60190   0.46170   1.000
    C484    C    0.52800   0.28930   0.00410   1.000
    C485    C    0.76130   0.47200   0.00410   1.000
    C486    C    0.71070   0.23870   0.00410   1.000
    C487    C    0.71070   0.47200   0.50410   1.000
    C488    C    0.52800   0.23870   0.50410   1.000
    C489    C    0.76130   0.28930   0.50410   1.000
    C490    C    0.47200   0.71070   0.99590   1.000
    C491    C    0.23870   0.52800   0.99590   1.000
    C492    C    0.28930   0.76130   0.99590   1.000
    C493    C    0.95597   0.86133   0.82923   1.000
    C494    C    0.13867   0.09463   0.82923   1.000
    C495    C    0.90537   0.04403   0.82923   1.000
    C496    C    0.19467   0.62263   0.33743   1.000
    C497    C    0.42797   0.80533   0.33743   1.000
    C498    C    0.37737   0.57203   0.33743   1.000
    C499    C    0.37737   0.80533   0.83743   1.000
    C500    C    0.19467   0.57203   0.83743   1.000
    C501    C    0.42797   0.62263   0.83743   1.000
    C502    C    0.13867   0.04403   0.32923   1.000
    C503    C    0.90537   0.86133   0.32923   1.000
    C504    C    0.95597   0.09463   0.32923   1.000
    C505    C    0.62263   0.19467   0.16257   1.000
    C506    C    0.80533   0.42797   0.16257   1.000
    C507    C    0.57203   0.37737   0.16257   1.000
    C508    C    0.86133   0.95597   0.67077   1.000
    C509    C    0.09463   0.13867   0.67077   1.000
    C510    C    0.04403   0.90537   0.67077   1.000
    C511    C    0.04403   0.13867   0.17077   1.000
    C512    C    0.86133   0.90537   0.17077   1.000
    C513    C    0.09463   0.95597   0.17077   1.000
    C514    C    0.80533   0.37737   0.66257   1.000
    C515    C    0.57203   0.19467   0.66257   1.000
    C516    C    0.62263   0.42797   0.66257   1.000
    C517    C    0.79930   0.39810   0.03830   1.000
    C518    C    0.59880   0.20070   0.03830   1.000
    C519    C    0.60190   0.40120   0.03830   1.000
    C520    C    0.60190   0.20070   0.53830   1.000
    C521    C    0.79930   0.40120   0.53830   1.000
    C522    C    0.59880   0.39810   0.53830   1.000
    C523    C    0.20070   0.60190   0.96170   1.000
    C524    C    0.40120   0.79930   0.96170   1.000
    C525    C    0.39810   0.59880   0.96170   1.000
    C526    C    0.06477   0.13263   0.79503   1.000
    C527    C    0.86737   0.93213   0.79503   1.000
    C528    C    0.06787   0.93523   0.79503   1.000
    C529    C    0.46597   0.73143   0.37163   1.000
    C530    C    0.26547   0.53403   0.37163   1.000
    C531    C    0.26857   0.73453   0.37163   1.000
    C532    C    0.26857   0.53403   0.87163   1.000
    C533    C    0.46597   0.73453   0.87163   1.000
    C534    C    0.26547   0.73143   0.87163   1.000
    C535    C    0.86737   0.93523   0.29503   1.000
    C536    C    0.06787   0.13263   0.29503   1.000
    C537    C    0.06477   0.93213   0.29503   1.000
    C538    C    0.73143   0.46597   0.12837   1.000
    C539    C    0.53403   0.26547   0.12837   1.000
    C540    C    0.73453   0.26857   0.12837   1.000
    C541    C    0.13263   0.06477   0.70497   1.000
    C542    C    0.93213   0.86737   0.70497   1.000
    C543    C    0.93523   0.06787   0.70497   1.000
    C544    C    0.93523   0.86737   0.20497   1.000
    C545    C    0.13263   0.06787   0.20497   1.000
    C546    C    0.93213   0.06477   0.20497   1.000
    C547    C    0.53403   0.26857   0.62837   1.000
    C548    C    0.73453   0.46597   0.62837   1.000
    C549    C    0.73143   0.26547   0.62837   1.000
    C550    C    0.05567   0.13683   0.92042   1.000
    C551    C    0.86317   0.91883   0.92042   1.000
    C552    C    0.08117   0.94433   0.92042   1.000
    C553    C    0.47017   0.72233   0.24624   1.000
    C554    C    0.25217   0.52983   0.24624   1.000
    C555    C    0.27767   0.74783   0.24624   1.000
    C556    C    0.94433   0.86317   0.07958   1.000
    C557    C    0.13683   0.08117   0.07958   1.000
    C558    C    0.91883   0.05567   0.07958   1.000
    C559    C    0.52983   0.27767   0.75376   1.000
    C560    C    0.74783   0.47017   0.75376   1.000
    C561    C    0.72233   0.25217   0.75376   1.000
    C562    C    0.72233   0.47017   0.25376   1.000
    C563    C    0.52983   0.25217   0.25376   1.000
    C564    C    0.74783   0.27767   0.25376   1.000
    C565    C    0.13683   0.05567   0.57958   1.000
    C566    C    0.91883   0.86317   0.57958   1.000
    C567    C    0.94433   0.08117   0.57958   1.000
loop_
    _geom_bond_atom_site_label_1
    _geom_bond_atom_site_label_2
    _geom_bond_distance
    _geom_bond_site_symmetry_2
    _ccdc_geom_bond_type
    C484   O230      1.16042      .   S
    C484   O265      1.51592      .   S
    C486   O232      1.16042      .   S
    C486   O267      1.51592      .   S
    C485   O231      1.16042      .   S
    C485   O266      1.51592      .   S
    O231   Zn73      1.87734      .   S
    O232   Zn71      1.87734      .   S
    O230   Zn72      1.87734      .   S
    O265   Zn71      1.80628      .   S
    O266   Zn72      1.80628      .   S
    O267   Zn73      1.80628      .   S
    Zn71   O329      1.96104      .   S
    Zn72   O330      1.96104      .   S
    Zn73   O137      1.94120      .   S
    Zn73   O328      1.96104      .   S
    O137   Zn70      1.88816      .   S
    O330   C519      1.27106      .   S
    O329   C518      1.27106      .   S
    O328   C517      1.27106      .   S
    Zn70   O301      1.92853      .   S
    Zn70   O300      1.92897      .   S
    Zn70   O302      1.93067      .   S
    C519   O302      1.24881      .   S
    C518   O301      1.24881      .   S
    C517   O300      1.24881      .   S
    C436   O167      1.22516      .   S
    C436   O200      1.34273      .   S
    C437   O168      1.22516  1_455   S
    C437   O201      1.34273      .   S
    C438   O169      1.22516  1_565   S
    C438   O202      1.34273      .   S
    O168   Zn42      1.91203      .   S
    O167   Zn44      1.91203      .   S
    O169   Zn43      1.91203      .   S
    O200   Zn42      1.87392  1_565   S
    O201   Zn43      1.87392      .   S
    O202   Zn44      1.87392  1_455   S
    Zn44   O383      1.87455      .   S
    Zn43   O126      1.93287      .   S
    Zn43   O384      1.87455      .   S
    Zn42   O126      1.93287  1_655   S
    Zn42   O385      1.87455      .   S
    O384   C557      1.19042      .   S
    O383   C556      1.19042      .   S
    O385   C558      1.19042      .   S
    C558   O418      1.33972      .   S
    C557   O417      1.33972      .   S
    C556   O416      1.33972      .   S
    Zn24   O418      1.90979  1_455   S
    Zn24   O417      1.90979      .   S
    Zn24   O416      1.90979  1_445   S
    O397   Zn31      1.90979      .   S
    O397   C467      1.33972      .   S
    O396   Zn31      1.90979      .   S
    O396   C466      1.33972      .   S
    O395   Zn31      1.90979      .   S
    O395   C465      1.33972      .   S
    C467   O364      1.19042      .   S
    C466   O363      1.19042      .   S
    C465   O362      1.19042      .   S
    O364   Zn64      1.87455      .   S
    O362   Zn66      1.87455      .   S
    O363   Zn65      1.87455      .   S
    O133   Zn64      1.93287      .   S
    O133   Zn65      1.93287      .   S
    Zn64   O220      1.87392      .   S
    Zn64   O189      1.91203      .   S
    Zn66   O222      1.87392      .   S
    Zn66   O188      1.91203      .   S
    Zn65   O221      1.87392      .   S
    Zn65   O190      1.91203      .   S
    O221   C458      1.34273      .   S
    O222   C459      1.34273      .   S
    O220   C457      1.34273      .   S
    O190   C459      1.22516      .   S
    O188   C457      1.22516      .   S
    O189   C458      1.22516      .   S
    O158   C540      1.24881      .   S
    O158   Zn118     1.93067      .   S
    O157   C539      1.24881      .   S
    O157   Zn118     1.92853      .   S
    O156   C538      1.24881      .   S
    O156   Zn118     1.92897      .   S
    C539   O350      1.27106      .   S
    C540   O351      1.27106      .   S
    C538   O349      1.27106      .   S
    Zn118  O148      1.88816      .   S
    O351   Zn95      1.96104      .   S
    O350   Zn94      1.96104      .   S
    O349   Zn96      1.96104      .   S
    O148   Zn96      1.94120      .   S
    Zn96   O288      1.80628      .   S
    Zn96   O252      1.87734      .   S
    Zn95   O287      1.80628      .   S
    Zn95   O251      1.87734      .   S
    Zn94   O286      1.80628      .   S
    Zn94   O253      1.87734      .   S
    O288   C507      1.51592      .   S
    O287   C506      1.51592      .   S
    O286   C505      1.51592      .   S
    O253   C507      1.16042      .   S
    O252   C506      1.16042      .   S
    O251   C505      1.16042      .   S
    C513   O259      1.16042  1_565   S
    C513   O294      1.51592      .   S
    C512   O258      1.16042      .   S
    C512   O293      1.51592      .   S
    C511   O257      1.16042  1_455   S
    C511   O292      1.51592      .   S
    O259   Zn100     1.87734      .   S
    O258   Zn102     1.87734      .   S
    O257   Zn101     1.87734      .   S
    O294   Zn102     1.80628  1_455   S
    O292   Zn100     1.80628      .   S
    O293   Zn101     1.80628  1_565   S
    Zn100  O153      1.94120      .   S
    Zn101  O154      1.94120  1_545   S
    Zn102  O152      1.94120  1_655   S
    O154   Zn124     1.88816      .   S
    O153   Zn123     1.88816      .   S
    O152   Zn122     1.88816      .   S
    O357   C546      1.27106      .   S
    O355   C544      1.27106      .   S
    O356   C545      1.27106      .   S
    C545   O323      1.24881      .   S
    C546   O324      1.24881      .   S
    C544   O322      1.24881      .   S
    C452   O183      1.22516      .   S
    C452   O84       1.34273      .   S
    C453   O184      1.22516      .   S
    C453   O216      1.34273      .   S
    C451   O182      1.22516      .   S
    C451   O83       1.34273      .   S
    O184   Zn59      1.91203      .   S
    O183   Zn58      1.91203      .   S
    O182   Zn60      1.91203      .   S
    O216   Zn60      1.87392      .   S
    O84    Zn59      1.87392      .   S
    O83    Zn58      1.87392      .   S
    Zn60   O131      1.93287      .   S
    Zn60   O380      1.87455      .   S
    Zn59   O381      1.87455      .   S
    Zn58   O131      1.93287      .   S
    Zn58   O382      1.87455      .   S
    O382   C555      1.19042      .   S
    O381   C554      1.19042      .   S
    O380   C553      1.19042      .   S
    C555   O415      1.33972      .   S
    C554   O414      1.33972      .   S
    C553   O413      1.33972      .   S
    Zn29   O415      1.90979      .   S
    Zn29   O414      1.90979      .   S
    Zn29   O413      1.90979      .   S
    O422   Zn26      1.90979      .   S
    O422   C562      1.33972      .   S
    O423   Zn26      1.90979      .   S
    O423   C563      1.33972      .   S
    O424   Zn26      1.90979      .   S
    O424   C564      1.33972      .   S
    C562   O389      1.19042      .   S
    C563   O390      1.19042      .   S
    C564   O391      1.19042      .   S
    O389   Zn50      1.87455      .   S
    O391   Zn48      1.87455      .   S
    O390   Zn49      1.87455      .   S
    O128   Zn48      1.93287      .   S
    O128   Zn50      1.93287      .   S
    Zn49   O207      1.87392      .   S
    Zn49   O175      1.91203      .   S
    Zn48   O206      1.87392      .   S
    Zn48   O174      1.91203      .   S
    Zn50   O208      1.87392      .   S
    Zn50   O173      1.91203      .   S
    O206   C442      1.34273      .   S
    O207   C443      1.34273      .   S
    O208   C444      1.34273      .   S
    O173   C442      1.22516      .   S
    O174   C443      1.22516      .   S
    O175   C444      1.22516      .   S
    O318   C535      1.24881      .   S
    O319   C536      1.24881      .   S
    O155   C537      1.24881      .   S
    C536   O347      1.27106      .   S
    C535   O346      1.27106      .   S
    C537   O348      1.27106      .   S
    Zn117  O147      1.88816      .   S
    Zn116  O146      1.88816      .   S
    Zn115  O145      1.88816      .   S
    O146   Zn91      1.94120      .   S
    O145   Zn93      1.94120  1_545   S
    O147   Zn92      1.94120  1_655   S
    Zn92   O284      1.80628  1_455   S
    Zn92   O248      1.87734      .   S
    Zn91   O283      1.80628      .   S
    Zn91   O250      1.87734      .   S
    Zn93   O285      1.80628  1_565   S
    Zn93   O249      1.87734      .   S
    O283   C502      1.51592      .   S
    O284   C503      1.51592      .   S
    O285   C504      1.51592      .   S
    O248   C502      1.16042  1_565   S
    O249   C503      1.16042      .   S
    O250   C504      1.16042  1_455   S
    C497   O243      1.16042      .   S
    C497   O278      1.51592      .   S
    C496   O242      1.16042      .   S
    C496   O277      1.51592      .   S
    C498   O244      1.16042      .   S
    C498   O279      1.51592      .   S
    O244   Zn85      1.87734      .   S
    O242   Zn86      1.87734      .   S
    O243   Zn87      1.87734      .   S
    O277   Zn85      1.80628      .   S
    O279   Zn87      1.80628      .   S
    O278   Zn86      1.80628      .   S
    Zn85   O341      1.96104      .   S
    Zn86   O342      1.96104      .   S
    Zn87   O143      1.94120      .   S
    Zn87   O340      1.96104      .   S
    O143   Zn113     1.88816      .   S
    O342   C531      1.27106      .   S
    O341   C530      1.27106      .   S
    O340   C529      1.27106      .   S
    Zn113  O313      1.92853      .   S
    Zn113  O312      1.92897      .   S
    Zn113  O314      1.93067      .   S
    C529   O312      1.24881      .   S
    C530   O313      1.24881      .   S
    C531   O314      1.24881      .   S
    C448   O179      1.22516      .   S
    C448   O212      1.34273      .   S
    C450   O181      1.22516      .   S
    C450   O82       1.34273      .   S
    C449   O180      1.22516      .   S
    C449   O81       1.34273      .   S
    O179   Zn57      1.91203      .   S
    O181   Zn56      1.91203      .   S
    O180   Zn55      1.91203      .   S
    O212   Zn55      1.87392      .   S
    O81    Zn56      1.87392      .   S
    O82    Zn57      1.87392      .   S
    Zn55   O130      1.93287      .   S
    Zn55   O361      1.87455      .   S
    Zn56   O215      1.87455      .   S
    Zn57   O130      1.93287      .   S
    Zn57   O12       1.87455      .   S
    O12    C18       1.19042      .   S
    O361   C464      1.19042      .   S
    O215   C463      1.19042      .   S
    C18    O13       1.33972      .   S
    C463   O213      1.33972      .   S
    C464   O214      1.33972      .   S
    Zn28   O13       1.90979      .   S
    Zn28   O214      1.90979      .   S
    Zn28   O213      1.90979      .   S
    O409   Zn23      1.90979  1_565   S
    O409   C479      1.33972      .   S
    O408   Zn23      1.90979      .   S
    O408   C478      1.33972      .   S
    O407   Zn23      1.90979  1_665   S
    O407   C477      1.33972      .   S
    C479   O376      1.19042      .   S
    C478   O375      1.19042      .   S
    C477   O374      1.19042      .   S
    O375   Zn40      1.87455      .   S
    O374   Zn41      1.87455      .   S
    O376   Zn39      1.87455      .   S
    O107   Zn39      1.93287  1_545   S
    O107   Zn40      1.93287      .   S
    Zn41   O199      1.87392  1_565   S
    Zn41   O164      1.91203      .   S
    Zn39   O197      1.87392  1_455   S
    Zn39   O165      1.91203      .   S
    Zn40   O198      1.87392      .   S
    Zn40   O166      1.91203      .   S
    O199   C435      1.34273      .   S
    O198   C434      1.34273      .   S
    O197   C433      1.34273      .   S
    O165   C434      1.22516  1_565   S
    O166   C435      1.22516  1_455   S
    O164   C433      1.22516      .   S
    O264   C483      1.24881      .   S
    O264   Zn3       1.93067      .   S
    O10    C17       1.24881      .   S
    O10    Zn3       1.92897      .   S
    O263   C482      1.24881      .   S
    O263   Zn3       1.92853      .   S
    C482   O298      1.27106      .   S
    C17    O11       1.27106      .   S
    C483   O299      1.27106      .   S
    Zn3    O5        1.88816      .   S
    O11    Zn34      1.96104      .   S
    O298   Zn2       1.96104      .   S
    O299   Zn33      1.96104      .   S
    O5     Zn34      1.94120      .   S
    Zn2    O9        1.80628      .   S
    Zn2    O227      1.87734      .   S
    Zn34   O229      1.80628      .   S
    Zn34   O226      1.87734      .   S
    Zn33   O228      1.80628      .   S
    Zn33   O8        1.87734      .   S
    O9     C16       1.51592      .   S
    O228   C480      1.51592      .   S
    O229   C481      1.51592      .   S
    O8     C16       1.16042      .   S
    O226   C480      1.16042      .   S
    O227   C481      1.16042      .   S
    C489   O235      1.16042      .   S
    C489   O270      1.51592      .   S
    C488   O234      1.16042      .   S
    C488   O269      1.51592      .   S
    C487   O233      1.16042      .   S
    C487   O268      1.51592      .   S
    O234   Zn76      1.87734      .   S
    O235   Zn74      1.87734      .   S
    O233   Zn75      1.87734      .   S
    O268   Zn74      1.80628      .   S
    O269   Zn75      1.80628      .   S
    O270   Zn76      1.80628      .   S
    Zn75   O333      1.96104      .   S
    Zn74   O332      1.96104      .   S
    Zn76   O138      1.94120      .   S
    Zn76   O331      1.96104      .   S
    O138   Zn108     1.88816      .   S
    O331   C520      1.27106      .   S
    O332   C521      1.27106      .   S
    O333   C522      1.27106      .   S
    Zn108  O305      1.93067      .   S
    Zn108  O304      1.92853      .   S
    Zn108  O303      1.92897      .   S
    C520   O303      1.24881      .   S
    C521   O304      1.24881      .   S
    C522   O305      1.24881      .   S
    C428   O135      1.22516  1_565   S
    C428   O54       1.34273      .   S
    C429   O136      1.22516  1_455   S
    C429   O160      1.34273      .   S
    C15    O6        1.22516      .   S
    C15    O7        1.34273      .   S
    O6     Zn35      1.91203      .   S
    O136   Zn21      1.91203      .   S
    O135   Zn1       1.91203      .   S
    O7     Zn1       1.87392  1_455   S
    O54    Zn21      1.87392      .   S
    O160   Zn35      1.87392  1_565   S
    Zn1    O4        1.93287  1_655   S
    Zn1    O394      1.87455      .   S
    Zn35   O4        1.93287      .   S
    Zn35   O392      1.87455      .   S
    Zn21   O393      1.87455      .   S
    O394   C567      1.19042      .   S
    O393   C566      1.19042      .   S
    O392   C565      1.19042      .   S
    C567   O427      1.33972      .   S
    C566   O426      1.33972      .   S
    C565   O425      1.33972      .   S
    Zn0    O427      1.90979  1_455   S
    Zn0    O426      1.90979  1_445   S
    Zn0    O425      1.90979      .   S
    O399   Zn30      1.90979      .   S
    O399   C469      1.33972      .   S
    O398   Zn30      1.90979      .   S
    O398   C468      1.33972      .   S
    O400   Zn30      1.90979      .   S
    O400   C470      1.33972      .   S
    C470   O367      1.19042      .   S
    C469   O366      1.19042      .   S
    C468   O365      1.19042      .   S
    O367   Zn61      1.87455      .   S
    O366   Zn62      1.87455      .   S
    O365   Zn63      1.87455      .   S
    O132   Zn61      1.93287      .   S
    O132   Zn63      1.93287      .   S
    Zn62   O218      1.87392      .   S
    Zn62   O187      1.91203      .   S
    Zn61   O217      1.87392      .   S
    Zn61   O186      1.91203      .   S
    Zn63   O219      1.87392      .   S
    Zn63   O185      1.91203      .   S
    O217   C454      1.34273      .   S
    O218   C455      1.34273      .   S
    O219   C456      1.34273      .   S
    O187   C456      1.22516      .   S
    O186   C455      1.22516      .   S
    O185   C454      1.22516      .   S
    O325   C547      1.24881      .   S
    O325   Zn125     1.92897      .   S
    O326   C548      1.24881      .   S
    O326   Zn125     1.92853      .   S
    O327   C549      1.24881      .   S
    O327   Zn125     1.93067      .   S
    C549   O360      1.27106      .   S
    C548   O359      1.27106      .   S
    C547   O358      1.27106      .   S
    Zn125  O53       1.88816      .   S
    O358   Zn105     1.96104      .   S
    O359   Zn103     1.96104      .   S
    O360   Zn104     1.96104      .   S
    O53    Zn105     1.94120      .   S
    Zn103  O295      1.80628      .   S
    Zn103  O262      1.87734      .   S
    Zn104  O296      1.80628      .   S
    Zn104  O260      1.87734      .   S
    Zn105  O297      1.80628      .   S
    Zn105  O261      1.87734      .   S
    O297   C516      1.51592      .   S
    O295   C514      1.51592      .   S
    O296   C515      1.51592      .   S
    O261   C515      1.16042      .   S
    O262   C516      1.16042      .   S
    O260   C514      1.16042      .   S
    C510   O256      1.16042  1_455   S
    C510   O291      1.51592      .   S
    C508   O254      1.16042  1_565   S
    C508   O289      1.51592      .   S
    C509   O255      1.16042      .   S
    C509   O290      1.51592      .   S
    O254   Zn98      1.87734      .   S
    O255   Zn99      1.87734      .   S
    O256   Zn97      1.87734      .   S
    O289   Zn97      1.80628      .   S
    O290   Zn98      1.80628  1_455   S
    O291   Zn99      1.80628  1_565   S
    Zn99   O149      1.94120  1_545   S
    Zn98   O151      1.94120  1_655   S
    Zn97   O150      1.94120      .   S
    O149   Zn119     1.88816      .   S
    O150   Zn120     1.88816      .   S
    O151   Zn121     1.88816      .   S
    O353   C542      1.27106      .   S
    O352   C541      1.27106      .   S
    O354   C543      1.27106      .   S
    C542   O320      1.24881      .   S
    C541   O159      1.24881      .   S
    C543   O321      1.24881      .   S
    C462   O193      1.22516      .   S
    C462   O225      1.34273      .   S
    C460   O191      1.22516      .   S
    C460   O223      1.34273      .   S
    C461   O192      1.22516      .   S
    C461   O224      1.34273      .   S
    O192   Zn67      1.91203      .   S
    O193   Zn68      1.91203      .   S
    O191   Zn69      1.91203      .   S
    O223   Zn67      1.87392      .   S
    O225   Zn69      1.87392      .   S
    O224   Zn68      1.87392      .   S
    Zn67   O134      1.93287      .   S
    Zn67   O373      1.87455      .   S
    Zn69   O371      1.87455      .   S
    Zn68   O134      1.93287      .   S
    Zn68   O372      1.87455      .   S
    O371   C474      1.19042      .   S
    O373   C476      1.19042      .   S
    O372   C475      1.19042      .   S
    C474   O404      1.33972      .   S
    C475   O405      1.33972      .   S
    C476   O406      1.33972      .   S
    Zn32   O404      1.90979      .   S
    Zn32   O405      1.90979      .   S
    Zn32   O406      1.90979      .   S
    O419   Zn27      1.90979      .   S
    O419   C559      1.33972      .   S
    O420   Zn27      1.90979      .   S
    O420   C560      1.33972      .   S
    O421   Zn27      1.90979      .   S
    O421   C561      1.33972      .   S
    C559   O386      1.19042      .   S
    C561   O388      1.19042      .   S
    C560   O387      1.19042      .   S
    O386   Zn14      1.87455      .   S
    O387   Zn52      1.87455      .   S
    O388   Zn51      1.87455      .   S
    O129   Zn52      1.93287      .   S
    O129   Zn51      1.93287      .   S
    Zn52   O210      1.87392      .   S
    Zn52   O178      1.91203      .   S
    Zn51   O209      1.87392      .   S
    Zn51   O177      1.91203      .   S
    Zn14   O211      1.87392      .   S
    Zn14   O176      1.91203      .   S
    O209   C445      1.34273      .   S
    O210   C446      1.34273      .   S
    O211   C447      1.34273      .   S
    O177   C446      1.22516      .   S
    O178   C447      1.22516      .   S
    O176   C445      1.22516      .   S
    O310   C527      1.24881      .   S
    O309   C526      1.24881      .   S
    O311   C528      1.24881      .   S
    C526   O337      1.27106      .   S
    C527   O338      1.27106      .   S
    C528   O339      1.27106      .   S
    Zn111  O141      1.88816      .   S
    Zn110  O140      1.88816      .   S
    Zn112  O142      1.88816      .   S
    O142   Zn19      1.94120  1_545   S
    O141   Zn80      1.94120      .   S
    O140   Zn20      1.94120  1_655   S
    Zn80   O274      1.80628      .   S
    Zn80   O241      1.87734      .   S
    Zn19   O275      1.80628  1_565   S
    Zn19   O239      1.87734      .   S
    Zn20   O276      1.80628  1_455   S
    Zn20   O240      1.87734      .   S
    O275   C494      1.51592      .   S
    O276   C495      1.51592      .   S
    O274   C493      1.51592      .   S
    O239   C493      1.16042  1_455   S
    O241   C495      1.16042  1_565   S
    O240   C494      1.16042      .   S
    C501   O247      1.16042      .   S
    C501   O282      1.51592      .   S
    C499   O245      1.16042      .   S
    C499   O280      1.51592      .   S
    C500   O246      1.16042      .   S
    C500   O281      1.51592      .   S
    O247   Zn88      1.87734      .   S
    O246   Zn90      1.87734      .   S
    O245   Zn89      1.87734      .   S
    O281   Zn89      1.80628      .   S
    O282   Zn90      1.80628      .   S
    O280   Zn88      1.80628      .   S
    Zn89   O345      1.96104      .   S
    Zn90   O144      1.94120      .   S
    Zn90   O343      1.96104      .   S
    Zn88   O344      1.96104      .   S
    O144   Zn114     1.88816      .   S
    O343   C532      1.27106      .   S
    O344   C533      1.27106      .   S
    O345   C534      1.27106      .   S
    Zn114  O317      1.93067      .   S
    Zn114  O315      1.92897      .   S
    Zn114  O316      1.92853      .   S
    C532   O315      1.24881      .   S
    C533   O316      1.24881      .   S
    C534   O317      1.24881      .   S
    C439   O170      1.22516      .   S
    C439   O203      1.34273      .   S
    C440   O171      1.22516      .   S
    C440   O204      1.34273      .   S
    C441   O172      1.22516      .   S
    C441   O205      1.34273      .   S
    O170   Zn47      1.91203      .   S
    O171   Zn45      1.91203      .   S
    O172   Zn46      1.91203      .   S
    O203   Zn45      1.87392      .   S
    O204   Zn46      1.87392      .   S
    O205   Zn47      1.87392      .   S
    Zn47   O368      1.87455      .   S
    Zn45   O127      1.93287      .   S
    Zn45   O370      1.87455      .   S
    Zn46   O127      1.93287      .   S
    Zn46   O369      1.87455      .   S
    O370   C473      1.19042      .   S
    O369   C472      1.19042      .   S
    O368   C471      1.19042      .   S
    C473   O403      1.33972      .   S
    C472   O402      1.33972      .   S
    C471   O401      1.33972      .   S
    Zn25   O403      1.90979      .   S
    Zn25   O402      1.90979      .   S
    Zn25   O401      1.90979      .   S
    O410   Zn22      1.90979      .   S
    O410   C550      1.33972      .   S
    O411   Zn22      1.90979  1_665   S
    O411   C551      1.33972      .   S
    O412   Zn22      1.90979  1_565   S
    O412   C552      1.33972      .   S
    C552   O379      1.19042      .   S
    C550   O377      1.19042      .   S
    C551   O378      1.19042      .   S
    O377   Zn38      1.87455      .   S
    O378   Zn37      1.87455      .   S
    O379   Zn36      1.87455      .   S
    O106   Zn37      1.93287  1_445   S
    O106   Zn36      1.93287  1_545   S
    Zn37   O195      1.87392      .   S
    Zn37   O163      1.91203      .   S
    Zn38   O196      1.87392  1_455   S
    Zn38   O161      1.91203      .   S
    Zn36   O194      1.87392  1_565   S
    Zn36   O162      1.91203      .   S
    O196   C432      1.34273      .   S
    O195   C431      1.34273      .   S
    O194   C430      1.34273      .   S
    O161   C430      1.22516      .   S
    O162   C431      1.22516  1_455   S
    O163   C432      1.22516  1_565   S
    O308   C525      1.24881      .   S
    O308   Zn109     1.93067      .   S
    O307   C524      1.24881      .   S
    O307   Zn109     1.92853      .   S
    O306   C523      1.24881      .   S
    O306   Zn109     1.92897      .   S
    C525   O336      1.27106      .   S
    C524   O335      1.27106      .   S
    C523   O334      1.27106      .   S
    Zn109  O139      1.88816      .   S
    O336   Zn78      1.96104      .   S
    O335   Zn77      1.96104      .   S
    O334   Zn79      1.96104      .   S
    O139   Zn79      1.94120      .   S
    Zn78   O272      1.80628      .   S
    Zn78   O236      1.87734      .   S
    Zn77   O271      1.80628      .   S
    Zn77   O238      1.87734      .   S
    Zn79   O273      1.80628      .   S
    Zn79   O237      1.87734      .   S
    O273   C492      1.51592      .   S
    O272   C491      1.51592      .   S
    O271   C490      1.51592      .   S
    O236   C490      1.16042      .   S
    O237   C491      1.16042      .   S
    O238   C492      1.16042      .   S
    O4     Zn0       1.94240      .   S
    O4     Zn21      1.93287  1_445   S
    O5     Zn2       1.94160      .   S
    O5     Zn33      1.94336      .   S
    O106   Zn22      1.94240      .   S
    O106   Zn38      1.93287      .   S
    O107   Zn23      1.94240      .   S
    O107   Zn41      1.93287  1_445   S
    O126   Zn24      1.94240      .   S
    O126   Zn44      1.93287  1_445   S
    O127   Zn25      1.94240      .   S
    O127   Zn47      1.93287      .   S
    O128   Zn26      1.94240      .   S
    O128   Zn49      1.93287      .   S
    O129   Zn27      1.94240      .   S
    O129   Zn14      1.93287      .   S
    O130   Zn28      1.94240      .   S
    O130   Zn56      1.93287      .   S
    O131   Zn29      1.94240      .   S
    O131   Zn59      1.93287      .   S
    O132   Zn30      1.94240      .   S
    O132   Zn62      1.93287      .   S
    O133   Zn31      1.94240      .   S
    O133   Zn66      1.93287      .   S
    O134   Zn32      1.94240      .   S
    O134   Zn69      1.93287      .   S
    O137   Zn71      1.94160      .   S
    O137   Zn72      1.94336      .   S
    O138   Zn74      1.94160      .   S
    O138   Zn75      1.94336      .   S
    O139   Zn77      1.94160      .   S
    O139   Zn78      1.94336      .   S
    O140   Zn80      1.94160  1_545   S
    O140   Zn19      1.94336  1_645   S
    O140   Zn111     1.88816  1_545   S
    O140   Zn112     1.88816  1_655   S
    O141   Zn19      1.94160  1_655   S
    O141   Zn20      1.94336  1_665   S
    O141   Zn110     1.88816  1_565   S
    O141   Zn112     1.88816  1_665   S
    O142   Zn80      1.94336  1_445   S
    O142   Zn20      1.94160      .   S
    O142   Zn110     1.88816  1_455   S
    O142   Zn111     1.88816  1_445   S
    O143   Zn85      1.94160      .   S
    O143   Zn86      1.94336      .   S
    O144   Zn88      1.94160      .   S
    O144   Zn89      1.94336      .   S
    O145   Zn91      1.94160  1_655   S
    O145   Zn92      1.94336  1_645   S
    O145   Zn116     1.88816  1_655   S
    O145   Zn117     1.88816  1_545   S
    O146   Zn92      1.94160  1_545   S
    O146   Zn93      1.94336  1_445   S
    O146   Zn115     1.88816  1_455   S
    O146   Zn117     1.88816  1_445   S
    O147   Zn91      1.94336  1_665   S
    O147   Zn93      1.94160      .   S
    O147   Zn115     1.88816  1_565   S
    O147   Zn116     1.88816  1_665   S
    O148   Zn94      1.94160      .   S
    O148   Zn95      1.94336      .   S
    O149   Zn97      1.94160  1_455   S
    O149   Zn98      1.94336  1_465   S
    O149   Zn120     1.88816  1_455   S
    O149   Zn121     1.88816  1_565   S
    O150   Zn98      1.94160  1_565   S
    O150   Zn99      1.94336  1_665   S
    O150   Zn119     1.88816  1_655   S
    O150   Zn121     1.88816  1_665   S
    O151   Zn97      1.94336  1_445   S
    O151   Zn99      1.94160      .   S
    O151   Zn119     1.88816  1_545   S
    O151   Zn120     1.88816  1_445   S
    O152   Zn100     1.94160  1_565   S
    O152   Zn101     1.94336  1_465   S
    O152   Zn123     1.88816  1_565   S
    O152   Zn124     1.88816  1_455   S
    O153   Zn101     1.94160  1_455   S
    O153   Zn102     1.94336  1_445   S
    O153   Zn122     1.88816  1_545   S
    O153   Zn124     1.88816  1_445   S
    O154   Zn100     1.94336  1_665   S
    O154   Zn102     1.94160      .   S
    O154   Zn122     1.88816  1_655   S
    O154   Zn123     1.88816  1_665   S
    O53    Zn103     1.94160      .   S
    O53    Zn104     1.94336      .   S
    O309   Zn110     1.92897  1_455   S
    O309   Zn111     1.93067  1_445   S
    O309   Zn112     1.92853      .   S
    O310   Zn110     1.92853  1_565   S
    O310   Zn111     1.92897      .   S
    O310   Zn112     1.93067  1_665   S
    O311   Zn110     1.93067  1_465   S
    O311   Zn111     1.92853  1_455   S
    O311   Zn112     1.92897  1_565   S
    O318   Zn115     1.92897  1_565   S
    O318   Zn116     1.93067  1_665   S
    O318   Zn117     1.92853      .   S
    O319   Zn115     1.92853  1_455   S
    O319   Zn116     1.92897      .   S
    O319   Zn117     1.93067  1_445   S
    O155   Zn115     1.93067  1_465   S
    O155   Zn116     1.92853  1_565   S
    O155   Zn117     1.92897  1_455   S
    O159   Zn119     1.92897  1_545   S
    O159   Zn120     1.93067  1_445   S
    O159   Zn121     1.92853      .   S
    O320   Zn119     1.92853  1_655   S
    O320   Zn120     1.92897      .   S
    O320   Zn121     1.93067  1_665   S
    O321   Zn119     1.93067  1_645   S
    O321   Zn120     1.92853  1_545   S
    O321   Zn121     1.92897  1_655   S
    O322   Zn122     1.92897  1_655   S
    O322   Zn123     1.93067  1_665   S
    O322   Zn124     1.92853      .   S
    O323   Zn122     1.92853  1_545   S
    O323   Zn123     1.92897      .   S
    O323   Zn124     1.93067  1_445   S
    O324   Zn122     1.93067  1_645   S
    O324   Zn123     1.92853  1_655   S
    O324   Zn124     1.92897  1_545   S
    O337   Zn20      1.96104      .   S
    O338   Zn80      1.96104      .   S
    O339   Zn19      1.96104      .   S
    O346   Zn93      1.96104      .   S
    O347   Zn91      1.96104      .   S
    O348   Zn92      1.96104      .   S
    O352   Zn99      1.96104      .   S
    O353   Zn97      1.96104      .   S
    O354   Zn98      1.96104      .   S
    O355   Zn102     1.96104      .   S
    O356   Zn100     1.96104      .   S
    O357   Zn101     1.96104      .   S
