# CIF file generated by openbabel 2.4.90, see http://openbabel.sf.net
data_I
_chemical_name_common ''
_cell_length_a 24.4635
_cell_length_b 24.4635
_cell_length_c 112.996
_cell_angle_alpha 90
_cell_angle_beta 90
_cell_angle_gamma 120
_space_group_name_H-M_alt 'P 1'
_space_group_name_Hall 'P 1'
loop_
    _symmetry_equiv_pos_as_xyz
    x,y,z
loop_
    _atom_site_label
    _atom_site_type_symbol
    _atom_site_fract_x
    _atom_site_fract_y
    _atom_site_fract_z
    _atom_site_occupancy
    Zr0     Zr   0.00000   0.00000   0.57964   1.000
    Zr1     Zr   0.97026   0.05473   0.55658   1.000
    Zr2     Zr   0.24871   0.61158   0.48622   1.000
    Zr3     Zr   0.33330   0.66670   0.46351   1.000
    Zr4     Zr   0.00000   0.00000   0.56245   1.000
    Zr5     Zr   0.33330   0.66670   0.48022   1.000
    Zr6     Zr   0.11610   0.10290   0.54673   1.000
    Zr7     Zr   0.03630   0.12460   0.54896   1.000
    Zr8     Zr   0.34250   0.55800   0.49357   1.000
    Zr9     Zr   0.23500   0.53890   0.49299   1.000
    Zr10    Zr   0.38880   0.74920   0.45698   1.000
    Zr11    Zr   0.38320   0.80530   0.47220   1.000
    Zr12    Zr   0.60870   0.19080   0.40243   1.000
    Zr13    Zr   0.63250   0.24990   0.41916   1.000
    Zr14    Zr   0.08980   0.13260   0.54405   1.000
    Zr15    Zr   0.28930   0.52800   0.49590   1.000
    Zr16    Zr   0.39810   0.79930   0.46170   1.000
    Zr17    Zr   0.61100   0.19650   0.41291   1.000
    Zr18    Zr   0.00000   0.00000   0.92036   1.000
    Zr19    Zr   0.00000   0.00000   0.42036   1.000
    Zr20    Zr   0.00000   0.00000   0.07964   1.000
    Zr21    Zr   0.66667   0.33333   0.91297   1.000
    Zr22    Zr   0.66667   0.33333   0.25369   1.000
    Zr23    Zr   0.66667   0.33333   0.75369   1.000
    Zr24    Zr   0.66667   0.33333   0.41297   1.000
    Zr25    Zr   0.33333   0.66667   0.24631   1.000
    Zr26    Zr   0.33333   0.66667   0.58703   1.000
    Zr27    Zr   0.33333   0.66667   0.08703   1.000
    Zr28    Zr   0.33333   0.66667   0.74631   1.000
    Zr29    Zr   0.94527   0.91553   0.55658   1.000
    Zr30    Zr   0.08447   0.02974   0.55658   1.000
    Zr31    Zr   0.05473   0.97026   0.94342   1.000
    Zr32    Zr   0.91553   0.94527   0.94342   1.000
    Zr33    Zr   0.02974   0.08447   0.94342   1.000
    Zr34    Zr   0.02974   0.94527   0.44342   1.000
    Zr35    Zr   0.05473   0.08447   0.44342   1.000
    Zr36    Zr   0.91553   0.97026   0.44342   1.000
    Zr37    Zr   0.94527   0.02974   0.05658   1.000
    Zr38    Zr   0.08447   0.05473   0.05658   1.000
    Zr39    Zr   0.97026   0.91553   0.05658   1.000
    Zr40    Zr   0.63693   0.38806   0.88991   1.000
    Zr41    Zr   0.61194   0.24886   0.88991   1.000
    Zr42    Zr   0.75114   0.36307   0.88991   1.000
    Zr43    Zr   0.72140   0.30359   0.27675   1.000
    Zr44    Zr   0.58220   0.27860   0.27675   1.000
    Zr45    Zr   0.69641   0.41780   0.27675   1.000
    Zr46    Zr   0.69641   0.27860   0.77675   1.000
    Zr47    Zr   0.72140   0.41780   0.77675   1.000
    Zr48    Zr   0.58220   0.30359   0.77675   1.000
    Zr49    Zr   0.61194   0.36307   0.38991   1.000
    Zr50    Zr   0.75114   0.38806   0.38991   1.000
    Zr51    Zr   0.63693   0.24886   0.38991   1.000
    Zr52    Zr   0.30359   0.72140   0.22325   1.000
    Zr53    Zr   0.27860   0.58220   0.22325   1.000
    Zr54    Zr   0.41780   0.69641   0.22325   1.000
    Zr55    Zr   0.38806   0.63693   0.61009   1.000
    Zr56    Zr   0.24886   0.61194   0.61009   1.000
    Zr57    Zr   0.36307   0.75114   0.61009   1.000
    Zr58    Zr   0.36307   0.61194   0.11009   1.000
    Zr59    Zr   0.38806   0.75114   0.11009   1.000
    Zr60    Zr   0.24886   0.63693   0.11009   1.000
    Zr61    Zr   0.27860   0.69641   0.72325   1.000
    Zr62    Zr   0.41780   0.72140   0.72325   1.000
    Zr63    Zr   0.30359   0.58220   0.72325   1.000
    Zr64    Zr   0.38842   0.63713   0.48622   1.000
    Zr65    Zr   0.36287   0.75129   0.48622   1.000
    Zr66    Zr   0.61158   0.24871   0.01378   1.000
    Zr67    Zr   0.63713   0.38842   0.01378   1.000
    Zr68    Zr   0.75129   0.36287   0.01378   1.000
    Zr69    Zr   0.75129   0.38842   0.51378   1.000
    Zr70    Zr   0.61158   0.36287   0.51378   1.000
    Zr71    Zr   0.63713   0.24871   0.51378   1.000
    Zr72    Zr   0.38842   0.75129   0.98622   1.000
    Zr73    Zr   0.36287   0.61158   0.98622   1.000
    Zr74    Zr   0.24871   0.63713   0.98622   1.000
    Zr75    Zr   0.91538   0.94491   0.81955   1.000
    Zr76    Zr   0.05509   0.97046   0.81955   1.000
    Zr77    Zr   0.02954   0.08462   0.81955   1.000
    Zr78    Zr   0.27825   0.58204   0.34711   1.000
    Zr79    Zr   0.30380   0.72175   0.34711   1.000
    Zr80    Zr   0.41796   0.69620   0.34711   1.000
    Zr81    Zr   0.41796   0.72175   0.84711   1.000
    Zr82    Zr   0.27825   0.69620   0.84711   1.000
    Zr83    Zr   0.30380   0.58204   0.84711   1.000
    Zr84    Zr   0.05509   0.08462   0.31955   1.000
    Zr85    Zr   0.02954   0.94491   0.31955   1.000
    Zr86    Zr   0.91538   0.97046   0.31955   1.000
    Zr87    Zr   0.58204   0.27825   0.15289   1.000
    Zr88    Zr   0.72175   0.30380   0.15289   1.000
    Zr89    Zr   0.69620   0.41796   0.15289   1.000
    Zr90    Zr   0.94491   0.91538   0.68045   1.000
    Zr91    Zr   0.97046   0.05509   0.68045   1.000
    Zr92    Zr   0.08462   0.02954   0.68045   1.000
    Zr93    Zr   0.08462   0.05509   0.18045   1.000
    Zr94    Zr   0.94491   0.02954   0.18045   1.000
    Zr95    Zr   0.97046   0.91538   0.18045   1.000
    Zr96    Zr   0.72175   0.41796   0.65289   1.000
    Zr97    Zr   0.69620   0.27825   0.65289   1.000
    Zr98    Zr   0.58204   0.30380   0.65289   1.000
    Zr99    Zr   0.66670   0.33330   0.03649   1.000
    Zr100   Zr   0.66670   0.33330   0.53649   1.000
    Zr101   Zr   0.33330   0.66670   0.96351   1.000
    Zr102   Zr   0.99997   0.00003   0.79684   1.000
    Zr103   Zr   0.99997   0.99993   0.79684   1.000
    Zr104   Zr   0.00007   0.00003   0.79684   1.000
    Zr105   Zr   0.33337   0.66663   0.36982   1.000
    Zr106   Zr   0.33337   0.66663   0.86982   1.000
    Zr107   Zr   0.99997   0.00003   0.29684   1.000
    Zr108   Zr   0.00007   0.00003   0.29684   1.000
    Zr109   Zr   0.99997   0.99993   0.29684   1.000
    Zr110   Zr   0.66663   0.33337   0.13018   1.000
    Zr111   Zr   0.00003   0.99997   0.70316   1.000
    Zr112   Zr   0.99993   0.99997   0.70316   1.000
    Zr113   Zr   0.00003   0.00007   0.70316   1.000
    Zr114   Zr   0.00003   0.99997   0.20316   1.000
    Zr115   Zr   0.00003   0.00007   0.20316   1.000
    Zr116   Zr   0.99993   0.99997   0.20316   1.000
    Zr117   Zr   0.66663   0.33337   0.63018   1.000
    Zr118   Zr   0.00000   0.00000   0.93755   1.000
    Zr119   Zr   0.00000   0.00000   0.43755   1.000
    Zr120   Zr   0.00000   0.00000   0.06245   1.000
    Zr121   Zr   0.66667   0.33333   0.89578   1.000
    Zr122   Zr   0.66667   0.33333   0.27088   1.000
    Zr123   Zr   0.66667   0.33333   0.77088   1.000
    Zr124   Zr   0.66667   0.33333   0.39578   1.000
    Zr125   Zr   0.33333   0.66667   0.22912   1.000
    Zr126   Zr   0.33333   0.66667   0.60422   1.000
    Zr127   Zr   0.33333   0.66667   0.10422   1.000
    Zr128   Zr   0.33333   0.66667   0.72912   1.000
    Zr129   Zr   0.66670   0.33330   0.01978   1.000
    Zr130   Zr   0.66670   0.33330   0.51978   1.000
    Zr131   Zr   0.33330   0.66670   0.98022   1.000
    Zr132   Zr   0.99997   0.00003   0.81355   1.000
    Zr133   Zr   0.99997   0.99993   0.81355   1.000
    Zr134   Zr   0.00007   0.00003   0.81355   1.000
    Zr135   Zr   0.33337   0.66663   0.35311   1.000
    Zr136   Zr   0.33337   0.66663   0.85311   1.000
    Zr137   Zr   0.99997   0.00003   0.31355   1.000
    Zr138   Zr   0.00007   0.00003   0.31355   1.000
    Zr139   Zr   0.99997   0.99993   0.31355   1.000
    Zr140   Zr   0.66663   0.33337   0.14689   1.000
    Zr141   Zr   0.00003   0.99997   0.68645   1.000
    Zr142   Zr   0.99993   0.99997   0.68645   1.000
    Zr143   Zr   0.00003   0.00007   0.68645   1.000
    Zr144   Zr   0.00003   0.99997   0.18645   1.000
    Zr145   Zr   0.00003   0.00007   0.18645   1.000
    Zr146   Zr   0.99993   0.99997   0.18645   1.000
    Zr147   Zr   0.66663   0.33337   0.64689   1.000
    Zr148   Zr   0.89710   0.01320   0.54673   1.000
    Zr149   Zr   0.98680   0.88390   0.54673   1.000
    Zr150   Zr   0.10290   0.11610   0.95327   1.000
    Zr151   Zr   0.01320   0.89710   0.95327   1.000
    Zr152   Zr   0.88390   0.98680   0.95327   1.000
    Zr153   Zr   0.88390   0.89710   0.45327   1.000
    Zr154   Zr   0.10290   0.98680   0.45327   1.000
    Zr155   Zr   0.01320   0.11610   0.45327   1.000
    Zr156   Zr   0.89710   0.88390   0.04673   1.000
    Zr157   Zr   0.98680   0.10290   0.04673   1.000
    Zr158   Zr   0.11610   0.01320   0.04673   1.000
    Zr159   Zr   0.78277   0.43623   0.88006   1.000
    Zr160   Zr   0.56377   0.34653   0.88006   1.000
    Zr161   Zr   0.65347   0.21723   0.88006   1.000
    Zr162   Zr   0.76957   0.44943   0.28660   1.000
    Zr163   Zr   0.67987   0.23043   0.28660   1.000
    Zr164   Zr   0.55057   0.32013   0.28660   1.000
    Zr165   Zr   0.55057   0.23043   0.78660   1.000
    Zr166   Zr   0.76957   0.32013   0.78660   1.000
    Zr167   Zr   0.67987   0.44943   0.78660   1.000
    Zr168   Zr   0.56377   0.21723   0.38006   1.000
    Zr169   Zr   0.65347   0.43623   0.38006   1.000
    Zr170   Zr   0.78277   0.34653   0.38006   1.000
    Zr171   Zr   0.44943   0.76957   0.21340   1.000
    Zr172   Zr   0.23043   0.67987   0.21340   1.000
    Zr173   Zr   0.32013   0.55057   0.21340   1.000
    Zr174   Zr   0.43623   0.78277   0.61994   1.000
    Zr175   Zr   0.34653   0.56377   0.61994   1.000
    Zr176   Zr   0.21723   0.65347   0.61994   1.000
    Zr177   Zr   0.21723   0.56377   0.11994   1.000
    Zr178   Zr   0.43623   0.65347   0.11994   1.000
    Zr179   Zr   0.34653   0.78277   0.11994   1.000
    Zr180   Zr   0.23043   0.55057   0.71340   1.000
    Zr181   Zr   0.32013   0.76957   0.71340   1.000
    Zr182   Zr   0.44943   0.67987   0.71340   1.000
    Zr183   Zr   0.87540   0.91170   0.54896   1.000
    Zr184   Zr   0.08830   0.96370   0.54896   1.000
    Zr185   Zr   0.12460   0.03630   0.95104   1.000
    Zr186   Zr   0.91170   0.87540   0.95104   1.000
    Zr187   Zr   0.96370   0.08830   0.95104   1.000
    Zr188   Zr   0.96370   0.87540   0.45104   1.000
    Zr189   Zr   0.12460   0.08830   0.45104   1.000
    Zr190   Zr   0.91170   0.03630   0.45104   1.000
    Zr191   Zr   0.87540   0.96370   0.04896   1.000
    Zr192   Zr   0.08830   0.12460   0.04896   1.000
    Zr193   Zr   0.03630   0.91170   0.04896   1.000
    Zr194   Zr   0.70297   0.45793   0.88229   1.000
    Zr195   Zr   0.54207   0.24503   0.88229   1.000
    Zr196   Zr   0.75497   0.29703   0.88229   1.000
    Zr197   Zr   0.79127   0.36963   0.28437   1.000
    Zr198   Zr   0.57837   0.20873   0.28437   1.000
    Zr199   Zr   0.63037   0.42163   0.28437   1.000
    Zr200   Zr   0.63037   0.20873   0.78437   1.000
    Zr201   Zr   0.79127   0.42163   0.78437   1.000
    Zr202   Zr   0.57837   0.36963   0.78437   1.000
    Zr203   Zr   0.54207   0.29703   0.38229   1.000
    Zr204   Zr   0.75497   0.45793   0.38229   1.000
    Zr205   Zr   0.70297   0.24503   0.38229   1.000
    Zr206   Zr   0.36963   0.79127   0.21563   1.000
    Zr207   Zr   0.20873   0.57837   0.21563   1.000
    Zr208   Zr   0.42163   0.63037   0.21563   1.000
    Zr209   Zr   0.45793   0.70297   0.61771   1.000
    Zr210   Zr   0.24503   0.54207   0.61771   1.000
    Zr211   Zr   0.29703   0.75497   0.61771   1.000
    Zr212   Zr   0.29703   0.54207   0.11771   1.000
    Zr213   Zr   0.45793   0.75497   0.11771   1.000
    Zr214   Zr   0.24503   0.70297   0.11771   1.000
    Zr215   Zr   0.20873   0.63037   0.71563   1.000
    Zr216   Zr   0.42163   0.79127   0.71563   1.000
    Zr217   Zr   0.36963   0.57837   0.71563   1.000
    Zr218   Zr   0.44200   0.78450   0.49357   1.000
    Zr219   Zr   0.21550   0.65750   0.49357   1.000
    Zr220   Zr   0.55800   0.34250   0.00643   1.000
    Zr221   Zr   0.78450   0.44200   0.00643   1.000
    Zr222   Zr   0.65750   0.21550   0.00643   1.000
    Zr223   Zr   0.65750   0.44200   0.50643   1.000
    Zr224   Zr   0.55800   0.21550   0.50643   1.000
    Zr225   Zr   0.78450   0.34250   0.50643   1.000
    Zr226   Zr   0.44200   0.65750   0.99357   1.000
    Zr227   Zr   0.21550   0.55800   0.99357   1.000
    Zr228   Zr   0.34250   0.78450   0.99357   1.000
    Zr229   Zr   0.00917   0.89133   0.82690   1.000
    Zr230   Zr   0.10867   0.11783   0.82690   1.000
    Zr231   Zr   0.88217   0.99083   0.82690   1.000
    Zr232   Zr   0.22467   0.67583   0.33976   1.000
    Zr233   Zr   0.45117   0.77533   0.33976   1.000
    Zr234   Zr   0.32417   0.54883   0.33976   1.000
    Zr235   Zr   0.32417   0.77533   0.83976   1.000
    Zr236   Zr   0.22467   0.54883   0.83976   1.000
    Zr237   Zr   0.45117   0.67583   0.83976   1.000
    Zr238   Zr   0.10867   0.99083   0.32690   1.000
    Zr239   Zr   0.88217   0.89133   0.32690   1.000
    Zr240   Zr   0.00917   0.11783   0.32690   1.000
    Zr241   Zr   0.67583   0.22467   0.16024   1.000
    Zr242   Zr   0.77533   0.45117   0.16024   1.000
    Zr243   Zr   0.54883   0.32417   0.16024   1.000
    Zr244   Zr   0.89133   0.00917   0.67310   1.000
    Zr245   Zr   0.11783   0.10867   0.67310   1.000
    Zr246   Zr   0.99083   0.88217   0.67310   1.000
    Zr247   Zr   0.99083   0.10867   0.17310   1.000
    Zr248   Zr   0.89133   0.88217   0.17310   1.000
    Zr249   Zr   0.11783   0.00917   0.17310   1.000
    Zr250   Zr   0.77533   0.32417   0.66024   1.000
    Zr251   Zr   0.54883   0.22467   0.66024   1.000
    Zr252   Zr   0.67583   0.45117   0.66024   1.000
    Zr253   Zr   0.46110   0.69610   0.49299   1.000
    Zr254   Zr   0.30390   0.76500   0.49299   1.000
    Zr255   Zr   0.53890   0.23500   0.00701   1.000
    Zr256   Zr   0.69610   0.46110   0.00701   1.000
    Zr257   Zr   0.76500   0.30390   0.00701   1.000
    Zr258   Zr   0.76500   0.46110   0.50701   1.000
    Zr259   Zr   0.53890   0.30390   0.50701   1.000
    Zr260   Zr   0.69610   0.23500   0.50701   1.000
    Zr261   Zr   0.46110   0.76500   0.99299   1.000
    Zr262   Zr   0.30390   0.53890   0.99299   1.000
    Zr263   Zr   0.23500   0.69610   0.99299   1.000
    Zr264   Zr   0.90167   0.87223   0.82632   1.000
    Zr265   Zr   0.12777   0.02943   0.82632   1.000
    Zr266   Zr   0.97057   0.09833   0.82632   1.000
    Zr267   Zr   0.20557   0.56833   0.34034   1.000
    Zr268   Zr   0.36277   0.79443   0.34034   1.000
    Zr269   Zr   0.43167   0.63723   0.34034   1.000
    Zr270   Zr   0.43167   0.79443   0.84034   1.000
    Zr271   Zr   0.20557   0.63723   0.84034   1.000
    Zr272   Zr   0.36277   0.56833   0.84034   1.000
    Zr273   Zr   0.12777   0.09833   0.32632   1.000
    Zr274   Zr   0.97057   0.87223   0.32632   1.000
    Zr275   Zr   0.90167   0.02943   0.32632   1.000
    Zr276   Zr   0.56833   0.20557   0.15966   1.000
    Zr277   Zr   0.79443   0.36277   0.15966   1.000
    Zr278   Zr   0.63723   0.43167   0.15966   1.000
    Zr279   Zr   0.87223   0.90167   0.67368   1.000
    Zr280   Zr   0.02943   0.12777   0.67368   1.000
    Zr281   Zr   0.09833   0.97057   0.67368   1.000
    Zr282   Zr   0.09833   0.12777   0.17368   1.000
    Zr283   Zr   0.87223   0.97057   0.17368   1.000
    Zr284   Zr   0.02943   0.90167   0.17368   1.000
    Zr285   Zr   0.79443   0.43167   0.65966   1.000
    Zr286   Zr   0.63723   0.20557   0.65966   1.000
    Zr287   Zr   0.56833   0.36277   0.65966   1.000
    Zr288   Zr   0.25080   0.63960   0.45698   1.000
    Zr289   Zr   0.36040   0.61120   0.45698   1.000
    Zr290   Zr   0.74920   0.38880   0.04302   1.000
    Zr291   Zr   0.63960   0.25080   0.04302   1.000
    Zr292   Zr   0.61120   0.36040   0.04302   1.000
    Zr293   Zr   0.61120   0.25080   0.54302   1.000
    Zr294   Zr   0.74920   0.36040   0.54302   1.000
    Zr295   Zr   0.63960   0.38880   0.54302   1.000
    Zr296   Zr   0.25080   0.61120   0.95698   1.000
    Zr297   Zr   0.36040   0.74920   0.95698   1.000
    Zr298   Zr   0.38880   0.63960   0.95698   1.000
    Zr299   Zr   0.05547   0.08253   0.79031   1.000
    Zr300   Zr   0.91747   0.97293   0.79031   1.000
    Zr301   Zr   0.02707   0.94453   0.79031   1.000
    Zr302   Zr   0.41587   0.72213   0.37635   1.000
    Zr303   Zr   0.30627   0.58413   0.37635   1.000
    Zr304   Zr   0.27787   0.69373   0.37635   1.000
    Zr305   Zr   0.27787   0.58413   0.87635   1.000
    Zr306   Zr   0.41587   0.69373   0.87635   1.000
    Zr307   Zr   0.30627   0.72213   0.87635   1.000
    Zr308   Zr   0.91747   0.94453   0.29031   1.000
    Zr309   Zr   0.02707   0.08253   0.29031   1.000
    Zr310   Zr   0.05547   0.97293   0.29031   1.000
    Zr311   Zr   0.72213   0.41587   0.12365   1.000
    Zr312   Zr   0.58413   0.30627   0.12365   1.000
    Zr313   Zr   0.69373   0.27787   0.12365   1.000
    Zr314   Zr   0.08253   0.05547   0.70969   1.000
    Zr315   Zr   0.97293   0.91747   0.70969   1.000
    Zr316   Zr   0.94453   0.02707   0.70969   1.000
    Zr317   Zr   0.94453   0.91747   0.20969   1.000
    Zr318   Zr   0.08253   0.02707   0.20969   1.000
    Zr319   Zr   0.97293   0.05547   0.20969   1.000
    Zr320   Zr   0.58413   0.27787   0.62365   1.000
    Zr321   Zr   0.69373   0.41587   0.62365   1.000
    Zr322   Zr   0.72213   0.30627   0.62365   1.000
    Zr323   Zr   0.19470   0.57790   0.47220   1.000
    Zr324   Zr   0.42210   0.61680   0.47220   1.000
    Zr325   Zr   0.80530   0.38320   0.02780   1.000
    Zr326   Zr   0.57790   0.19470   0.02780   1.000
    Zr327   Zr   0.61680   0.42210   0.02780   1.000
    Zr328   Zr   0.61680   0.19470   0.52780   1.000
    Zr329   Zr   0.80530   0.42210   0.52780   1.000
    Zr330   Zr   0.57790   0.38320   0.52780   1.000
    Zr331   Zr   0.19470   0.61680   0.97220   1.000
    Zr332   Zr   0.42210   0.80530   0.97220   1.000
    Zr333   Zr   0.38320   0.57790   0.97220   1.000
    Zr334   Zr   0.04987   0.13863   0.80553   1.000
    Zr335   Zr   0.86137   0.91123   0.80553   1.000
    Zr336   Zr   0.08877   0.95013   0.80553   1.000
    Zr337   Zr   0.47197   0.71653   0.36113   1.000
    Zr338   Zr   0.24457   0.52803   0.36113   1.000
    Zr339   Zr   0.28347   0.75543   0.36113   1.000
    Zr340   Zr   0.28347   0.52803   0.86113   1.000
    Zr341   Zr   0.47197   0.75543   0.86113   1.000
    Zr342   Zr   0.24457   0.71653   0.86113   1.000
    Zr343   Zr   0.86137   0.95013   0.30553   1.000
    Zr344   Zr   0.08877   0.13863   0.30553   1.000
    Zr345   Zr   0.04987   0.91123   0.30553   1.000
    Zr346   Zr   0.71653   0.47197   0.13887   1.000
    Zr347   Zr   0.52803   0.24457   0.13887   1.000
    Zr348   Zr   0.75543   0.28347   0.13887   1.000
    Zr349   Zr   0.13863   0.04987   0.69447   1.000
    Zr350   Zr   0.91123   0.86137   0.69447   1.000
    Zr351   Zr   0.95013   0.08877   0.69447   1.000
    Zr352   Zr   0.95013   0.86137   0.19447   1.000
    Zr353   Zr   0.13863   0.08877   0.19447   1.000
    Zr354   Zr   0.91123   0.04987   0.19447   1.000
    Zr355   Zr   0.52803   0.28347   0.63887   1.000
    Zr356   Zr   0.75543   0.47197   0.63887   1.000
    Zr357   Zr   0.71653   0.24457   0.63887   1.000
    Zr358   Zr   0.80920   0.41790   0.40243   1.000
    Zr359   Zr   0.58210   0.39130   0.40243   1.000
    Zr360   Zr   0.19080   0.60870   0.09757   1.000
    Zr361   Zr   0.41790   0.80920   0.09757   1.000
    Zr362   Zr   0.39130   0.58210   0.09757   1.000
    Zr363   Zr   0.39130   0.80920   0.59757   1.000
    Zr364   Zr   0.19080   0.58210   0.59757   1.000
    Zr365   Zr   0.41790   0.60870   0.59757   1.000
    Zr366   Zr   0.80920   0.39130   0.90243   1.000
    Zr367   Zr   0.58210   0.19080   0.90243   1.000
    Zr368   Zr   0.60870   0.41790   0.90243   1.000
    Zr369   Zr   0.27537   0.52413   0.73576   1.000
    Zr370   Zr   0.47587   0.75123   0.73576   1.000
    Zr371   Zr   0.24877   0.72463   0.73576   1.000
    Zr372   Zr   0.85747   0.94203   0.43090   1.000
    Zr373   Zr   0.08457   0.14253   0.43090   1.000
    Zr374   Zr   0.05797   0.91543   0.43090   1.000
    Zr375   Zr   0.05797   0.14253   0.93090   1.000
    Zr376   Zr   0.85747   0.91543   0.93090   1.000
    Zr377   Zr   0.08457   0.94203   0.93090   1.000
    Zr378   Zr   0.47587   0.72463   0.23576   1.000
    Zr379   Zr   0.24877   0.52413   0.23576   1.000
    Zr380   Zr   0.27537   0.75123   0.23576   1.000
    Zr381   Zr   0.94203   0.85747   0.06910   1.000
    Zr382   Zr   0.14253   0.08457   0.06910   1.000
    Zr383   Zr   0.91543   0.05797   0.06910   1.000
    Zr384   Zr   0.52413   0.27537   0.76424   1.000
    Zr385   Zr   0.75123   0.47587   0.76424   1.000
    Zr386   Zr   0.72463   0.24877   0.76424   1.000
    Zr387   Zr   0.72463   0.47587   0.26424   1.000
    Zr388   Zr   0.52413   0.24877   0.26424   1.000
    Zr389   Zr   0.75123   0.27537   0.26424   1.000
    Zr390   Zr   0.14253   0.05797   0.56910   1.000
    Zr391   Zr   0.91543   0.85747   0.56910   1.000
    Zr392   Zr   0.94203   0.08457   0.56910   1.000
    Zr393   Zr   0.75010   0.38260   0.41916   1.000
    Zr394   Zr   0.61740   0.36750   0.41916   1.000
    Zr395   Zr   0.24990   0.63250   0.08084   1.000
    Zr396   Zr   0.38260   0.75010   0.08084   1.000
    Zr397   Zr   0.36750   0.61740   0.08084   1.000
    Zr398   Zr   0.36750   0.75010   0.58084   1.000
    Zr399   Zr   0.24990   0.61740   0.58084   1.000
    Zr400   Zr   0.38260   0.63250   0.58084   1.000
    Zr401   Zr   0.75010   0.36750   0.91916   1.000
    Zr402   Zr   0.61740   0.24990   0.91916   1.000
    Zr403   Zr   0.63250   0.38260   0.91916   1.000
    Zr404   Zr   0.29917   0.58323   0.75249   1.000
    Zr405   Zr   0.41677   0.71593   0.75249   1.000
    Zr406   Zr   0.28407   0.70083   0.75249   1.000
    Zr407   Zr   0.91657   0.96583   0.41417   1.000
    Zr408   Zr   0.04927   0.08343   0.41417   1.000
    Zr409   Zr   0.03417   0.95073   0.41417   1.000
    Zr410   Zr   0.03417   0.08343   0.91417   1.000
    Zr411   Zr   0.91657   0.95073   0.91417   1.000
    Zr412   Zr   0.04927   0.96583   0.91417   1.000
    Zr413   Zr   0.41677   0.70083   0.25249   1.000
    Zr414   Zr   0.28407   0.58323   0.25249   1.000
    Zr415   Zr   0.29917   0.71593   0.25249   1.000
    Zr416   Zr   0.96583   0.91657   0.08583   1.000
    Zr417   Zr   0.08343   0.04927   0.08583   1.000
    Zr418   Zr   0.95073   0.03417   0.08583   1.000
    Zr419   Zr   0.58323   0.29917   0.74751   1.000
    Zr420   Zr   0.71593   0.41677   0.74751   1.000
    Zr421   Zr   0.70083   0.28407   0.74751   1.000
    Zr422   Zr   0.70083   0.41677   0.24751   1.000
    Zr423   Zr   0.58323   0.28407   0.24751   1.000
    Zr424   Zr   0.71593   0.29917   0.24751   1.000
    Zr425   Zr   0.08343   0.03417   0.58583   1.000
    Zr426   Zr   0.95073   0.91657   0.58583   1.000
    Zr427   Zr   0.96583   0.04927   0.58583   1.000
    Zr428   Zr   0.86740   0.95720   0.54405   1.000
    Zr429   Zr   0.04280   0.91020   0.54405   1.000
    Zr430   Zr   0.13260   0.08980   0.95595   1.000
    Zr431   Zr   0.95720   0.86740   0.95595   1.000
    Zr432   Zr   0.91020   0.04280   0.95595   1.000
    Zr433   Zr   0.91020   0.86740   0.45595   1.000
    Zr434   Zr   0.13260   0.04280   0.45595   1.000
    Zr435   Zr   0.95720   0.08980   0.45595   1.000
    Zr436   Zr   0.86740   0.91020   0.04405   1.000
    Zr437   Zr   0.04280   0.13260   0.04405   1.000
    Zr438   Zr   0.08980   0.95720   0.04405   1.000
    Zr439   Zr   0.75647   0.46593   0.87738   1.000
    Zr440   Zr   0.53407   0.29053   0.87738   1.000
    Zr441   Zr   0.70947   0.24353   0.87738   1.000
    Zr442   Zr   0.79927   0.42313   0.28928   1.000
    Zr443   Zr   0.62387   0.20073   0.28928   1.000
    Zr444   Zr   0.57687   0.37613   0.28928   1.000
    Zr445   Zr   0.57687   0.20073   0.78928   1.000
    Zr446   Zr   0.79927   0.37613   0.78928   1.000
    Zr447   Zr   0.62387   0.42313   0.78928   1.000
    Zr448   Zr   0.53407   0.24353   0.37738   1.000
    Zr449   Zr   0.70947   0.46593   0.37738   1.000
    Zr450   Zr   0.75647   0.29053   0.37738   1.000
    Zr451   Zr   0.42313   0.79927   0.21072   1.000
    Zr452   Zr   0.20073   0.62387   0.21072   1.000
    Zr453   Zr   0.37613   0.57687   0.21072   1.000
    Zr454   Zr   0.46593   0.75647   0.62262   1.000
    Zr455   Zr   0.29053   0.53407   0.62262   1.000
    Zr456   Zr   0.24353   0.70947   0.62262   1.000
    Zr457   Zr   0.24353   0.53407   0.12262   1.000
    Zr458   Zr   0.46593   0.70947   0.12262   1.000
    Zr459   Zr   0.29053   0.75647   0.12262   1.000
    Zr460   Zr   0.20073   0.57687   0.71072   1.000
    Zr461   Zr   0.37613   0.79927   0.71072   1.000
    Zr462   Zr   0.42313   0.62387   0.71072   1.000
    Zr463   Zr   0.47200   0.76130   0.49590   1.000
    Zr464   Zr   0.23870   0.71070   0.49590   1.000
    Zr465   Zr   0.52800   0.28930   0.00410   1.000
    Zr466   Zr   0.76130   0.47200   0.00410   1.000
    Zr467   Zr   0.71070   0.23870   0.00410   1.000
    Zr468   Zr   0.71070   0.47200   0.50410   1.000
    Zr469   Zr   0.52800   0.23870   0.50410   1.000
    Zr470   Zr   0.76130   0.28930   0.50410   1.000
    Zr471   Zr   0.47200   0.71070   0.99590   1.000
    Zr472   Zr   0.23870   0.52800   0.99590   1.000
    Zr473   Zr   0.28930   0.76130   0.99590   1.000
    Zr474   Zr   0.95597   0.86133   0.82923   1.000
    Zr475   Zr   0.13867   0.09463   0.82923   1.000
    Zr476   Zr   0.90537   0.04403   0.82923   1.000
    Zr477   Zr   0.19467   0.62263   0.33743   1.000
    Zr478   Zr   0.42797   0.80533   0.33743   1.000
    Zr479   Zr   0.37737   0.57203   0.33743   1.000
    Zr480   Zr   0.37737   0.80533   0.83743   1.000
    Zr481   Zr   0.19467   0.57203   0.83743   1.000
    Zr482   Zr   0.42797   0.62263   0.83743   1.000
    Zr483   Zr   0.13867   0.04403   0.32923   1.000
    Zr484   Zr   0.90537   0.86133   0.32923   1.000
    Zr485   Zr   0.95597   0.09463   0.32923   1.000
    Zr486   Zr   0.62263   0.19467   0.16257   1.000
    Zr487   Zr   0.80533   0.42797   0.16257   1.000
    Zr488   Zr   0.57203   0.37737   0.16257   1.000
    Zr489   Zr   0.86133   0.95597   0.67077   1.000
    Zr490   Zr   0.09463   0.13867   0.67077   1.000
    Zr491   Zr   0.04403   0.90537   0.67077   1.000
    Zr492   Zr   0.04403   0.13867   0.17077   1.000
    Zr493   Zr   0.86133   0.90537   0.17077   1.000
    Zr494   Zr   0.09463   0.95597   0.17077   1.000
    Zr495   Zr   0.80533   0.37737   0.66257   1.000
    Zr496   Zr   0.57203   0.19467   0.66257   1.000
    Zr497   Zr   0.62263   0.42797   0.66257   1.000
    Zr498   Zr   0.20070   0.59880   0.46170   1.000
    Zr499   Zr   0.40120   0.60190   0.46170   1.000
    Zr500   Zr   0.79930   0.39810   0.03830   1.000
    Zr501   Zr   0.59880   0.20070   0.03830   1.000
    Zr502   Zr   0.60190   0.40120   0.03830   1.000
    Zr503   Zr   0.60190   0.20070   0.53830   1.000
    Zr504   Zr   0.79930   0.40120   0.53830   1.000
    Zr505   Zr   0.59880   0.39810   0.53830   1.000
    Zr506   Zr   0.20070   0.60190   0.96170   1.000
    Zr507   Zr   0.40120   0.79930   0.96170   1.000
    Zr508   Zr   0.39810   0.59880   0.96170   1.000
    Zr509   Zr   0.06477   0.13263   0.79503   1.000
    Zr510   Zr   0.86737   0.93213   0.79503   1.000
    Zr511   Zr   0.06787   0.93523   0.79503   1.000
    Zr512   Zr   0.46597   0.73143   0.37163   1.000
    Zr513   Zr   0.26547   0.53403   0.37163   1.000
    Zr514   Zr   0.26857   0.73453   0.37163   1.000
    Zr515   Zr   0.26857   0.53403   0.87163   1.000
    Zr516   Zr   0.46597   0.73453   0.87163   1.000
    Zr517   Zr   0.26547   0.73143   0.87163   1.000
    Zr518   Zr   0.86737   0.93523   0.29503   1.000
    Zr519   Zr   0.06787   0.13263   0.29503   1.000
    Zr520   Zr   0.06477   0.93213   0.29503   1.000
    Zr521   Zr   0.73143   0.46597   0.12837   1.000
    Zr522   Zr   0.53403   0.26547   0.12837   1.000
    Zr523   Zr   0.73453   0.26857   0.12837   1.000
    Zr524   Zr   0.13263   0.06477   0.70497   1.000
    Zr525   Zr   0.93213   0.86737   0.70497   1.000
    Zr526   Zr   0.93523   0.06787   0.70497   1.000
    Zr527   Zr   0.93523   0.86737   0.20497   1.000
    Zr528   Zr   0.13263   0.06787   0.20497   1.000
    Zr529   Zr   0.93213   0.06477   0.20497   1.000
    Zr530   Zr   0.53403   0.26857   0.62837   1.000
    Zr531   Zr   0.73453   0.46597   0.62837   1.000
    Zr532   Zr   0.73143   0.26547   0.62837   1.000
    Zr533   Zr   0.80350   0.41450   0.41291   1.000
    Zr534   Zr   0.58550   0.38900   0.41291   1.000
    Zr535   Zr   0.19650   0.61100   0.08709   1.000
    Zr536   Zr   0.41450   0.80350   0.08709   1.000
    Zr537   Zr   0.38900   0.58550   0.08709   1.000
    Zr538   Zr   0.38900   0.80350   0.58709   1.000
    Zr539   Zr   0.19650   0.58550   0.58709   1.000
    Zr540   Zr   0.41450   0.61100   0.58709   1.000
    Zr541   Zr   0.80350   0.38900   0.91291   1.000
    Zr542   Zr   0.58550   0.19650   0.91291   1.000
    Zr543   Zr   0.61100   0.41450   0.91291   1.000
    Zr544   Zr   0.27767   0.52983   0.74624   1.000
    Zr545   Zr   0.47017   0.74783   0.74624   1.000
    Zr546   Zr   0.25217   0.72233   0.74624   1.000
    Zr547   Zr   0.86317   0.94433   0.42042   1.000
    Zr548   Zr   0.08117   0.13683   0.42042   1.000
    Zr549   Zr   0.05567   0.91883   0.42042   1.000
    Zr550   Zr   0.05567   0.13683   0.92042   1.000
    Zr551   Zr   0.86317   0.91883   0.92042   1.000
    Zr552   Zr   0.08117   0.94433   0.92042   1.000
    Zr553   Zr   0.47017   0.72233   0.24624   1.000
    Zr554   Zr   0.25217   0.52983   0.24624   1.000
    Zr555   Zr   0.27767   0.74783   0.24624   1.000
    Zr556   Zr   0.94433   0.86317   0.07958   1.000
    Zr557   Zr   0.13683   0.08117   0.07958   1.000
    Zr558   Zr   0.91883   0.05567   0.07958   1.000
    Zr559   Zr   0.52983   0.27767   0.75376   1.000
    Zr560   Zr   0.74783   0.47017   0.75376   1.000
    Zr561   Zr   0.72233   0.25217   0.75376   1.000
    Zr562   Zr   0.72233   0.47017   0.25376   1.000
    Zr563   Zr   0.52983   0.25217   0.25376   1.000
    Zr564   Zr   0.74783   0.27767   0.25376   1.000
    Zr565   Zr   0.13683   0.05567   0.57958   1.000
    Zr566   Zr   0.91883   0.86317   0.57958   1.000
    Zr567   Zr   0.94433   0.08117   0.57958   1.000
    O568    O    0.54300   0.31590   0.00526   1.000
    O569    O    0.53345   0.26215   0.00555   1.000
    O570    O    0.68410   0.22710   0.00526   1.000
    O571    O    0.73785   0.27130   0.00555   1.000
    O572    O    0.77290   0.45700   0.00526   1.000
    O573    O    0.72870   0.46655   0.00555   1.000
    O574    O    0.76789   0.40244   0.01010   1.000
    O575    O    0.63454   0.23211   0.01010   1.000
    O576    O    0.59756   0.36546   0.01010   1.000
    O577    O    0.57524   0.24185   0.01040   1.000
    O578    O    0.66661   0.42476   0.01040   1.000
    O579    O    0.75815   0.33338   0.01040   1.000
    O580    O    0.59474   0.22170   0.02079   1.000
    O581    O    0.62696   0.40526   0.02079   1.000
    O582    O    0.70900   0.34809   0.01678   1.000
    O583    O    0.77829   0.37304   0.02079   1.000
    O584    O    0.66670   0.33330   0.02813   1.000
    O585    O    0.60935   0.41165   0.03305   1.000
    O586    O    0.58835   0.19770   0.03305   1.000
    O587    O    0.80230   0.39065   0.03305   1.000
    O588    O    0.65315   0.29205   0.03976   1.000
    O589    O    0.70795   0.36105   0.03976   1.000
    O590    O    0.63895   0.34685   0.03976   1.000
    O591    O    0.60655   0.38080   0.04066   1.000
    O592    O    0.61920   0.22575   0.04066   1.000
    O593    O    0.77425   0.39345   0.04066   1.000
    O594    O    0.88225   0.89705   0.04539   1.000
    O595    O    0.87140   0.93695   0.04651   1.000
    O596    O    0.01480   0.11775   0.04539   1.000
    O597    O    0.06555   0.12860   0.04651   1.000
    O598    O    0.10295   0.98520   0.04539   1.000
    O599    O    0.06305   0.93445   0.04651   1.000
    O600    O    0.96603   0.06632   0.05166   1.000
    O601    O    0.93368   0.89971   0.05166   1.000
    O602    O    0.10029   0.03396   0.05166   1.000
    O603    O    0.91033   0.99672   0.05277   1.000
    O604    O    0.08639   0.08967   0.05277   1.000
    O605    O    0.00328   0.91361   0.05277   1.000
    O606    O    0.95615   0.88650   0.06284   1.000
    O607    O    0.04224   0.02737   0.05952   1.000
    O608    O    0.11350   0.06965   0.06284   1.000
    O609    O    0.97264   0.01487   0.05952   1.000
    O610    O    0.93035   0.04385   0.06284   1.000
    O611    O    0.13968   0.08287   0.07434   1.000
    O612    O    0.94318   0.86032   0.07434   1.000
    O613    O    0.91713   0.05682   0.07434   1.000
    O614    O    0.93478   0.04492   0.08270   1.000
    O615    O    0.11013   0.06522   0.08270   1.000
    O616    O    0.95508   0.88987   0.08270   1.000
    O617    O    0.97537   0.01708   0.08273   1.000
    O618    O    0.04172   0.02463   0.08273   1.000
    O619    O    0.98292   0.95828   0.08273   1.000
    O620    O    0.35042   0.64203   0.08393   1.000
    O621    O    0.37825   0.60145   0.08397   1.000
    O622    O    0.35797   0.70838   0.08393   1.000
    O623    O    0.39855   0.77680   0.08397   1.000
    O624    O    0.29162   0.64958   0.08393   1.000
    O625    O    0.22320   0.62175   0.08397   1.000
    O626    O    0.39015   0.58380   0.09233   1.000
    O627    O    0.41620   0.80635   0.09233   1.000
    O628    O    0.19365   0.60985   0.09233   1.000
    O629    O    0.37719   0.59702   0.10383   1.000
    O630    O    0.21983   0.62281   0.10383   1.000
    O631    O    0.40298   0.78017   0.10383   1.000
    O632    O    0.34820   0.63930   0.10715   1.000
    O633    O    0.36070   0.70890   0.10715   1.000
    O634    O    0.33005   0.57700   0.11390   1.000
    O635    O    0.39965   0.63270   0.11501   1.000
    O636    O    0.24695   0.66995   0.11390   1.000
    O637    O    0.23305   0.60035   0.11501   1.000
    O638    O    0.42300   0.75305   0.11390   1.000
    O639    O    0.36730   0.76695   0.11501   1.000
    O640    O    0.46193   0.73222   0.12016   1.000
    O641    O    0.26778   0.72972   0.12016   1.000
    O642    O    0.27028   0.53807   0.12016   1.000
    O643    O    0.31853   0.76962   0.12128   1.000
    O644    O    0.23038   0.54892   0.12128   1.000
    O645    O    0.45108   0.68147   0.12128   1.000
    O646    O    0.71413   0.27322   0.12601   1.000
    O647    O    0.68018   0.30562   0.12691   1.000
    O648    O    0.55908   0.28587   0.12601   1.000
    O649    O    0.62538   0.31982   0.12691   1.000
    O650    O    0.72678   0.44092   0.12601   1.000
    O651    O    0.69438   0.37462   0.12691   1.000
    O652    O    0.53103   0.25502   0.13362   1.000
    O653    O    0.74498   0.27602   0.13362   1.000
    O654    O    0.72398   0.46897   0.13362   1.000
    O655    O    0.66663   0.33337   0.13853   1.000
    O656    O    0.73859   0.29363   0.14588   1.000
    O657    O    0.55504   0.26141   0.14588   1.000
    O658    O    0.70637   0.44496   0.14588   1.000
    O659    O    0.68142   0.37566   0.14989   1.000
    O660    O    0.66672   0.42481   0.15627   1.000
    O661    O    0.73577   0.43456   0.15656   1.000
    O662    O    0.75809   0.33328   0.15627   1.000
    O663    O    0.69879   0.26423   0.15656   1.000
    O664    O    0.57519   0.24191   0.15627   1.000
    O665    O    0.56544   0.30121   0.15656   1.000
    O666    O    0.60463   0.40452   0.16111   1.000
    O667    O    0.79988   0.39537   0.16111   1.000
    O668    O    0.59548   0.20012   0.16111   1.000
    O669    O    0.56043   0.35077   0.16140   1.000
    O670    O    0.79033   0.43957   0.16140   1.000
    O671    O    0.64923   0.20967   0.16140   1.000
    O672    O    0.10623   0.98257   0.17193   1.000
    O673    O    0.06203   0.92882   0.17222   1.000
    O674    O    0.87633   0.89377   0.17193   1.000
    O675    O    0.86678   0.93797   0.17222   1.000
    O676    O    0.01743   0.12367   0.17193   1.000
    O677    O    0.07118   0.13322   0.17222   1.000
    O678    O    0.10123   0.03213   0.17677   1.000
    O679    O    0.93090   0.89877   0.17677   1.000
    O680    O    0.96787   0.06910   0.17677   1.000
    O681    O    0.99995   0.90852   0.17706   1.000
    O682    O    0.09148   0.09143   0.17706   1.000
    O683    O    0.90857   0.00005   0.17706   1.000
    O684    O    0.04233   0.02758   0.18345   1.000
    O685    O    0.97242   0.01475   0.18345   1.000
    O686    O    0.98525   0.95767   0.18345   1.000
    O687    O    0.99993   0.99997   0.19480   1.000
    O688    O    0.00003   0.00007   0.19480   1.000
    O689    O    0.00003   0.99997   0.19480   1.000
    O690    O    0.92168   0.05732   0.19972   1.000
    O691    O    0.94268   0.86437   0.19972   1.000
    O692    O    0.13563   0.07832   0.19972   1.000
    O693    O    0.10758   0.04747   0.20733   1.000
    O694    O    0.95253   0.06012   0.20733   1.000
    O695    O    0.93988   0.89242   0.20733   1.000
    O696    O    0.21558   0.65187   0.21206   1.000
    O697    O    0.20473   0.60112   0.21317   1.000
    O698    O    0.34813   0.56372   0.21206   1.000
    O699    O    0.39888   0.60362   0.21317   1.000
    O700    O    0.43628   0.78442   0.21206   1.000
    O701    O    0.39638   0.79527   0.21317   1.000
    O702    O    0.29937   0.56638   0.21832   1.000
    O703    O    0.26701   0.70063   0.21832   1.000
    O704    O    0.43362   0.73299   0.21832   1.000
    O705    O    0.41972   0.66339   0.21944   1.000
    O706    O    0.24367   0.58028   0.21944   1.000
    O707    O    0.33661   0.75633   0.21944   1.000
    O708    O    0.37557   0.68154   0.22618   1.000
    O709    O    0.44683   0.71052   0.22951   1.000
    O710    O    0.26369   0.55317   0.22951   1.000
    O711    O    0.31846   0.69403   0.22618   1.000
    O712    O    0.28948   0.73632   0.22951   1.000
    O713    O    0.27652   0.74953   0.24100   1.000
    O714    O    0.25047   0.52698   0.24100   1.000
    O715    O    0.47302   0.72348   0.24100   1.000
    O716    O    0.28842   0.73188   0.24937   1.000
    O717    O    0.26812   0.55653   0.24937   1.000
    O718    O    0.44347   0.71158   0.24937   1.000
    O719    O    0.31625   0.69130   0.24940   1.000
    O720    O    0.30870   0.62495   0.24940   1.000
    O721    O    0.37505   0.68375   0.24940   1.000
    O722    O    0.68375   0.37505   0.25060   1.000
    O723    O    0.71158   0.44347   0.25063   1.000
    O724    O    0.62495   0.30870   0.25060   1.000
    O725    O    0.55653   0.26812   0.25063   1.000
    O726    O    0.69130   0.31625   0.25060   1.000
    O727    O    0.73188   0.28842   0.25063   1.000
    O728    O    0.72348   0.47302   0.25900   1.000
    O729    O    0.52698   0.25047   0.25900   1.000
    O730    O    0.74953   0.27652   0.25900   1.000
    O731    O    0.71052   0.44683   0.27049   1.000
    O732    O    0.73631   0.28948   0.27049   1.000
    O733    O    0.55316   0.26369   0.27049   1.000
    O734    O    0.69403   0.31846   0.27382   1.000
    O735    O    0.68154   0.37557   0.27382   1.000
    O736    O    0.58028   0.24367   0.28056   1.000
    O737    O    0.56638   0.29937   0.28168   1.000
    O738    O    0.75633   0.33661   0.28056   1.000
    O739    O    0.70063   0.26701   0.28168   1.000
    O740    O    0.66339   0.41972   0.28056   1.000
    O741    O    0.73299   0.43362   0.28168   1.000
    O742    O    0.79527   0.39638   0.28683   1.000
    O743    O    0.60112   0.20473   0.28683   1.000
    O744    O    0.60362   0.39888   0.28683   1.000
    O745    O    0.78442   0.43628   0.28794   1.000
    O746    O    0.65187   0.21558   0.28794   1.000
    O747    O    0.56372   0.34813   0.28794   1.000
    O748    O    0.89242   0.93988   0.29267   1.000
    O749    O    0.04747   0.10758   0.29267   1.000
    O750    O    0.06012   0.95253   0.29267   1.000
    O751    O    0.07832   0.13563   0.30028   1.000
    O752    O    0.86437   0.94268   0.30028   1.000
    O753    O    0.05732   0.92168   0.30028   1.000
    O754    O    0.99997   0.99993   0.30520   1.000
    O755    O    0.00007   0.00003   0.30520   1.000
    O756    O    0.99997   0.00003   0.30520   1.000
    O757    O    0.02758   0.04233   0.31655   1.000
    O758    O    0.95767   0.98525   0.31655   1.000
    O759    O    0.01475   0.97242   0.31655   1.000
    O760    O    0.00005   0.90857   0.32294   1.000
    O761    O    0.06910   0.96787   0.32323   1.000
    O762    O    0.09143   0.09148   0.32294   1.000
    O763    O    0.03213   0.10123   0.32323   1.000
    O764    O    0.90852   0.99995   0.32294   1.000
    O765    O    0.89877   0.93090   0.32323   1.000
    O766    O    0.13322   0.07118   0.32778   1.000
    O767    O    0.93797   0.86678   0.32778   1.000
    O768    O    0.92882   0.06203   0.32778   1.000
    O769    O    0.12367   0.01743   0.32807   1.000
    O770    O    0.89377   0.87633   0.32807   1.000
    O771    O    0.98257   0.10623   0.32807   1.000
    O772    O    0.43957   0.79033   0.33860   1.000
    O773    O    0.39537   0.79988   0.33889   1.000
    O774    O    0.20967   0.64923   0.33860   1.000
    O775    O    0.20012   0.59548   0.33889   1.000
    O776    O    0.35077   0.56043   0.33860   1.000
    O777    O    0.40452   0.60463   0.33889   1.000
    O778    O    0.30121   0.56544   0.34344   1.000
    O779    O    0.26423   0.69879   0.34344   1.000
    O780    O    0.43456   0.73577   0.34344   1.000
    O781    O    0.24191   0.57519   0.34373   1.000
    O782    O    0.42481   0.66672   0.34373   1.000
    O783    O    0.33328   0.75809   0.34373   1.000
    O784    O    0.26141   0.55504   0.35412   1.000
    O785    O    0.29363   0.73859   0.35412   1.000
    O786    O    0.37566   0.68142   0.35011   1.000
    O787    O    0.44496   0.70637   0.35412   1.000
    O788    O    0.33337   0.66663   0.36147   1.000
    O789    O    0.27602   0.74498   0.36638   1.000
    O790    O    0.25502   0.53103   0.36638   1.000
    O791    O    0.46897   0.72398   0.36638   1.000
    O792    O    0.31982   0.62538   0.37309   1.000
    O793    O    0.37462   0.69438   0.37309   1.000
    O794    O    0.30562   0.68018   0.37309   1.000
    O795    O    0.44092   0.72678   0.37399   1.000
    O796    O    0.28587   0.55908   0.37399   1.000
    O797    O    0.27322   0.71413   0.37399   1.000
    O798    O    0.54892   0.23038   0.37872   1.000
    O799    O    0.53807   0.27028   0.37984   1.000
    O800    O    0.76962   0.31853   0.37872   1.000
    O801    O    0.72972   0.26778   0.37984   1.000
    O802    O    0.68147   0.45108   0.37872   1.000
    O803    O    0.73222   0.46193   0.37984   1.000
    O804    O    0.60035   0.23305   0.38499   1.000
    O805    O    0.76695   0.36730   0.38499   1.000
    O806    O    0.63270   0.39965   0.38499   1.000
    O807    O    0.57700   0.33005   0.38610   1.000
    O808    O    0.75305   0.42300   0.38610   1.000
    O809    O    0.66995   0.24695   0.38610   1.000
    O810    O    0.63930   0.34820   0.39285   1.000
    O811    O    0.59702   0.37719   0.39617   1.000
    O812    O    0.78017   0.40298   0.39617   1.000
    O813    O    0.65180   0.29110   0.39285   1.000
    O814    O    0.62281   0.21983   0.39617   1.000
    O815    O    0.60985   0.19365   0.40767   1.000
    O816    O    0.58380   0.39015   0.40767   1.000
    O817    O    0.80635   0.41620   0.40767   1.000
    O818    O    0.62175   0.22320   0.41604   1.000
    O819    O    0.77680   0.39855   0.41604   1.000
    O820    O    0.60145   0.37825   0.41604   1.000
    O821    O    0.64958   0.29162   0.41607   1.000
    O822    O    0.64203   0.35042   0.41607   1.000
    O823    O    0.70838   0.35797   0.41607   1.000
    O824    O    0.01708   0.97537   0.41727   1.000
    O825    O    0.04492   0.93478   0.41730   1.000
    O826    O    0.02463   0.04172   0.41727   1.000
    O827    O    0.06522   0.11013   0.41730   1.000
    O828    O    0.95828   0.98292   0.41727   1.000
    O829    O    0.88987   0.95508   0.41730   1.000
    O830    O    0.05682   0.91713   0.42566   1.000
    O831    O    0.08287   0.13968   0.42566   1.000
    O832    O    0.86032   0.94318   0.42566   1.000
    O833    O    0.06965   0.11350   0.43716   1.000
    O834    O    0.88650   0.95615   0.43716   1.000
    O835    O    0.04385   0.93035   0.43716   1.000
    O836    O    0.01487   0.97264   0.44048   1.000
    O837    O    0.02737   0.04224   0.44048   1.000
    O838    O    0.91362   0.00328   0.44723   1.000
    O839    O    0.89972   0.93368   0.44834   1.000
    O840    O    0.99672   0.91034   0.44723   1.000
    O841    O    0.06632   0.96604   0.44834   1.000
    O842    O    0.08967   0.08639   0.44723   1.000
    O843    O    0.03397   0.10029   0.44834   1.000
    O844    O    0.93445   0.06305   0.45350   1.000
    O845    O    0.12860   0.06555   0.45350   1.000
    O846    O    0.93695   0.87140   0.45350   1.000
    O847    O    0.11775   0.01480   0.45461   1.000
    O848    O    0.98520   0.10295   0.45461   1.000
    O849    O    0.89705   0.88225   0.45461   1.000
    O850    O    0.38080   0.60655   0.45934   1.000
    O851    O    0.34685   0.63895   0.46025   1.000
    O852    O    0.39345   0.77425   0.45934   1.000
    O853    O    0.36105   0.70795   0.46025   1.000
    O854    O    0.22575   0.61920   0.45934   1.000
    O855    O    0.29205   0.65315   0.46025   1.000
    O856    O    0.19770   0.58835   0.46695   1.000
    O857    O    0.39065   0.80230   0.46695   1.000
    O858    O    0.41165   0.60935   0.46695   1.000
    O859    O    0.33330   0.66670   0.47187   1.000
    O860    O    0.37304   0.77830   0.47921   1.000
    O861    O    0.22170   0.59474   0.47921   1.000
    O862    O    0.40526   0.62696   0.47921   1.000
    O863    O    0.34808   0.70900   0.48322   1.000
    O864    O    0.24185   0.57524   0.48961   1.000
    O865    O    0.23210   0.63454   0.48990   1.000
    O866    O    0.33338   0.75815   0.48961   1.000
    O867    O    0.40244   0.76790   0.48990   1.000
    O868    O    0.42476   0.66662   0.48961   1.000
    O869    O    0.36546   0.59757   0.48990   1.000
    O870    O    0.26215   0.53345   0.49445   1.000
    O871    O    0.46655   0.72870   0.49445   1.000
    O872    O    0.27130   0.73785   0.49445   1.000
    O873    O    0.31590   0.54300   0.49474   1.000
    O874    O    0.45700   0.77290   0.49474   1.000
    O875    O    0.22710   0.68410   0.49474   1.000
    O876    O    0.77290   0.31590   0.50526   1.000
    O877    O    0.72870   0.26215   0.50555   1.000
    O878    O    0.54300   0.22710   0.50526   1.000
    O879    O    0.53345   0.27130   0.50555   1.000
    O880    O    0.68410   0.45700   0.50526   1.000
    O881    O    0.73785   0.46655   0.50555   1.000
    O882    O    0.59756   0.23211   0.51011   1.000
    O883    O    0.76789   0.36546   0.51011   1.000
    O884    O    0.63454   0.40243   0.51011   1.000
    O885    O    0.75814   0.42476   0.51040   1.000
    O886    O    0.57524   0.33338   0.51040   1.000
    O887    O    0.66661   0.24186   0.51040   1.000
    O888    O    0.59474   0.37304   0.52079   1.000
    O889    O    0.77829   0.40526   0.52079   1.000
    O890    O    0.65191   0.29101   0.51678   1.000
    O891    O    0.62696   0.22170   0.52079   1.000
    O892    O    0.66670   0.33330   0.52814   1.000
    O893    O    0.60935   0.19770   0.53305   1.000
    O894    O    0.80230   0.41165   0.53305   1.000
    O895    O    0.58835   0.39065   0.53305   1.000
    O896    O    0.65315   0.36105   0.53976   1.000
    O897    O    0.70795   0.34685   0.53976   1.000
    O898    O    0.63895   0.29205   0.53976   1.000
    O899    O    0.60655   0.22575   0.54066   1.000
    O900    O    0.77425   0.38080   0.54066   1.000
    O901    O    0.61920   0.39345   0.54066   1.000
    O902    O    0.88225   0.98520   0.54539   1.000
    O903    O    0.87140   0.93445   0.54651   1.000
    O904    O    0.01480   0.89705   0.54539   1.000
    O905    O    0.06555   0.93695   0.54651   1.000
    O906    O    0.10295   0.11775   0.54539   1.000
    O907    O    0.06305   0.12860   0.54651   1.000
    O908    O    0.10029   0.06632   0.55166   1.000
    O909    O    0.96603   0.89971   0.55166   1.000
    O910    O    0.93368   0.03396   0.55166   1.000
    O911    O    0.00328   0.08966   0.55277   1.000
    O912    O    0.91033   0.91361   0.55277   1.000
    O913    O    0.08639   0.99672   0.55277   1.000
    O914    O    0.98513   0.02737   0.55951   1.000
    O915    O    0.95615   0.06965   0.56284   1.000
    O916    O    0.04224   0.01487   0.55952   1.000
    O917    O    0.11350   0.04385   0.56284   1.000
    O918    O    0.93035   0.88650   0.56284   1.000
    O919    O    0.94318   0.08287   0.57434   1.000
    O920    O    0.91713   0.86032   0.57434   1.000
    O921    O    0.13968   0.05682   0.57434   1.000
    O922    O    0.95508   0.06522   0.58270   1.000
    O923    O    0.93478   0.88987   0.58270   1.000
    O924    O    0.11013   0.04492   0.58270   1.000
    O925    O    0.98292   0.02463   0.58273   1.000
    O926    O    0.97537   0.95828   0.58273   1.000
    O927    O    0.04172   0.01708   0.58273   1.000
    O928    O    0.29162   0.64203   0.58393   1.000
    O929    O    0.22320   0.60145   0.58397   1.000
    O930    O    0.35042   0.70838   0.58393   1.000
    O931    O    0.37825   0.77680   0.58397   1.000
    O932    O    0.35797   0.64958   0.58393   1.000
    O933    O    0.39855   0.62175   0.58397   1.000
    O934    O    0.41620   0.60985   0.59233   1.000
    O935    O    0.19365   0.58380   0.59233   1.000
    O936    O    0.39015   0.80635   0.59233   1.000
    O937    O    0.40298   0.62281   0.60383   1.000
    O938    O    0.21983   0.59702   0.60383   1.000
    O939    O    0.37719   0.78017   0.60383   1.000
    O940    O    0.36070   0.65180   0.60715   1.000
    O941    O    0.34820   0.70890   0.60715   1.000
    O942    O    0.24695   0.57700   0.61390   1.000
    O943    O    0.23305   0.63270   0.61501   1.000
    O944    O    0.42300   0.66995   0.61390   1.000
    O945    O    0.36730   0.60035   0.61501   1.000
    O946    O    0.33005   0.75305   0.61390   1.000
    O947    O    0.39965   0.76695   0.61501   1.000
    O948    O    0.46193   0.72972   0.62016   1.000
    O949    O    0.26778   0.53807   0.62016   1.000
    O950    O    0.27028   0.73222   0.62016   1.000
    O951    O    0.23038   0.68147   0.62128   1.000
    O952    O    0.31853   0.54892   0.62128   1.000
    O953    O    0.45108   0.76962   0.62128   1.000
    O954    O    0.55908   0.27322   0.62601   1.000
    O955    O    0.62538   0.30562   0.62691   1.000
    O956    O    0.71413   0.44092   0.62601   1.000
    O957    O    0.68018   0.37462   0.62691   1.000
    O958    O    0.72678   0.28587   0.62601   1.000
    O959    O    0.69438   0.31982   0.62691   1.000
    O960    O    0.72398   0.25502   0.63362   1.000
    O961    O    0.74498   0.46897   0.63362   1.000
    O962    O    0.53103   0.27602   0.63362   1.000
    O963    O    0.66663   0.33337   0.63853   1.000
    O964    O    0.55504   0.29363   0.64588   1.000
    O965    O    0.73859   0.44496   0.64588   1.000
    O966    O    0.70637   0.26141   0.64588   1.000
    O967    O    0.62434   0.31858   0.64989   1.000
    O968    O    0.75809   0.42481   0.65627   1.000
    O969    O    0.69879   0.43456   0.65656   1.000
    O970    O    0.66672   0.24191   0.65627   1.000
    O971    O    0.73577   0.30121   0.65656   1.000
    O972    O    0.57519   0.33328   0.65627   1.000
    O973    O    0.56544   0.26423   0.65656   1.000
    O974    O    0.59548   0.39537   0.66111   1.000
    O975    O    0.79988   0.40452   0.66111   1.000
    O976    O    0.60463   0.20012   0.66111   1.000
    O977    O    0.56043   0.20967   0.66140   1.000
    O978    O    0.64923   0.43957   0.66140   1.000
    O979    O    0.79033   0.35077   0.66140   1.000
    O980    O    0.01743   0.89377   0.67193   1.000
    O981    O    0.07118   0.93797   0.67222   1.000
    O982    O    0.87633   0.98257   0.67193   1.000
    O983    O    0.86678   0.92882   0.67222   1.000
    O984    O    0.10623   0.12367   0.67193   1.000
    O985    O    0.06203   0.13322   0.67222   1.000
    O986    O    0.93090   0.03213   0.67677   1.000
    O987    O    0.10123   0.06910   0.67677   1.000
    O988    O    0.96787   0.89877   0.67677   1.000
    O989    O    0.90857   0.90852   0.67706   1.000
    O990    O    0.99995   0.09143   0.67706   1.000
    O991    O    0.09148   0.00005   0.67706   1.000
    O992    O    0.04233   0.01475   0.68345   1.000
    O993    O    0.98525   0.02758   0.68345   1.000
    O994    O    0.97242   0.95767   0.68345   1.000
    O995    O    0.00003   0.99997   0.69480   1.000
    O996    O    0.99993   0.99997   0.69480   1.000
    O997    O    0.00003   0.00007   0.69480   1.000
    O998    O    0.92168   0.86437   0.69972   1.000
    O999    O    0.13563   0.05732   0.69972   1.000
    O1000   O    0.94268   0.07832   0.69972   1.000
    O1001   O    0.95253   0.89242   0.70733   1.000
    O1002   O    0.10758   0.06012   0.70733   1.000
    O1003   O    0.93988   0.04747   0.70733   1.000
    O1004   O    0.43628   0.65187   0.71206   1.000
    O1005   O    0.39638   0.60112   0.71317   1.000
    O1006   O    0.21558   0.56372   0.71206   1.000
    O1007   O    0.20473   0.60362   0.71317   1.000
    O1008   O    0.34813   0.78442   0.71206   1.000
    O1009   O    0.39888   0.79527   0.71317   1.000
    O1010   O    0.29937   0.73299   0.71832   1.000
    O1011   O    0.43362   0.70063   0.71832   1.000
    O1012   O    0.26701   0.56638   0.71832   1.000
    O1013   O    0.24367   0.66339   0.71944   1.000
    O1014   O    0.33661   0.58028   0.71944   1.000
    O1015   O    0.41972   0.75633   0.71944   1.000
    O1016   O    0.30597   0.68154   0.72618   1.000
    O1017   O    0.26369   0.71052   0.72951   1.000
    O1018   O    0.28948   0.55316   0.72951   1.000
    O1019   O    0.37557   0.69403   0.72618   1.000
    O1020   O    0.44683   0.73631   0.72951   1.000
    O1021   O    0.27652   0.52698   0.74100   1.000
    O1022   O    0.25047   0.72348   0.74100   1.000
    O1023   O    0.47302   0.74953   0.74100   1.000
    O1024   O    0.28842   0.55653   0.74937   1.000
    O1025   O    0.44347   0.73188   0.74937   1.000
    O1026   O    0.26812   0.71158   0.74937   1.000
    O1027   O    0.31625   0.62495   0.74940   1.000
    O1028   O    0.37505   0.69130   0.74940   1.000
    O1029   O    0.30870   0.68375   0.74940   1.000
    O1030   O    0.62495   0.31625   0.75060   1.000
    O1031   O    0.55653   0.28842   0.75063   1.000
    O1032   O    0.69130   0.37505   0.75060   1.000
    O1033   O    0.73188   0.44347   0.75063   1.000
    O1034   O    0.68375   0.30870   0.75060   1.000
    O1035   O    0.71158   0.26812   0.75063   1.000
    O1036   O    0.52698   0.27652   0.75900   1.000
    O1037   O    0.72348   0.25047   0.75900   1.000
    O1038   O    0.74953   0.47302   0.75900   1.000
    O1039   O    0.55316   0.28948   0.77050   1.000
    O1040   O    0.73632   0.44683   0.77050   1.000
    O1041   O    0.71052   0.26369   0.77050   1.000
    O1042   O    0.69403   0.37557   0.77382   1.000
    O1043   O    0.68154   0.30597   0.77382   1.000
    O1044   O    0.75633   0.41972   0.78056   1.000
    O1045   O    0.70063   0.43362   0.78168   1.000
    O1046   O    0.66339   0.24367   0.78056   1.000
    O1047   O    0.73299   0.29937   0.78168   1.000
    O1048   O    0.58028   0.33661   0.78056   1.000
    O1049   O    0.56638   0.26701   0.78168   1.000
    O1050   O    0.60362   0.20473   0.78683   1.000
    O1051   O    0.79527   0.39888   0.78683   1.000
    O1052   O    0.60112   0.39638   0.78683   1.000
    O1053   O    0.78442   0.34813   0.78794   1.000
    O1054   O    0.65187   0.43628   0.78794   1.000
    O1055   O    0.56372   0.21558   0.78794   1.000
    O1056   O    0.89242   0.95253   0.79267   1.000
    O1057   O    0.06012   0.10758   0.79267   1.000
    O1058   O    0.04747   0.93988   0.79267   1.000
    O1059   O    0.05732   0.13563   0.80028   1.000
    O1060   O    0.86437   0.92168   0.80028   1.000
    O1061   O    0.07832   0.94268   0.80028   1.000
    O1062   O    0.99997   0.99993   0.80520   1.000
    O1063   O    0.99997   0.00003   0.80520   1.000
    O1064   O    0.00007   0.00003   0.80520   1.000
    O1065   O    0.02758   0.98525   0.81655   1.000
    O1066   O    0.95767   0.97242   0.81655   1.000
    O1067   O    0.01475   0.04233   0.81655   1.000
    O1068   O    0.90852   0.90857   0.82294   1.000
    O1069   O    0.89877   0.96787   0.82323   1.000
    O1070   O    0.09143   0.99995   0.82294   1.000
    O1071   O    0.03213   0.93090   0.82323   1.000
    O1072   O    0.00005   0.09148   0.82294   1.000
    O1073   O    0.06910   0.10123   0.82323   1.000
    O1074   O    0.13322   0.06203   0.82778   1.000
    O1075   O    0.93797   0.07118   0.82778   1.000
    O1076   O    0.92882   0.86678   0.82778   1.000
    O1077   O    0.98257   0.87633   0.82807   1.000
    O1078   O    0.89377   0.01743   0.82807   1.000
    O1079   O    0.12367   0.10623   0.82807   1.000
    O1080   O    0.43957   0.64923   0.83860   1.000
    O1081   O    0.39537   0.59548   0.83889   1.000
    O1082   O    0.35077   0.79033   0.83860   1.000
    O1083   O    0.40452   0.79988   0.83889   1.000
    O1084   O    0.20967   0.56043   0.83860   1.000
    O1085   O    0.20012   0.60463   0.83889   1.000
    O1086   O    0.43456   0.69879   0.84344   1.000
    O1087   O    0.26423   0.56544   0.84344   1.000
    O1088   O    0.30121   0.73577   0.84344   1.000
    O1089   O    0.24191   0.66672   0.84373   1.000
    O1090   O    0.33328   0.57519   0.84373   1.000
    O1091   O    0.42481   0.75809   0.84373   1.000
    O1092   O    0.26141   0.70637   0.85412   1.000
    O1093   O    0.31858   0.62434   0.85011   1.000
    O1094   O    0.29363   0.55504   0.85412   1.000
    O1095   O    0.44496   0.73859   0.85412   1.000
    O1096   O    0.33337   0.66663   0.86147   1.000
    O1097   O    0.27602   0.53103   0.86638   1.000
    O1098   O    0.46897   0.74498   0.86638   1.000
    O1099   O    0.25502   0.72398   0.86638   1.000
    O1100   O    0.31982   0.69438   0.87309   1.000
    O1101   O    0.30562   0.62538   0.87309   1.000
    O1102   O    0.37462   0.68018   0.87309   1.000
    O1103   O    0.27322   0.55908   0.87399   1.000
    O1104   O    0.44092   0.71413   0.87399   1.000
    O1105   O    0.28587   0.72678   0.87399   1.000
    O1106   O    0.76962   0.45108   0.87872   1.000
    O1107   O    0.72972   0.46193   0.87984   1.000
    O1108   O    0.54892   0.31853   0.87872   1.000
    O1109   O    0.53807   0.26778   0.87984   1.000
    O1110   O    0.68147   0.23038   0.87872   1.000
    O1111   O    0.73222   0.27028   0.87984   1.000
    O1112   O    0.76695   0.39965   0.88499   1.000
    O1113   O    0.60035   0.36730   0.88499   1.000
    O1114   O    0.63270   0.23305   0.88499   1.000
    O1115   O    0.66995   0.42300   0.88610   1.000
    O1116   O    0.57700   0.24695   0.88610   1.000
    O1117   O    0.75305   0.33005   0.88610   1.000
    O1118   O    0.78017   0.37719   0.89617   1.000
    O1119   O    0.65180   0.36070   0.89285   1.000
    O1120   O    0.62281   0.40298   0.89617   1.000
    O1121   O    0.63930   0.29110   0.89285   1.000
    O1122   O    0.59702   0.21983   0.89617   1.000
    O1123   O    0.60985   0.41620   0.90767   1.000
    O1124   O    0.58380   0.19365   0.90767   1.000
    O1125   O    0.80635   0.39015   0.90767   1.000
    O1126   O    0.62175   0.39855   0.91604   1.000
    O1127   O    0.60145   0.22320   0.91604   1.000
    O1128   O    0.77680   0.37825   0.91604   1.000
    O1129   O    0.64958   0.35797   0.91607   1.000
    O1130   O    0.64203   0.29162   0.91607   1.000
    O1131   O    0.70838   0.35042   0.91607   1.000
    O1132   O    0.01708   0.04172   0.91727   1.000
    O1133   O    0.04492   0.11013   0.91730   1.000
    O1134   O    0.95828   0.97537   0.91727   1.000
    O1135   O    0.88987   0.93478   0.91730   1.000
    O1136   O    0.02463   0.98292   0.91727   1.000
    O1137   O    0.06522   0.95508   0.91730   1.000
    O1138   O    0.08287   0.94318   0.92566   1.000
    O1139   O    0.05682   0.13968   0.92566   1.000
    O1140   O    0.86032   0.91713   0.92566   1.000
    O1141   O    0.04385   0.11350   0.93716   1.000
    O1142   O    0.88650   0.93035   0.93716   1.000
    O1143   O    0.06965   0.95615   0.93716   1.000
    O1144   O    0.95776   0.97264   0.94048   1.000
    O1145   O    0.02737   0.98513   0.94048   1.000
    O1146   O    0.91361   0.91033   0.94723   1.000
    O1147   O    0.89972   0.96603   0.94835   1.000
    O1148   O    0.99672   0.08639   0.94723   1.000
    O1149   O    0.06632   0.10029   0.94835   1.000
    O1150   O    0.08967   0.00328   0.94723   1.000
    O1151   O    0.03397   0.93368   0.94835   1.000
    O1152   O    0.93695   0.06555   0.95349   1.000
    O1153   O    0.93445   0.87140   0.95349   1.000
    O1154   O    0.12860   0.06305   0.95349   1.000
    O1155   O    0.11775   0.10295   0.95461   1.000
    O1156   O    0.98520   0.88225   0.95461   1.000
    O1157   O    0.89705   0.01480   0.95461   1.000
    O1158   O    0.39345   0.61920   0.95934   1.000
    O1159   O    0.36105   0.65315   0.96025   1.000
    O1160   O    0.38080   0.77425   0.95934   1.000
    O1161   O    0.34685   0.70795   0.96025   1.000
    O1162   O    0.22575   0.60655   0.95934   1.000
    O1163   O    0.29205   0.63895   0.96025   1.000
    O1164   O    0.39065   0.58835   0.96695   1.000
    O1165   O    0.41165   0.80230   0.96695   1.000
    O1166   O    0.19770   0.60935   0.96695   1.000
    O1167   O    0.33330   0.66670   0.97187   1.000
    O1168   O    0.37304   0.59474   0.97921   1.000
    O1169   O    0.40526   0.77830   0.97921   1.000
    O1170   O    0.22170   0.62696   0.97921   1.000
    O1171   O    0.29101   0.65192   0.98322   1.000
    O1172   O    0.33338   0.57524   0.98961   1.000
    O1173   O    0.40244   0.63454   0.98989   1.000
    O1174   O    0.42476   0.75814   0.98961   1.000
    O1175   O    0.36546   0.76789   0.98989   1.000
    O1176   O    0.24186   0.66662   0.98961   1.000
    O1177   O    0.23211   0.59757   0.98989   1.000
    O1178   O    0.26215   0.72870   0.99445   1.000
    O1179   O    0.27130   0.53345   0.99445   1.000
    O1180   O    0.46655   0.73785   0.99445   1.000
    O1181   O    0.45700   0.68410   0.99474   1.000
    O1182   O    0.22710   0.54300   0.99474   1.000
    O1183   O    0.31590   0.77290   0.99474   1.000
    O1184   O    0.00000   0.00000   0.57105   1.000
    O1185   O    0.97263   0.95776   0.55952   1.000
    O1186   O    0.29101   0.63914   0.48322   1.000
    O1187   O    0.36086   0.65192   0.48322   1.000
    O1188   O    0.00000   0.00000   0.92896   1.000
    O1189   O    0.01487   0.04224   0.94048   1.000
    O1190   O    0.00000   0.00000   0.42895   1.000
    O1191   O    0.95776   0.98513   0.44048   1.000
    O1192   O    0.00000   0.00000   0.07105   1.000
    O1193   O    0.98513   0.95776   0.05952   1.000
    O1194   O    0.66667   0.33333   0.90438   1.000
    O1195   O    0.70890   0.34820   0.89285   1.000
    O1196   O    0.66667   0.33333   0.26229   1.000
    O1197   O    0.62443   0.30597   0.27382   1.000
    O1198   O    0.66667   0.33333   0.76229   1.000
    O1199   O    0.62443   0.31846   0.77382   1.000
    O1200   O    0.66667   0.33333   0.40438   1.000
    O1201   O    0.70890   0.36070   0.39285   1.000
    O1202   O    0.33333   0.66667   0.23771   1.000
    O1203   O    0.30597   0.62443   0.22618   1.000
    O1204   O    0.33333   0.66667   0.59562   1.000
    O1205   O    0.29110   0.63930   0.60715   1.000
    O1206   O    0.33333   0.66667   0.09562   1.000
    O1207   O    0.29110   0.65180   0.10715   1.000
    O1208   O    0.33333   0.66667   0.73771   1.000
    O1209   O    0.31846   0.62443   0.72618   1.000
    O1210   O    0.63914   0.29101   0.01678   1.000
    O1211   O    0.65191   0.36086   0.01678   1.000
    O1212   O    0.70899   0.36086   0.51678   1.000
    O1213   O    0.63914   0.34809   0.51678   1.000
    O1214   O    0.36086   0.70900   0.98322   1.000
    O1215   O    0.34809   0.63914   0.98322   1.000
    O1216   O    0.95767   0.97247   0.81655   1.000
    O1217   O    0.02753   0.98525   0.81655   1.000
    O1218   O    0.99997   0.99998   0.80520   1.000
    O1219   O    0.00002   0.00003   0.80520   1.000
    O1220   O    0.02753   0.98520   0.81655   1.000
    O1221   O    0.01475   0.04228   0.81655   1.000
    O1222   O    0.99997   0.99998   0.80520   1.000
    O1223   O    0.00002   0.99998   0.80520   1.000
    O1224   O    0.95772   0.97247   0.81655   1.000
    O1225   O    0.01480   0.04233   0.81655   1.000
    O1226   O    0.00002   0.00003   0.80520   1.000
    O1227   O    0.00002   0.99998   0.80520   1.000
    O1228   O    0.30581   0.62434   0.35011   1.000
    O1229   O    0.31858   0.69419   0.35011   1.000
    O1230   O    0.37566   0.69419   0.85011   1.000
    O1231   O    0.30581   0.68142   0.85011   1.000
    O1232   O    0.02753   0.04233   0.31655   1.000
    O1233   O    0.01475   0.97247   0.31655   1.000
    O1234   O    0.00002   0.00003   0.30520   1.000
    O1235   O    0.99997   0.99998   0.30520   1.000
    O1236   O    0.01480   0.97247   0.31655   1.000
    O1237   O    0.95772   0.98525   0.31655   1.000
    O1238   O    0.00002   0.00003   0.30520   1.000
    O1239   O    0.00002   0.99998   0.30520   1.000
    O1240   O    0.02753   0.04228   0.31655   1.000
    O1241   O    0.95767   0.98520   0.31655   1.000
    O1242   O    0.99997   0.99998   0.30520   1.000
    O1243   O    0.00002   0.99998   0.30520   1.000
    O1244   O    0.62434   0.30581   0.14989   1.000
    O1245   O    0.69419   0.31858   0.14989   1.000
    O1246   O    0.97247   0.95767   0.68345   1.000
    O1247   O    0.98525   0.02753   0.68345   1.000
    O1248   O    0.99998   0.99997   0.69480   1.000
    O1249   O    0.00003   0.00002   0.69480   1.000
    O1250   O    0.98520   0.02753   0.68345   1.000
    O1251   O    0.04228   0.01475   0.68345   1.000
    O1252   O    0.99998   0.99997   0.69480   1.000
    O1253   O    0.99998   0.00002   0.69480   1.000
    O1254   O    0.97247   0.95772   0.68345   1.000
    O1255   O    0.04233   0.01480   0.68345   1.000
    O1256   O    0.00003   0.00002   0.69480   1.000
    O1257   O    0.99998   0.00002   0.69480   1.000
    O1258   O    0.04233   0.02753   0.18345   1.000
    O1259   O    0.97247   0.01475   0.18345   1.000
    O1260   O    0.00003   0.00002   0.19480   1.000
    O1261   O    0.99998   0.99997   0.19480   1.000
    O1262   O    0.97247   0.01480   0.18345   1.000
    O1263   O    0.98525   0.95772   0.18345   1.000
    O1264   O    0.00003   0.00002   0.19480   1.000
    O1265   O    0.99998   0.00002   0.19480   1.000
    O1266   O    0.04228   0.02753   0.18345   1.000
    O1267   O    0.98520   0.95767   0.18345   1.000
    O1268   O    0.99998   0.99997   0.19480   1.000
    O1269   O    0.99998   0.00002   0.19480   1.000
    O1270   O    0.69419   0.37566   0.64989   1.000
    O1271   O    0.68142   0.30581   0.64989   1.000
    O1272   O    0.02772   0.04128   0.79358   1.000
    O1273   O    0.02772   0.04123   0.79358   1.000
    O1274   O    0.02777   0.04128   0.79358   1.000
    O1275   O    0.95872   0.98648   0.79358   1.000
    O1276   O    0.95872   0.98643   0.79358   1.000
    O1277   O    0.95877   0.98648   0.79358   1.000
    O1278   O    0.01352   0.97228   0.79358   1.000
    O1279   O    0.01352   0.97223   0.79358   1.000
    O1280   O    0.01357   0.97228   0.79358   1.000
    O1281   O    0.95872   0.97228   0.29358   1.000
    O1282   O    0.95877   0.97228   0.29358   1.000
    O1283   O    0.95872   0.97223   0.29358   1.000
    O1284   O    0.01352   0.04128   0.29358   1.000
    O1285   O    0.01357   0.04128   0.29358   1.000
    O1286   O    0.01352   0.04123   0.29358   1.000
    O1287   O    0.02772   0.98648   0.29358   1.000
    O1288   O    0.02777   0.98648   0.29358   1.000
    O1289   O    0.02772   0.98643   0.29358   1.000
    O1290   O    0.04128   0.02772   0.70642   1.000
    O1291   O    0.04123   0.02772   0.70642   1.000
    O1292   O    0.04128   0.02777   0.70642   1.000
    O1293   O    0.98648   0.95872   0.70642   1.000
    O1294   O    0.98643   0.95872   0.70642   1.000
    O1295   O    0.98648   0.95877   0.70642   1.000
    O1296   O    0.97228   0.01352   0.70642   1.000
    O1297   O    0.97223   0.01352   0.70642   1.000
    O1298   O    0.97228   0.01357   0.70642   1.000
    O1299   O    0.97228   0.95872   0.20642   1.000
    O1300   O    0.97228   0.95877   0.20642   1.000
    O1301   O    0.97223   0.95872   0.20642   1.000
    O1302   O    0.04128   0.01352   0.20642   1.000
    O1303   O    0.04128   0.01357   0.20642   1.000
    O1304   O    0.04123   0.01352   0.20642   1.000
    O1305   O    0.98648   0.02772   0.20642   1.000
    O1306   O    0.98648   0.02777   0.20642   1.000
    O1307   O    0.98643   0.02772   0.20642   1.000
    O1308   O    0.03970   0.11163   0.81254   1.000
    O1309   O    0.88837   0.92807   0.81254   1.000
    O1310   O    0.07193   0.96030   0.81254   1.000
    O1311   O    0.88837   0.96030   0.31254   1.000
    O1312   O    0.07193   0.11163   0.31254   1.000
    O1313   O    0.03970   0.92807   0.31254   1.000
    O1314   O    0.11163   0.03970   0.68746   1.000
    O1315   O    0.92807   0.88837   0.68746   1.000
    O1316   O    0.96030   0.07193   0.68746   1.000
    O1317   O    0.96030   0.88837   0.18746   1.000
    O1318   O    0.11163   0.07193   0.18746   1.000
    O1319   O    0.92807   0.03970   0.18746   1.000
    N1320   N    0.21832   0.33073   0.52018   1.000
    O1321   O    0.24556   0.41324   0.50958   1.000
    O1322   O    0.16194   0.24599   0.53025   1.000
    N1323   N    0.50709   0.99749   0.43787   1.000
    O1324   O    0.55175   0.08264   0.42753   1.000
    O1325   O    0.46095   0.91372   0.44804   1.000
    N1326   N    0.00251   0.50960   0.43787   1.000
    O1327   O    0.08628   0.54723   0.44804   1.000
    O1328   O    0.91736   0.46910   0.42753   1.000
    N1329   N    0.49040   0.49291   0.43787   1.000
    O1330   O    0.45277   0.53905   0.44804   1.000
    O1331   O    0.53090   0.44825   0.42753   1.000
    N1332   N    0.88759   0.21832   0.47982   1.000
    O1333   O    0.83232   0.24556   0.49042   1.000
    O1334   O    0.91594   0.16194   0.46975   1.000
    N1335   N    0.33073   0.11241   0.47982   1.000
    O1336   O    0.41324   0.16768   0.49042   1.000
    O1337   O    0.24599   0.08406   0.46975   1.000
    N1338   N    0.78168   0.66927   0.47982   1.000
    O1339   O    0.75444   0.58676   0.49042   1.000
    O1340   O    0.83806   0.75401   0.46975   1.000
    N1341   N    0.33082   0.17376   0.72880   1.000
    O1342   O    0.41598   0.21841   0.73914   1.000
    O1343   O    0.24705   0.12761   0.71863   1.000
    N1344   N    0.84294   0.66918   0.72880   1.000
    O1345   O    0.80244   0.58402   0.73914   1.000
    O1346   O    0.88056   0.75295   0.71863   1.000
    N1347   N    0.82624   0.15706   0.72880   1.000
    O1348   O    0.78159   0.19756   0.73914   1.000
    O1349   O    0.87239   0.11944   0.71863   1.000
    N1350   N    0.82624   0.66918   0.22880   1.000
    O1351   O    0.78159   0.58402   0.23914   1.000
    O1352   O    0.87239   0.75295   0.21863   1.000
    N1353   N    0.33082   0.15706   0.22880   1.000
    O1354   O    0.41598   0.19756   0.23914   1.000
    O1355   O    0.24705   0.11944   0.21863   1.000
    N1356   N    0.84294   0.17376   0.22880   1.000
    O1357   O    0.80244   0.21841   0.23914   1.000
    O1358   O    0.88056   0.12761   0.21863   1.000
    N1359   N    0.33584   0.15957   0.60453   1.000
    O1360   O    0.25069   0.11492   0.59420   1.000
    O1361   O    0.41961   0.20572   0.61470   1.000
    N1362   N    0.82373   0.66416   0.60453   1.000
    O1363   O    0.78611   0.58039   0.61470   1.000
    O1364   O    0.86423   0.74931   0.59420   1.000
    N1365   N    0.84043   0.17627   0.60453   1.000
    O1366   O    0.79428   0.21389   0.61470   1.000
    O1367   O    0.88508   0.13577   0.59420   1.000
    N1368   N    0.99749   0.50709   0.06213   1.000
    O1369   O    0.91372   0.46095   0.05196   1.000
    O1370   O    0.08264   0.55175   0.07247   1.000
    N1371   N    0.50960   0.00251   0.06213   1.000
    O1372   O    0.54723   0.08628   0.05196   1.000
    O1373   O    0.46910   0.91736   0.07247   1.000
    N1374   N    0.49291   0.49040   0.06213   1.000
    O1375   O    0.53905   0.45277   0.05196   1.000
    O1376   O    0.44825   0.53090   0.07247   1.000
    N1377   N    0.49291   0.00251   0.56213   1.000
    O1378   O    0.53905   0.08628   0.55196   1.000
    O1379   O    0.44825   0.91736   0.57247   1.000
    N1380   N    0.99749   0.49040   0.56213   1.000
    O1381   O    0.91372   0.45277   0.55196   1.000
    O1382   O    0.08264   0.53090   0.57247   1.000
    N1383   N    0.50960   0.50709   0.56213   1.000
    O1384   O    0.46910   0.55175   0.57247   1.000
    O1385   O    0.54723   0.46095   0.55196   1.000
    N1386   N    0.00251   0.49291   0.93787   1.000
    O1387   O    0.91736   0.44825   0.92753   1.000
    O1388   O    0.08628   0.53905   0.94804   1.000
    N1389   N    0.49040   0.99749   0.93787   1.000
    O1390   O    0.53090   0.08264   0.92753   1.000
    O1391   O    0.45277   0.91372   0.94804   1.000
    N1392   N    0.50709   0.50960   0.93787   1.000
    O1393   O    0.55175   0.46910   0.92753   1.000
    O1394   O    0.46095   0.54723   0.94804   1.000
    N1395   N    0.17376   0.33082   0.77120   1.000
    O1396   O    0.21841   0.41598   0.76086   1.000
    O1397   O    0.12761   0.24705   0.78137   1.000
    N1398   N    0.66918   0.84294   0.77120   1.000
    O1399   O    0.58402   0.80244   0.76086   1.000
    O1400   O    0.75295   0.88056   0.78137   1.000
    N1401   N    0.15706   0.82624   0.77120   1.000
    O1402   O    0.19756   0.78159   0.76086   1.000
    O1403   O    0.11944   0.87239   0.78137   1.000
    N1404   N    0.66416   0.84043   0.39547   1.000
    O1405   O    0.74931   0.88508   0.40580   1.000
    O1406   O    0.58039   0.79428   0.38530   1.000
    N1407   N    0.17627   0.33584   0.39547   1.000
    O1408   O    0.13577   0.25069   0.40580   1.000
    O1409   O    0.21389   0.41961   0.38530   1.000
    N1410   N    0.15957   0.82373   0.39547   1.000
    O1411   O    0.11492   0.86423   0.40580   1.000
    O1412   O    0.20572   0.78611   0.38530   1.000
    N1413   N    0.15957   0.33584   0.89547   1.000
    O1414   O    0.11492   0.25069   0.90580   1.000
    O1415   O    0.20572   0.41961   0.88530   1.000
    N1416   N    0.66416   0.82373   0.89547   1.000
    O1417   O    0.74931   0.86423   0.90580   1.000
    O1418   O    0.58039   0.78611   0.88530   1.000
    N1419   N    0.17627   0.84043   0.89547   1.000
    O1420   O    0.13577   0.88508   0.90580   1.000
    O1421   O    0.21389   0.79428   0.88530   1.000
    N1422   N    0.66918   0.82624   0.27120   1.000
    O1423   O    0.58402   0.78159   0.26086   1.000
    O1424   O    0.75295   0.87239   0.28137   1.000
    N1425   N    0.15706   0.33082   0.27120   1.000
    O1426   O    0.19756   0.41598   0.26086   1.000
    O1427   O    0.11944   0.24705   0.28137   1.000
    N1428   N    0.17376   0.84294   0.27120   1.000
    O1429   O    0.21841   0.80244   0.26086   1.000
    O1430   O    0.12761   0.88056   0.28137   1.000
    N1431   N    0.84043   0.66416   0.10453   1.000
    O1432   O    0.88508   0.74931   0.09420   1.000
    O1433   O    0.79428   0.58039   0.11470   1.000
    N1434   N    0.33584   0.17627   0.10453   1.000
    O1435   O    0.25069   0.13577   0.09420   1.000
    O1436   O    0.41961   0.21389   0.11470   1.000
    N1437   N    0.82373   0.15957   0.10453   1.000
    O1438   O    0.86423   0.11492   0.09420   1.000
    O1439   O    0.78611   0.20572   0.11470   1.000
    N1440   N    0.88499   0.22092   0.35352   1.000
    O1441   O    0.91223   0.16565   0.34292   1.000
    O1442   O    0.82860   0.24928   0.36359   1.000
    N1443   N    0.55165   0.99740   0.18685   1.000
    O1444   O    0.57889   0.07991   0.17625   1.000
    O1445   O    0.49527   0.91266   0.19692   1.000
    N1446   N    0.00260   0.55425   0.18685   1.000
    O1447   O    0.92009   0.49899   0.17625   1.000
    O1448   O    0.08734   0.58261   0.19692   1.000
    N1449   N    0.44575   0.44835   0.18685   1.000
    O1450   O    0.50101   0.42111   0.17625   1.000
    O1451   O    0.41739   0.50473   0.19692   1.000
    N1452   N    0.66407   0.88499   0.64648   1.000
    O1453   O    0.74657   0.91223   0.65708   1.000
    O1454   O    0.57932   0.82860   0.63641   1.000
    N1455   N    0.22092   0.33593   0.64648   1.000
    O1456   O    0.16565   0.25342   0.65708   1.000
    O1457   O    0.24928   0.42068   0.63641   1.000
    N1458   N    0.11501   0.77908   0.64648   1.000
    O1459   O    0.08777   0.83435   0.65708   1.000
    O1460   O    0.17140   0.75072   0.63641   1.000
    N1461   N    0.11501   0.33593   0.14648   1.000
    O1462   O    0.08777   0.25343   0.15708   1.000
    O1463   O    0.17140   0.42068   0.13641   1.000
    N1464   N    0.66407   0.77908   0.14648   1.000
    O1465   O    0.74658   0.83435   0.15708   1.000
    O1466   O    0.57932   0.75072   0.13641   1.000
    N1467   N    0.22092   0.88499   0.14648   1.000
    O1468   O    0.16565   0.91223   0.15708   1.000
    O1469   O    0.24928   0.82860   0.13641   1.000
    N1470   N    0.00260   0.44835   0.68685   1.000
    O1471   O    0.92009   0.42111   0.67625   1.000
    O1472   O    0.08734   0.50473   0.69692   1.000
    N1473   N    0.44575   0.99740   0.68685   1.000
    O1474   O    0.50101   0.07991   0.67625   1.000
    O1475   O    0.41739   0.91266   0.69692   1.000
    N1476   N    0.55165   0.55425   0.68685   1.000
    O1477   O    0.57889   0.49899   0.67625   1.000
    O1478   O    0.49527   0.58261   0.69692   1.000
    N1479   N    0.66927   0.88759   0.52018   1.000
    O1480   O    0.58676   0.83232   0.50958   1.000
    O1481   O    0.75401   0.91594   0.53025   1.000
    N1482   N    0.11241   0.78168   0.52018   1.000
    O1483   O    0.16768   0.75444   0.50958   1.000
    O1484   O    0.08406   0.83806   0.53025   1.000
    N1485   N    0.33073   0.21832   0.97982   1.000
    O1486   O    0.41324   0.24556   0.99042   1.000
    O1487   O    0.24599   0.16194   0.96975   1.000
    N1488   N    0.88759   0.66927   0.97982   1.000
    O1489   O    0.83232   0.58676   0.99042   1.000
    O1490   O    0.91594   0.75401   0.96975   1.000
    N1491   N    0.78168   0.11241   0.97982   1.000
    O1492   O    0.75444   0.16768   0.99042   1.000
    O1493   O    0.83806   0.08406   0.96975   1.000
    N1494   N    0.66927   0.78168   0.02018   1.000
    O1495   O    0.58676   0.75444   0.00958   1.000
    O1496   O    0.75401   0.83806   0.03025   1.000
    N1497   N    0.11241   0.33073   0.02018   1.000
    O1498   O    0.16768   0.41324   0.00958   1.000
    O1499   O    0.08406   0.24599   0.03025   1.000
    N1500   N    0.21832   0.88759   0.02018   1.000
    O1501   O    0.24556   0.83232   0.00958   1.000
    O1502   O    0.16194   0.91594   0.03025   1.000
    N1503   N    0.88499   0.66407   0.85352   1.000
    O1504   O    0.91223   0.74658   0.84292   1.000
    O1505   O    0.82860   0.57933   0.86359   1.000
    N1506   N    0.33593   0.22092   0.85352   1.000
    O1507   O    0.25342   0.16565   0.84292   1.000
    O1508   O    0.42067   0.24928   0.86359   1.000
    N1509   N    0.77908   0.11501   0.85352   1.000
    O1510   O    0.83435   0.08777   0.84292   1.000
    O1511   O    0.75072   0.17140   0.86359   1.000
    N1512   N    0.99740   0.55165   0.31315   1.000
    O1513   O    0.07991   0.57889   0.32375   1.000
    O1514   O    0.91266   0.49527   0.30308   1.000
    N1515   N    0.55425   0.00260   0.31315   1.000
    O1516   O    0.49899   0.92009   0.32375   1.000
    O1517   O    0.58261   0.08734   0.30308   1.000
    N1518   N    0.44835   0.44575   0.31315   1.000
    O1519   O    0.42111   0.50101   0.32375   1.000
    O1520   O    0.50473   0.41739   0.30308   1.000
    N1521   N    0.44835   0.00260   0.81315   1.000
    O1522   O    0.42111   0.92009   0.82375   1.000
    O1523   O    0.50473   0.08734   0.80308   1.000
    N1524   N    0.99740   0.44575   0.81315   1.000
    O1525   O    0.07991   0.50101   0.82375   1.000
    O1526   O    0.91266   0.41739   0.80308   1.000
    N1527   N    0.55425   0.55165   0.81315   1.000
    O1528   O    0.49899   0.57889   0.82375   1.000
    O1529   O    0.58261   0.49527   0.80308   1.000
    N1530   N    0.33593   0.11501   0.35352   1.000
    O1531   O    0.25343   0.08777   0.34292   1.000
    O1532   O    0.42067   0.17140   0.36359   1.000
    N1533   N    0.77908   0.66407   0.35352   1.000
    O1534   O    0.83435   0.74657   0.34292   1.000
    O1535   O    0.75072   0.57932   0.36359   1.000
loop_
    _geom_bond_atom_site_label_1
    _geom_bond_atom_site_label_2
    _geom_bond_distance
    _geom_bond_site_symmetry_2
    _ccdc_geom_bond_type
    Zr465  O568      0.58021      .   S
    Zr220  O568      0.58021      .   S
    Zr465  O569      0.75796      .   S
    Zr255  O569      0.75796      .   S
    Zr467  O570      0.58021      .   S
    Zr222  O570      0.58021      .   S
    Zr467  O571      0.75796      .   S
    Zr257  O571      0.75796      .   S
    Zr466  O572      0.58021      .   S
    Zr221  O572      0.58021      .   S
    Zr466  O573      0.75796      .   S
    Zr256  O573      0.75796      .   S
    Zr221  O574      0.93867      .   S
    Zr68   O574      0.93867      .   S
    Zr222  O575      0.93867      .   S
    Zr66   O575      0.93867      .   S
    Zr220  O576      0.93867      .   S
    Zr67   O576      0.93867      .   S
    Zr255  O577      0.90314      .   S
    Zr66   O577      0.90314      .   S
    Zr256  O578      0.90314      .   S
    Zr67   O578      0.90314      .   S
    Zr257  O579      0.90314      .   S
    Zr68   O579      0.90314      .   S
    Zr66   O580      0.98052      .   S
    Zr326  O580      0.98052      .   S
    Zr67   O581      0.98052      .   S
    Zr327  O581      0.98052      .   S
    Zr68   O582      0.97060      .   S
    Zr129  O582      0.97060      .   S
    Zr68   O583      0.98052      .   S
    Zr325  O583      0.98052      .   S
    Zr129  O584      0.94408      .   S
    Zr99   O584      0.94408      .   S
    Zr327  O585      0.63553      .   S
    Zr502  O585      0.63553      .   S
    Zr326  O586      0.63553      .   S
    Zr501  O586      0.63553      .   S
    Zr325  O587      0.63553      .   S
    Zr500  O587      0.63553      .   S
    Zr99   O588      0.96427      .   S
    Zr291  O588      0.96427      .   S
    Zr99   O589      0.96449      .   S
    Zr290  O589      0.96449      .   S
    Zr99   O590      0.96534      .   S
    Zr292  O590      0.96534      .   S
    Zr502  O591      0.62440      .   S
    Zr292  O591      0.62440      .   S
    Zr501  O592      0.62440      .   S
    Zr291  O592      0.62440      .   S
    Zr500  O593      0.62440      .   S
    Zr290  O593      0.62440      .   S
    Zr436  O594      0.61258      .   S
    Zr156  O594      0.61258      .   S
    Zr436  O595      0.67137      .   S
    Zr191  O595      0.67137      .   S
    Zr437  O596      0.61258      .   S
    Zr157  O596      0.61258  1_655   S
    Zr437  O597      0.67137      .   S
    Zr192  O597      0.67137      .   S
    Zr438  O598      0.61258      .   S
    Zr158  O598      0.61258  1_545   S
    Zr438  O599      0.67137      .   S
    Zr193  O599      0.67137      .   S
    Zr157  O600      0.95602      .   S
    Zr37   O600      0.95602      .   S
    Zr156  O601      0.95602      .   S
    Zr39   O601      0.95602      .   S
    Zr158  O602      0.95602      .   S
    Zr38   O602      0.95602      .   S
    Zr191  O603      0.93696      .   S
    Zr37   O603      0.93696  1_545   S
    Zr192  O604      0.93696      .   S
    Zr38   O604      0.93696      .   S
    Zr193  O605      0.93696      .   S
    Zr39   O605      0.93696  1_655   S
    Zr39   O606      0.93728      .   S
    Zr381  O606      0.93728      .   S
    Zr38   O607      0.96644      .   S
    Zr120  O607      0.96644      .   S
    Zr38   O608      0.93728      .   S
    Zr382  O608      0.93728      .   S
    Zr37   O609      0.96644      .   S
    Zr120  O609      0.96644  1_455   S
    Zr37   O610      0.93728      .   S
    Zr383  O610      0.93728      .   S
    Zr382  O611      0.59521      .   S
    Zr557  O611      0.59521      .   S
    Zr381  O612      0.59521      .   S
    Zr556  O612      0.59521      .   S
    Zr383  O613      0.59521      .   S
    Zr558  O613      0.59521      .   S
    Zr558  O614      0.66986      .   S
    Zr418  O614      0.66986      .   S
    Zr557  O615      0.66986      .   S
    Zr417  O615      0.66986      .   S
    Zr556  O616      0.66986      .   S
    Zr416  O616      0.66986      .   S
    Zr20   O617      0.95489  1_455   S
    Zr418  O617      0.95489      .   S
    Zr20   O618      0.95489      .   S
    Zr417  O618      0.95489      .   S
    Zr20   O619      0.95489  1_445   S
    Zr416  O619      0.95489      .   S
    Zr397  O620      0.95489      .   S
    Zr27   O620      0.95489      .   S
    Zr397  O621      0.66986      .   S
    Zr537  O621      0.66986      .   S
    Zr396  O622      0.95489      .   S
    Zr27   O622      0.95489      .   S
    Zr396  O623      0.66986      .   S
    Zr536  O623      0.66986      .   S
    Zr395  O624      0.95489      .   S
    Zr27   O624      0.95489      .   S
    Zr395  O625      0.66986      .   S
    Zr535  O625      0.66986      .   S
    Zr537  O626      0.59521      .   S
    Zr362  O626      0.59521      .   S
    Zr536  O627      0.59521      .   S
    Zr361  O627      0.59521      .   S
    Zr535  O628      0.59521      .   S
    Zr360  O628      0.59521      .   S
    Zr362  O629      0.93728      .   S
    Zr58   O629      0.93728      .   S
    Zr360  O630      0.93728      .   S
    Zr60   O630      0.93728      .   S
    Zr361  O631      0.93728      .   S
    Zr59   O631      0.93728      .   S
    Zr127  O632      0.96644      .   S
    Zr58   O632      0.96644      .   S
    Zr127  O633      0.96644      .   S
    Zr59   O633      0.96644      .   S
    Zr58   O634      0.93696      .   S
    Zr212  O634      0.93696      .   S
    Zr58   O635      0.95602      .   S
    Zr178  O635      0.95602      .   S
    Zr60   O636      0.93696      .   S
    Zr214  O636      0.93696      .   S
    Zr60   O637      0.95602      .   S
    Zr177  O637      0.95602      .   S
    Zr59   O638      0.93696      .   S
    Zr213  O638      0.93696      .   S
    Zr59   O639      0.95602      .   S
    Zr179  O639      0.95602      .   S
    Zr213  O640      0.67137      .   S
    Zr458  O640      0.67137      .   S
    Zr214  O641      0.67137      .   S
    Zr459  O641      0.67137      .   S
    Zr212  O642      0.67137      .   S
    Zr457  O642      0.67137      .   S
    Zr179  O643      0.61258      .   S
    Zr459  O643      0.61258      .   S
    Zr177  O644      0.61258      .   S
    Zr457  O644      0.61258      .   S
    Zr178  O645      0.61258      .   S
    Zr458  O645      0.61258      .   S
    Zr313  O646      0.62440      .   S
    Zr523  O646      0.62440      .   S
    Zr313  O647      0.96534      .   S
    Zr110  O647      0.96534      .   S
    Zr312  O648      0.62440      .   S
    Zr522  O648      0.62440      .   S
    Zr312  O649      0.96427      .   S
    Zr110  O649      0.96427      .   S
    Zr311  O650      0.62440      .   S
    Zr521  O650      0.62440      .   S
    Zr311  O651      0.96449      .   S
    Zr110  O651      0.96449      .   S
    Zr522  O652      0.63553      .   S
    Zr347  O652      0.63553      .   S
    Zr523  O653      0.63553      .   S
    Zr348  O653      0.63553      .   S
    Zr521  O654      0.63553      .   S
    Zr346  O654      0.63553      .   S
    Zr110  O655      0.94408      .   S
    Zr140  O655      0.94408      .   S
    Zr348  O656      0.98052      .   S
    Zr88   O656      0.98052      .   S
    Zr347  O657      0.98052      .   S
    Zr87   O657      0.98052      .   S
    Zr346  O658      0.98052      .   S
    Zr89   O658      0.98052      .   S
    Zr140  O659      0.97060      .   S
    Zr89   O659      0.97060      .   S
    Zr89   O660      0.90314      .   S
    Zr278  O660      0.90314      .   S
    Zr89   O661      0.93867      .   S
    Zr242  O661      0.93867      .   S
    Zr88   O662      0.90314      .   S
    Zr277  O662      0.90314      .   S
    Zr88   O663      0.93867      .   S
    Zr241  O663      0.93867      .   S
    Zr87   O664      0.90314      .   S
    Zr276  O664      0.90314      .   S
    Zr87   O665      0.93867      .   S
    Zr243  O665      0.93867      .   S
    Zr278  O666      0.75796      .   S
    Zr488  O666      0.75796      .   S
    Zr277  O667      0.75796      .   S
    Zr487  O667      0.75796      .   S
    Zr276  O668      0.75796      .   S
    Zr486  O668      0.75796      .   S
    Zr243  O669      0.58021      .   S
    Zr488  O669      0.58021      .   S
    Zr242  O670      0.58021      .   S
    Zr487  O670      0.58021      .   S
    Zr241  O671      0.58021      .   S
    Zr486  O671      0.58021      .   S
    Zr494  O672      0.58021      .   S
    Zr249  O672      0.58021  1_545   S
    Zr494  O673      0.75796      .   S
    Zr284  O673      0.75796      .   S
    Zr493  O674      0.58021      .   S
    Zr248  O674      0.58021      .   S
    Zr493  O675      0.75796      .   S
    Zr283  O675      0.75796      .   S
    Zr492  O676      0.58021      .   S
    Zr247  O676      0.58021  1_655   S
    Zr492  O677      0.75796      .   S
    Zr282  O677      0.75796      .   S
    Zr249  O678      0.93867      .   S
    Zr93   O678      0.93867      .   S
    Zr248  O679      0.93867      .   S
    Zr95   O679      0.93867      .   S
    Zr247  O680      0.93867      .   S
    Zr94   O680      0.93867      .   S
    Zr284  O681      0.90314  1_455   S
    Zr95   O681      0.90314      .   S
    Zr282  O682      0.90314      .   S
    Zr93   O682      0.90314      .   S
    Zr283  O683      0.90314  1_565   S
    Zr94   O683      0.90314      .   S
    Zr93   O684      0.97060      .   S
    Zr145  O684      0.97060      .   S
    Zr94   O685      0.97060      .   S
    Zr146  O685      0.97060  1_565   S
    Zr95   O686      0.97060      .   S
    Zr144  O686      0.97060  1_455   S
    Zr146  O687      0.94408      .   S
    Zr116  O687      0.94408      .   S
    Zr145  O688      0.94408      .   S
    Zr115  O688      0.94408      .   S
    Zr144  O689      0.94408      .   S
    Zr114  O689      0.94408      .   S
    Zr354  O690      0.63553      .   S
    Zr529  O690      0.63553      .   S
    Zr352  O691      0.63553      .   S
    Zr527  O691      0.63553      .   S
    Zr353  O692      0.63553      .   S
    Zr528  O692      0.63553      .   S
    Zr528  O693      0.62440      .   S
    Zr318  O693      0.62440      .   S
    Zr529  O694      0.62440      .   S
    Zr319  O694      0.62440      .   S
    Zr527  O695      0.62440      .   S
    Zr317  O695      0.62440      .   S
    Zr452  O696      0.61258      .   S
    Zr172  O696      0.61258      .   S
    Zr452  O697      0.67137      .   S
    Zr207  O697      0.67137      .   S
    Zr453  O698      0.61258      .   S
    Zr173  O698      0.61258      .   S
    Zr453  O699      0.67137      .   S
    Zr208  O699      0.67137      .   S
    Zr451  O700      0.61258      .   S
    Zr171  O700      0.61258      .   S
    Zr451  O701      0.67137      .   S
    Zr206  O701      0.67137      .   S
    Zr173  O702      0.95602      .   S
    Zr53   O702      0.95602      .   S
    Zr172  O703      0.95602      .   S
    Zr52   O703      0.95602      .   S
    Zr171  O704      0.95602      .   S
    Zr54   O704      0.95602      .   S
    Zr208  O705      0.93696      .   S
    Zr54   O705      0.93696      .   S
    Zr207  O706      0.93696      .   S
    Zr53   O706      0.93696      .   S
    Zr206  O707      0.93696      .   S
    Zr52   O707      0.93696      .   S
    Zr54   O708      0.96644      .   S
    Zr125  O708      0.96644      .   S
    Zr54   O709      0.93728      .   S
    Zr378  O709      0.93728      .   S
    Zr53   O710      0.93728      .   S
    Zr379  O710      0.93728      .   S
    Zr52   O711      0.96644      .   S
    Zr125  O711      0.96644      .   S
    Zr52   O712      0.93728      .   S
    Zr380  O712      0.93728      .   S
    Zr380  O713      0.59521      .   S
    Zr555  O713      0.59521      .   S
    Zr379  O714      0.59521      .   S
    Zr554  O714      0.59521      .   S
    Zr378  O715      0.59521      .   S
    Zr553  O715      0.59521      .   S
    Zr555  O716      0.66986      .   S
    Zr415  O716      0.66986      .   S
    Zr554  O717      0.66986      .   S
    Zr414  O717      0.66986      .   S
    Zr553  O718      0.66986      .   S
    Zr413  O718      0.66986      .   S
    Zr25   O719      0.95489      .   S
    Zr415  O719      0.95489      .   S
    Zr25   O720      0.95489      .   S
    Zr414  O720      0.95489      .   S
    Zr25   O721      0.95489      .   S
    Zr413  O721      0.95489      .   S
    Zr422  O722      0.95489      .   S
    Zr22   O722      0.95489      .   S
    Zr422  O723      0.66986      .   S
    Zr562  O723      0.66986      .   S
    Zr423  O724      0.95489      .   S
    Zr22   O724      0.95489      .   S
    Zr423  O725      0.66986      .   S
    Zr563  O725      0.66986      .   S
    Zr424  O726      0.95489      .   S
    Zr22   O726      0.95489      .   S
    Zr424  O727      0.66986      .   S
    Zr564  O727      0.66986      .   S
    Zr562  O728      0.59521      .   S
    Zr387  O728      0.59521      .   S
    Zr563  O729      0.59521      .   S
    Zr388  O729      0.59521      .   S
    Zr564  O730      0.59521      .   S
    Zr389  O730      0.59521      .   S
    Zr387  O731      0.93728      .   S
    Zr45   O731      0.93728      .   S
    Zr389  O732      0.93728      .   S
    Zr43   O732      0.93728      .   S
    Zr388  O733      0.93728      .   S
    Zr44   O733      0.93728      .   S
    Zr122  O734      0.96644      .   S
    Zr43   O734      0.96644      .   S
    Zr122  O735      0.96644      .   S
    Zr45   O735      0.96644      .   S
    Zr44   O736      0.93696      .   S
    Zr198  O736      0.93696      .   S
    Zr44   O737      0.95602      .   S
    Zr164  O737      0.95602      .   S
    Zr43   O738      0.93696      .   S
    Zr197  O738      0.93696      .   S
    Zr43   O739      0.95602      .   S
    Zr163  O739      0.95602      .   S
    Zr45   O740      0.93696      .   S
    Zr199  O740      0.93696      .   S
    Zr45   O741      0.95602      .   S
    Zr162  O741      0.95602      .   S
    Zr197  O742      0.67137      .   S
    Zr442  O742      0.67137      .   S
    Zr198  O743      0.67137      .   S
    Zr443  O743      0.67137      .   S
    Zr199  O744      0.67137      .   S
    Zr444  O744      0.67137      .   S
    Zr162  O745      0.61258      .   S
    Zr442  O745      0.61258      .   S
    Zr163  O746      0.61258      .   S
    Zr443  O746      0.61258      .   S
    Zr164  O747      0.61258      .   S
    Zr444  O747      0.61258      .   S
    Zr308  O748      0.62440      .   S
    Zr518  O748      0.62440      .   S
    Zr309  O749      0.62440      .   S
    Zr519  O749      0.62440      .   S
    Zr310  O750      0.62440      .   S
    Zr520  O750      0.62440      .   S
    Zr519  O751      0.63553      .   S
    Zr344  O751      0.63553      .   S
    Zr518  O752      0.63553      .   S
    Zr343  O752      0.63553      .   S
    Zr520  O753      0.63553      .   S
    Zr345  O753      0.63553      .   S
    Zr109  O754      0.94408      .   S
    Zr139  O754      0.94408      .   S
    Zr108  O755      0.94408      .   S
    Zr138  O755      0.94408      .   S
    Zr107  O756      0.94408      .   S
    Zr137  O756      0.94408      .   S
    Zr138  O757      0.97060      .   S
    Zr84   O757      0.97060      .   S
    Zr137  O758      0.97060  1_545   S
    Zr86   O758      0.97060      .   S
    Zr139  O759      0.97060  1_655   S
    Zr85   O759      0.97060      .   S
    Zr85   O760      0.90314      .   S
    Zr274  O760      0.90314  1_655   S
    Zr85   O761      0.93867      .   S
    Zr238  O761      0.93867      .   S
    Zr84   O762      0.90314      .   S
    Zr273  O762      0.90314      .   S
    Zr84   O763      0.93867      .   S
    Zr240  O763      0.93867      .   S
    Zr86   O764      0.90314      .   S
    Zr275  O764      0.90314  1_545   S
    Zr86   O765      0.93867      .   S
    Zr239  O765      0.93867      .   S
    Zr273  O766      0.75796      .   S
    Zr483  O766      0.75796      .   S
    Zr274  O767      0.75796      .   S
    Zr484  O767      0.75796      .   S
    Zr275  O768      0.75796      .   S
    Zr485  O768      0.75796      .   S
    Zr238  O769      0.58021  1_565   S
    Zr483  O769      0.58021      .   S
    Zr239  O770      0.58021      .   S
    Zr484  O770      0.58021      .   S
    Zr240  O771      0.58021  1_455   S
    Zr485  O771      0.58021      .   S
    Zr478  O772      0.58021      .   S
    Zr233  O772      0.58021      .   S
    Zr478  O773      0.75796      .   S
    Zr268  O773      0.75796      .   S
    Zr477  O774      0.58021      .   S
    Zr232  O774      0.58021      .   S
    Zr477  O775      0.75796      .   S
    Zr267  O775      0.75796      .   S
    Zr479  O776      0.58021      .   S
    Zr234  O776      0.58021      .   S
    Zr479  O777      0.75796      .   S
    Zr269  O777      0.75796      .   S
    Zr234  O778      0.93867      .   S
    Zr78   O778      0.93867      .   S
    Zr232  O779      0.93867      .   S
    Zr79   O779      0.93867      .   S
    Zr233  O780      0.93867      .   S
    Zr80   O780      0.93867      .   S
    Zr267  O781      0.90314      .   S
    Zr78   O781      0.90314      .   S
    Zr269  O782      0.90314      .   S
    Zr80   O782      0.90314      .   S
    Zr268  O783      0.90314      .   S
    Zr79   O783      0.90314      .   S
    Zr78   O784      0.98052      .   S
    Zr338  O784      0.98052      .   S
    Zr79   O785      0.98052      .   S
    Zr339  O785      0.98052      .   S
    Zr80   O786      0.97060      .   S
    Zr135  O786      0.97060      .   S
    Zr80   O787      0.98052      .   S
    Zr337  O787      0.98052      .   S
    Zr135  O788      0.94408      .   S
    Zr105  O788      0.94408      .   S
    Zr339  O789      0.63553      .   S
    Zr514  O789      0.63553      .   S
    Zr338  O790      0.63553      .   S
    Zr513  O790      0.63553      .   S
    Zr337  O791      0.63553      .   S
    Zr512  O791      0.63553      .   S
    Zr105  O792      0.96427      .   S
    Zr303  O792      0.96427      .   S
    Zr105  O793      0.96449      .   S
    Zr302  O793      0.96449      .   S
    Zr105  O794      0.96534      .   S
    Zr304  O794      0.96534      .   S
    Zr512  O795      0.62440      .   S
    Zr302  O795      0.62440      .   S
    Zr513  O796      0.62440      .   S
    Zr303  O796      0.62440      .   S
    Zr514  O797      0.62440      .   S
    Zr304  O797      0.62440      .   S
    Zr448  O798      0.61258      .   S
    Zr168  O798      0.61258      .   S
    Zr448  O799      0.67137      .   S
    Zr203  O799      0.67137      .   S
    Zr450  O800      0.61258      .   S
    Zr170  O800      0.61258      .   S
    Zr450  O801      0.67137      .   S
    Zr205  O801      0.67137      .   S
    Zr449  O802      0.61258      .   S
    Zr169  O802      0.61258      .   S
    Zr449  O803      0.67137      .   S
    Zr204  O803      0.67137      .   S
    Zr168  O804      0.95602      .   S
    Zr51   O804      0.95602      .   S
    Zr170  O805      0.95602      .   S
    Zr50   O805      0.95602      .   S
    Zr169  O806      0.95602      .   S
    Zr49   O806      0.95602      .   S
    Zr203  O807      0.93696      .   S
    Zr49   O807      0.93696      .   S
    Zr204  O808      0.93696      .   S
    Zr50   O808      0.93696      .   S
    Zr205  O809      0.93696      .   S
    Zr51   O809      0.93696      .   S
    Zr49   O810      0.96644      .   S
    Zr124  O810      0.96644      .   S
    Zr49   O811      0.93728      .   S
    Zr359  O811      0.93728      .   S
    Zr50   O812      0.93728      .   S
    Zr358  O812      0.93728      .   S
    Zr51   O813      0.96644      .   S
    Zr124  O813      0.96644      .   S
    Zr51   O814      0.93728      .   S
    Zr12   O814      0.93728      .   S
    Zr12   O815      0.59521      .   S
    Zr17   O815      0.59521      .   S
    Zr359  O816      0.59521      .   S
    Zr534  O816      0.59521      .   S
    Zr358  O817      0.59521      .   S
    Zr533  O817      0.59521      .   S
    Zr17   O818      0.66986      .   S
    Zr13   O818      0.66986      .   S
    Zr533  O819      0.66986      .   S
    Zr393  O819      0.66986      .   S
    Zr534  O820      0.66986      .   S
    Zr394  O820      0.66986      .   S
    Zr24   O821      0.95489      .   S
    Zr13   O821      0.95489      .   S
    Zr24   O822      0.95489      .   S
    Zr394  O822      0.95489      .   S
    Zr24   O823      0.95489      .   S
    Zr393  O823      0.95489      .   S
    Zr409  O824      0.95489      .   S
    Zr19   O824      0.95489  1_545   S
    Zr409  O825      0.66986      .   S
    Zr549  O825      0.66986      .   S
    Zr408  O826      0.95489      .   S
    Zr19   O826      0.95489      .   S
    Zr408  O827      0.66986      .   S
    Zr548  O827      0.66986      .   S
    Zr407  O828      0.95489      .   S
    Zr19   O828      0.95489  1_445   S
    Zr407  O829      0.66986      .   S
    Zr547  O829      0.66986      .   S
    Zr549  O830      0.59521      .   S
    Zr374  O830      0.59521      .   S
    Zr548  O831      0.59521      .   S
    Zr373  O831      0.59521      .   S
    Zr547  O832      0.59521      .   S
    Zr372  O832      0.59521      .   S
    Zr373  O833      0.93728      .   S
    Zr35   O833      0.93728      .   S
    Zr372  O834      0.93728      .   S
    Zr36   O834      0.93728      .   S
    Zr374  O835      0.93728      .   S
    Zr34   O835      0.93728      .   S
    Zr119  O836      0.96644  1_545   S
    Zr34   O836      0.96644      .   S
    Zr119  O837      0.96644      .   S
    Zr35   O837      0.96644      .   S
    Zr36   O838      0.93696  1_565   S
    Zr190  O838      0.93696      .   S
    Zr36   O839      0.95602      .   S
    Zr153  O839      0.95602      .   S
    Zr34   O840      0.93696  1_455   S
    Zr188  O840      0.93696      .   S
    Zr34   O841      0.95602      .   S
    Zr154  O841      0.95602      .   S
    Zr35   O842      0.93696      .   S
    Zr189  O842      0.93696      .   S
    Zr35   O843      0.95602      .   S
    Zr155  O843      0.95602      .   S
    Zr190  O844      0.67137      .   S
    Zr435  O844      0.67137      .   S
    Zr189  O845      0.67137      .   S
    Zr434  O845      0.67137      .   S
    Zr188  O846      0.67137      .   S
    Zr433  O846      0.67137      .   S
    Zr154  O847      0.61258  1_565   S
    Zr434  O847      0.61258      .   S
    Zr155  O848      0.61258  1_455   S
    Zr435  O848      0.61258      .   S
    Zr153  O849      0.61258      .   S
    Zr433  O849      0.61258      .   S
    Zr289  O850      0.62440      .   S
    Zr499  O850      0.62440      .   S
    Zr289  O851      0.96534      .   S
    Zr3    O851      0.96534      .   S
    Zr10   O852      0.62440      .   S
    Zr16   O852      0.62440      .   S
    Zr10   O853      0.96449      .   S
    Zr3    O853      0.96449      .   S
    Zr288  O854      0.62440      .   S
    Zr498  O854      0.62440      .   S
    Zr288  O855      0.96427      .   S
    Zr3    O855      0.96427      .   S
    Zr498  O856      0.63553      .   S
    Zr323  O856      0.63553      .   S
    Zr16   O857      0.63553      .   S
    Zr11   O857      0.63553      .   S
    Zr499  O858      0.63553      .   S
    Zr324  O858      0.63553      .   S
    Zr3    O859      0.94408      .   S
    Zr5    O859      0.94408      .   S
    Zr11   O860      0.98052      .   S
    Zr65   O860      0.98052      .   S
    Zr323  O861      0.98052      .   S
    Zr2    O861      0.98052      .   S
    Zr324  O862      0.98052      .   S
    Zr64   O862      0.98052      .   S
    Zr5    O863      0.97060      .   S
    Zr65   O863      0.97060      .   S
    Zr2    O864      0.90314      .   S
    Zr9    O864      0.90314      .   S
    Zr2    O865      0.93867      .   S
    Zr219  O865      0.93867      .   S
    Zr65   O866      0.90314      .   S
    Zr254  O866      0.90314      .   S
    Zr65   O867      0.93867      .   S
    Zr218  O867      0.93867      .   S
    Zr64   O868      0.90314      .   S
    Zr253  O868      0.90314      .   S
    Zr64   O869      0.93867      .   S
    Zr8    O869      0.93867      .   S
    Zr9    O870      0.75796      .   S
    Zr15   O870      0.75796      .   S
    Zr253  O871      0.75796      .   S
    Zr463  O871      0.75796      .   S
    Zr254  O872      0.75796      .   S
    Zr464  O872      0.75796      .   S
    Zr8    O873      0.58021      .   S
    Zr15   O873      0.58021      .   S
    Zr218  O874      0.58021      .   S
    Zr463  O874      0.58021      .   S
    Zr219  O875      0.58021      .   S
    Zr464  O875      0.58021      .   S
    Zr470  O876      0.58021      .   S
    Zr225  O876      0.58021      .   S
    Zr470  O877      0.75796      .   S
    Zr260  O877      0.75796      .   S
    Zr469  O878      0.58021      .   S
    Zr224  O878      0.58021      .   S
    Zr469  O879      0.75796      .   S
    Zr259  O879      0.75796      .   S
    Zr468  O880      0.58021      .   S
    Zr223  O880      0.58021      .   S
    Zr468  O881      0.75796      .   S
    Zr258  O881      0.75796      .   S
    Zr224  O882      0.93867      .   S
    Zr71   O882      0.93867      .   S
    Zr225  O883      0.93867      .   S
    Zr69   O883      0.93867      .   S
    Zr223  O884      0.93867      .   S
    Zr70   O884      0.93867      .   S
    Zr258  O885      0.90314      .   S
    Zr69   O885      0.90314      .   S
    Zr259  O886      0.90314      .   S
    Zr70   O886      0.90314      .   S
    Zr260  O887      0.90314      .   S
    Zr71   O887      0.90314      .   S
    Zr70   O888      0.98052      .   S
    Zr330  O888      0.98052      .   S
    Zr69   O889      0.98052      .   S
    Zr329  O889      0.98052      .   S
    Zr71   O890      0.97060      .   S
    Zr130  O890      0.97060      .   S
    Zr71   O891      0.98052      .   S
    Zr328  O891      0.98052      .   S
    Zr130  O892      0.94408      .   S
    Zr100  O892      0.94408      .   S
    Zr328  O893      0.63553      .   S
    Zr503  O893      0.63553      .   S
    Zr329  O894      0.63553      .   S
    Zr504  O894      0.63553      .   S
    Zr330  O895      0.63553      .   S
    Zr505  O895      0.63553      .   S
    Zr100  O896      0.96534      .   S
    Zr295  O896      0.96534      .   S
    Zr100  O897      0.96427      .   S
    Zr294  O897      0.96427      .   S
    Zr100  O898      0.96449      .   S
    Zr293  O898      0.96449      .   S
    Zr503  O899      0.62440      .   S
    Zr293  O899      0.62440      .   S
    Zr504  O900      0.62440      .   S
    Zr294  O900      0.62440      .   S
    Zr505  O901      0.62440      .   S
    Zr295  O901      0.62440      .   S
    Zr428  O902      0.61258      .   S
    Zr148  O902      0.61258  1_545   S
    Zr428  O903      0.67137      .   S
    Zr183  O903      0.67137      .   S
    Zr429  O904      0.61258      .   S
    Zr149  O904      0.61258  1_655   S
    Zr429  O905      0.67137      .   S
    Zr184  O905      0.67137      .   S
    Zr14   O906      0.61258      .   S
    Zr6    O906      0.61258      .   S
    Zr14   O907      0.67137      .   S
    Zr7    O907      0.67137      .   S
    Zr6    O908      0.95602      .   S
    Zr30   O908      0.95602      .   S
    Zr149  O909      0.95602      .   S
    Zr29   O909      0.95602      .   S
    Zr148  O910      0.95602      .   S
    Zr1    O910      0.95602      .   S
    Zr7    O911      0.93696      .   S
    Zr1    O911      0.93696  1_655   S
    Zr183  O912      0.93696      .   S
    Zr29   O912      0.93696      .   S
    Zr184  O913      0.93696      .   S
    Zr30   O913      0.93696  1_545   S
    Zr1    O914      0.96644      .   S
    Zr4    O914      0.96644  1_455   S
    Zr1    O915      0.93728      .   S
    Zr392  O915      0.93728      .   S
    Zr30   O916      0.96644      .   S
    Zr4    O916      0.96644      .   S
    Zr30   O917      0.93728      .   S
    Zr390  O917      0.93728      .   S
    Zr29   O918      0.93728      .   S
    Zr391  O918      0.93728      .   S
    Zr392  O919      0.59521      .   S
    Zr567  O919      0.59521      .   S
    Zr391  O920      0.59521      .   S
    Zr566  O920      0.59521      .   S
    Zr390  O921      0.59521      .   S
    Zr565  O921      0.59521      .   S
    Zr567  O922      0.66986      .   S
    Zr427  O922      0.66986      .   S
    Zr566  O923      0.66986      .   S
    Zr426  O923      0.66986      .   S
    Zr565  O924      0.66986      .   S
    Zr425  O924      0.66986      .   S
    Zr0    O925      0.95489  1_455   S
    Zr427  O925      0.95489      .   S
    Zr0    O926      0.95489  1_445   S
    Zr426  O926      0.95489      .   S
    Zr0    O927      0.95489      .   S
    Zr425  O927      0.95489      .   S
    Zr399  O928      0.95489      .   S
    Zr26   O928      0.95489      .   S
    Zr399  O929      0.66986      .   S
    Zr539  O929      0.66986      .   S
    Zr398  O930      0.95489      .   S
    Zr26   O930      0.95489      .   S
    Zr398  O931      0.66986      .   S
    Zr538  O931      0.66986      .   S
    Zr400  O932      0.95489      .   S
    Zr26   O932      0.95489      .   S
    Zr400  O933      0.66986      .   S
    Zr540  O933      0.66986      .   S
    Zr540  O934      0.59521      .   S
    Zr365  O934      0.59521      .   S
    Zr539  O935      0.59521      .   S
    Zr364  O935      0.59521      .   S
    Zr538  O936      0.59521      .   S
    Zr363  O936      0.59521      .   S
    Zr365  O937      0.93728      .   S
    Zr55   O937      0.93728      .   S
    Zr364  O938      0.93728      .   S
    Zr56   O938      0.93728      .   S
    Zr363  O939      0.93728      .   S
    Zr57   O939      0.93728      .   S
    Zr126  O940      0.96644      .   S
    Zr55   O940      0.96644      .   S
    Zr126  O941      0.96644      .   S
    Zr57   O941      0.96644      .   S
    Zr56   O942      0.93696      .   S
    Zr210  O942      0.93696      .   S
    Zr56   O943      0.95602      .   S
    Zr176  O943      0.95602      .   S
    Zr55   O944      0.93696      .   S
    Zr209  O944      0.93696      .   S
    Zr55   O945      0.95602      .   S
    Zr175  O945      0.95602      .   S
    Zr57   O946      0.93696      .   S
    Zr211  O946      0.93696      .   S
    Zr57   O947      0.95602      .   S
    Zr174  O947      0.95602      .   S
    Zr209  O948      0.67137      .   S
    Zr454  O948      0.67137      .   S
    Zr210  O949      0.67137      .   S
    Zr455  O949      0.67137      .   S
    Zr211  O950      0.67137      .   S
    Zr456  O950      0.67137      .   S
    Zr176  O951      0.61258      .   S
    Zr456  O951      0.61258      .   S
    Zr175  O952      0.61258      .   S
    Zr455  O952      0.61258      .   S
    Zr174  O953      0.61258      .   S
    Zr454  O953      0.61258      .   S
    Zr320  O954      0.62440      .   S
    Zr530  O954      0.62440      .   S
    Zr320  O955      0.96449      .   S
    Zr117  O955      0.96449      .   S
    Zr321  O956      0.62440      .   S
    Zr531  O956      0.62440      .   S
    Zr321  O957      0.96427      .   S
    Zr117  O957      0.96427      .   S
    Zr322  O958      0.62440      .   S
    Zr532  O958      0.62440      .   S
    Zr322  O959      0.96534      .   S
    Zr117  O959      0.96534      .   S
    Zr532  O960      0.63553      .   S
    Zr357  O960      0.63553      .   S
    Zr531  O961      0.63553      .   S
    Zr356  O961      0.63553      .   S
    Zr530  O962      0.63553      .   S
    Zr355  O962      0.63553      .   S
    Zr117  O963      0.94408      .   S
    Zr147  O963      0.94408      .   S
    Zr355  O964      0.98052      .   S
    Zr98   O964      0.98052      .   S
    Zr356  O965      0.98052      .   S
    Zr96   O965      0.98052      .   S
    Zr357  O966      0.98052      .   S
    Zr97   O966      0.98052      .   S
    Zr147  O967      0.97060      .   S
    Zr98   O967      0.97060      .   S
    Zr96   O968      0.90314      .   S
    Zr285  O968      0.90314      .   S
    Zr96   O969      0.93867      .   S
    Zr252  O969      0.93867      .   S
    Zr97   O970      0.90314      .   S
    Zr286  O970      0.90314      .   S
    Zr97   O971      0.93867      .   S
    Zr250  O971      0.93867      .   S
    Zr98   O972      0.90314      .   S
    Zr287  O972      0.90314      .   S
    Zr98   O973      0.93867      .   S
    Zr251  O973      0.93867      .   S
    Zr287  O974      0.75796      .   S
    Zr497  O974      0.75796      .   S
    Zr285  O975      0.75796      .   S
    Zr495  O975      0.75796      .   S
    Zr286  O976      0.75796      .   S
    Zr496  O976      0.75796      .   S
    Zr251  O977      0.58021      .   S
    Zr496  O977      0.58021      .   S
    Zr252  O978      0.58021      .   S
    Zr497  O978      0.58021      .   S
    Zr250  O979      0.58021      .   S
    Zr495  O979      0.58021      .   S
    Zr491  O980      0.58021      .   S
    Zr246  O980      0.58021  1_655   S
    Zr491  O981      0.75796      .   S
    Zr281  O981      0.75796      .   S
    Zr489  O982      0.58021      .   S
    Zr244  O982      0.58021  1_545   S
    Zr489  O983      0.75796      .   S
    Zr279  O983      0.75796      .   S
    Zr490  O984      0.58021      .   S
    Zr245  O984      0.58021      .   S
    Zr490  O985      0.75796      .   S
    Zr280  O985      0.75796      .   S
    Zr244  O986      0.93867      .   S
    Zr91   O986      0.93867      .   S
    Zr245  O987      0.93867      .   S
    Zr92   O987      0.93867      .   S
    Zr246  O988      0.93867      .   S
    Zr90   O988      0.93867      .   S
    Zr279  O989      0.90314      .   S
    Zr90   O989      0.90314      .   S
    Zr280  O990      0.90314  1_455   S
    Zr91   O990      0.90314      .   S
    Zr281  O991      0.90314  1_565   S
    Zr92   O991      0.90314      .   S
    Zr92   O992      0.97060      .   S
    Zr141  O992      0.97060  1_565   S
    Zr91   O993      0.97060      .   S
    Zr143  O993      0.97060  1_455   S
    Zr90   O994      0.97060      .   S
    Zr142  O994      0.97060      .   S
    Zr141  O995      0.94408      .   S
    Zr111  O995      0.94408      .   S
    Zr142  O996      0.94408      .   S
    Zr112  O996      0.94408      .   S
    Zr143  O997      0.94408      .   S
    Zr113  O997      0.94408      .   S
    Zr350  O998      0.63553      .   S
    Zr525  O998      0.63553      .   S
    Zr349  O999      0.63553      .   S
    Zr524  O999      0.63553      .   S
    Zr351  O1000     0.63553      .   S
    Zr526  O1000     0.63553      .   S
    Zr525  O1001     0.62440      .   S
    Zr315  O1001     0.62440      .   S
    Zr524  O1002     0.62440      .   S
    Zr314  O1002     0.62440      .   S
    Zr526  O1003     0.62440      .   S
    Zr316  O1003     0.62440      .   S
    Zr462  O1004     0.61258      .   S
    Zr182  O1004     0.61258      .   S
    Zr462  O1005     0.67137      .   S
    Zr217  O1005     0.67137      .   S
    Zr460  O1006     0.61258      .   S
    Zr180  O1006     0.61258      .   S
    Zr460  O1007     0.67137      .   S
    Zr215  O1007     0.67137      .   S
    Zr461  O1008     0.61258      .   S
    Zr181  O1008     0.61258      .   S
    Zr461  O1009     0.67137      .   S
    Zr216  O1009     0.67137      .   S
    Zr181  O1010     0.95602      .   S
    Zr61   O1010     0.95602      .   S
    Zr182  O1011     0.95602      .   S
    Zr62   O1011     0.95602      .   S
    Zr180  O1012     0.95602      .   S
    Zr63   O1012     0.95602      .   S
    Zr215  O1013     0.93696      .   S
    Zr61   O1013     0.93696      .   S
    Zr217  O1014     0.93696      .   S
    Zr63   O1014     0.93696      .   S
    Zr216  O1015     0.93696      .   S
    Zr62   O1015     0.93696      .   S
    Zr61   O1016     0.96644      .   S
    Zr128  O1016     0.96644      .   S
    Zr61   O1017     0.93728      .   S
    Zr371  O1017     0.93728      .   S
    Zr63   O1018     0.93728      .   S
    Zr369  O1018     0.93728      .   S
    Zr62   O1019     0.96644      .   S
    Zr128  O1019     0.96644      .   S
    Zr62   O1020     0.93728      .   S
    Zr370  O1020     0.93728      .   S
    Zr369  O1021     0.59521      .   S
    Zr544  O1021     0.59521      .   S
    Zr371  O1022     0.59521      .   S
    Zr546  O1022     0.59521      .   S
    Zr370  O1023     0.59521      .   S
    Zr545  O1023     0.59521      .   S
    Zr544  O1024     0.66986      .   S
    Zr404  O1024     0.66986      .   S
    Zr545  O1025     0.66986      .   S
    Zr405  O1025     0.66986      .   S
    Zr546  O1026     0.66986      .   S
    Zr406  O1026     0.66986      .   S
    Zr28   O1027     0.95489      .   S
    Zr404  O1027     0.95489      .   S
    Zr28   O1028     0.95489      .   S
    Zr405  O1028     0.95489      .   S
    Zr28   O1029     0.95489      .   S
    Zr406  O1029     0.95489      .   S
    Zr419  O1030     0.95489      .   S
    Zr23   O1030     0.95489      .   S
    Zr419  O1031     0.66986      .   S
    Zr559  O1031     0.66986      .   S
    Zr420  O1032     0.95489      .   S
    Zr23   O1032     0.95489      .   S
    Zr420  O1033     0.66986      .   S
    Zr560  O1033     0.66986      .   S
    Zr421  O1034     0.95489      .   S
    Zr23   O1034     0.95489      .   S
    Zr421  O1035     0.66986      .   S
    Zr561  O1035     0.66986      .   S
    Zr559  O1036     0.59521      .   S
    Zr384  O1036     0.59521      .   S
    Zr561  O1037     0.59521      .   S
    Zr386  O1037     0.59521      .   S
    Zr560  O1038     0.59521      .   S
    Zr385  O1038     0.59521      .   S
    Zr384  O1039     0.93728      .   S
    Zr48   O1039     0.93728      .   S
    Zr385  O1040     0.93728      .   S
    Zr47   O1040     0.93728      .   S
    Zr386  O1041     0.93728      .   S
    Zr46   O1041     0.93728      .   S
    Zr123  O1042     0.96644      .   S
    Zr47   O1042     0.96644      .   S
    Zr123  O1043     0.96644      .   S
    Zr46   O1043     0.96644      .   S
    Zr47   O1044     0.93696      .   S
    Zr201  O1044     0.93696      .   S
    Zr47   O1045     0.95602      .   S
    Zr167  O1045     0.95602      .   S
    Zr46   O1046     0.93696      .   S
    Zr200  O1046     0.93696      .   S
    Zr46   O1047     0.95602      .   S
    Zr166  O1047     0.95602      .   S
    Zr48   O1048     0.93696      .   S
    Zr202  O1048     0.93696      .   S
    Zr48   O1049     0.95602      .   S
    Zr165  O1049     0.95602      .   S
    Zr200  O1050     0.67137      .   S
    Zr445  O1050     0.67137      .   S
    Zr201  O1051     0.67137      .   S
    Zr446  O1051     0.67137      .   S
    Zr202  O1052     0.67137      .   S
    Zr447  O1052     0.67137      .   S
    Zr166  O1053     0.61258      .   S
    Zr446  O1053     0.61258      .   S
    Zr167  O1054     0.61258      .   S
    Zr447  O1054     0.61258      .   S
    Zr165  O1055     0.61258      .   S
    Zr445  O1055     0.61258      .   S
    Zr300  O1056     0.62440      .   S
    Zr510  O1056     0.62440      .   S
    Zr299  O1057     0.62440      .   S
    Zr509  O1057     0.62440      .   S
    Zr301  O1058     0.62440      .   S
    Zr511  O1058     0.62440      .   S
    Zr509  O1059     0.63553      .   S
    Zr334  O1059     0.63553      .   S
    Zr510  O1060     0.63553      .   S
    Zr335  O1060     0.63553      .   S
    Zr511  O1061     0.63553      .   S
    Zr336  O1061     0.63553      .   S
    Zr103  O1062     0.94408      .   S
    Zr133  O1062     0.94408      .   S
    Zr102  O1063     0.94408      .   S
    Zr132  O1063     0.94408      .   S
    Zr104  O1064     0.94408      .   S
    Zr134  O1064     0.94408      .   S
    Zr134  O1065     0.97060  1_545   S
    Zr76   O1065     0.97060      .   S
    Zr133  O1066     0.97060      .   S
    Zr75   O1066     0.97060      .   S
    Zr132  O1067     0.97060  1_655   S
    Zr77   O1067     0.97060      .   S
    Zr75   O1068     0.90314      .   S
    Zr264  O1068     0.90314      .   S
    Zr75   O1069     0.93867      .   S
    Zr231  O1069     0.93867      .   S
    Zr76   O1070     0.90314      .   S
    Zr265  O1070     0.90314  1_545   S
    Zr76   O1071     0.93867      .   S
    Zr229  O1071     0.93867      .   S
    Zr77   O1072     0.90314      .   S
    Zr266  O1072     0.90314  1_655   S
    Zr77   O1073     0.93867      .   S
    Zr230  O1073     0.93867      .   S
    Zr265  O1074     0.75796      .   S
    Zr475  O1074     0.75796      .   S
    Zr266  O1075     0.75796      .   S
    Zr476  O1075     0.75796      .   S
    Zr264  O1076     0.75796      .   S
    Zr474  O1076     0.75796      .   S
    Zr229  O1077     0.58021  1_455   S
    Zr474  O1077     0.58021      .   S
    Zr231  O1078     0.58021  1_565   S
    Zr476  O1078     0.58021      .   S
    Zr230  O1079     0.58021      .   S
    Zr475  O1079     0.58021      .   S
    Zr482  O1080     0.58021      .   S
    Zr237  O1080     0.58021      .   S
    Zr482  O1081     0.75796      .   S
    Zr272  O1081     0.75796      .   S
    Zr480  O1082     0.58021      .   S
    Zr235  O1082     0.58021      .   S
    Zr480  O1083     0.75796      .   S
    Zr270  O1083     0.75796      .   S
    Zr481  O1084     0.58021      .   S
    Zr236  O1084     0.58021      .   S
    Zr481  O1085     0.75796      .   S
    Zr271  O1085     0.75796      .   S
    Zr237  O1086     0.93867      .   S
    Zr81   O1086     0.93867      .   S
    Zr236  O1087     0.93867      .   S
    Zr83   O1087     0.93867      .   S
    Zr235  O1088     0.93867      .   S
    Zr82   O1088     0.93867      .   S
    Zr271  O1089     0.90314      .   S
    Zr82   O1089     0.90314      .   S
    Zr272  O1090     0.90314      .   S
    Zr83   O1090     0.90314      .   S
    Zr270  O1091     0.90314      .   S
    Zr81   O1091     0.90314      .   S
    Zr82   O1092     0.98052      .   S
    Zr342  O1092     0.98052      .   S
    Zr83   O1093     0.97060      .   S
    Zr136  O1093     0.97060      .   S
    Zr83   O1094     0.98052      .   S
    Zr340  O1094     0.98052      .   S
    Zr81   O1095     0.98052      .   S
    Zr341  O1095     0.98052      .   S
    Zr136  O1096     0.94408      .   S
    Zr106  O1096     0.94408      .   S
    Zr340  O1097     0.63553      .   S
    Zr515  O1097     0.63553      .   S
    Zr341  O1098     0.63553      .   S
    Zr516  O1098     0.63553      .   S
    Zr342  O1099     0.63553      .   S
    Zr517  O1099     0.63553      .   S
    Zr106  O1100     0.96534      .   S
    Zr307  O1100     0.96534      .   S
    Zr106  O1101     0.96449      .   S
    Zr305  O1101     0.96449      .   S
    Zr106  O1102     0.96427      .   S
    Zr306  O1102     0.96427      .   S
    Zr515  O1103     0.62440      .   S
    Zr305  O1103     0.62440      .   S
    Zr516  O1104     0.62440      .   S
    Zr306  O1104     0.62440      .   S
    Zr517  O1105     0.62440      .   S
    Zr307  O1105     0.62440      .   S
    Zr439  O1106     0.61258      .   S
    Zr159  O1106     0.61258      .   S
    Zr439  O1107     0.67137      .   S
    Zr194  O1107     0.67137      .   S
    Zr440  O1108     0.61258      .   S
    Zr160  O1108     0.61258      .   S
    Zr440  O1109     0.67137      .   S
    Zr195  O1109     0.67137      .   S
    Zr441  O1110     0.61258      .   S
    Zr161  O1110     0.61258      .   S
    Zr441  O1111     0.67137      .   S
    Zr196  O1111     0.67137      .   S
    Zr159  O1112     0.95602      .   S
    Zr42   O1112     0.95602      .   S
    Zr160  O1113     0.95602      .   S
    Zr40   O1113     0.95602      .   S
    Zr161  O1114     0.95602      .   S
    Zr41   O1114     0.95602      .   S
    Zr194  O1115     0.93696      .   S
    Zr40   O1115     0.93696      .   S
    Zr195  O1116     0.93696      .   S
    Zr41   O1116     0.93696      .   S
    Zr196  O1117     0.93696      .   S
    Zr42   O1117     0.93696      .   S
    Zr42   O1118     0.93728      .   S
    Zr366  O1118     0.93728      .   S
    Zr40   O1119     0.96644      .   S
    Zr121  O1119     0.96644      .   S
    Zr40   O1120     0.93728      .   S
    Zr368  O1120     0.93728      .   S
    Zr41   O1121     0.96644      .   S
    Zr121  O1121     0.96644      .   S
    Zr41   O1122     0.93728      .   S
    Zr367  O1122     0.93728      .   S
    Zr368  O1123     0.59521      .   S
    Zr543  O1123     0.59521      .   S
    Zr367  O1124     0.59521      .   S
    Zr542  O1124     0.59521      .   S
    Zr366  O1125     0.59521      .   S
    Zr541  O1125     0.59521      .   S
    Zr543  O1126     0.66986      .   S
    Zr403  O1126     0.66986      .   S
    Zr542  O1127     0.66986      .   S
    Zr402  O1127     0.66986      .   S
    Zr541  O1128     0.66986      .   S
    Zr401  O1128     0.66986      .   S
    Zr21   O1129     0.95489      .   S
    Zr403  O1129     0.95489      .   S
    Zr21   O1130     0.95489      .   S
    Zr402  O1130     0.95489      .   S
    Zr21   O1131     0.95489      .   S
    Zr401  O1131     0.95489      .   S
    Zr410  O1132     0.95489      .   S
    Zr18   O1132     0.95489      .   S
    Zr410  O1133     0.66986      .   S
    Zr550  O1133     0.66986      .   S
    Zr411  O1134     0.95489      .   S
    Zr18   O1134     0.95489  1_445   S
    Zr411  O1135     0.66986      .   S
    Zr551  O1135     0.66986      .   S
    Zr412  O1136     0.95489      .   S
    Zr18   O1136     0.95489  1_545   S
    Zr412  O1137     0.66986      .   S
    Zr552  O1137     0.66986      .   S
    Zr552  O1138     0.59521      .   S
    Zr377  O1138     0.59521      .   S
    Zr550  O1139     0.59521      .   S
    Zr375  O1139     0.59521      .   S
    Zr551  O1140     0.59521      .   S
    Zr376  O1140     0.59521      .   S
    Zr375  O1141     0.93728      .   S
    Zr33   O1141     0.93728      .   S
    Zr376  O1142     0.93728      .   S
    Zr32   O1142     0.93728      .   S
    Zr377  O1143     0.93728      .   S
    Zr31   O1143     0.93728      .   S
    Zr118  O1144     0.96644  1_445   S
    Zr32   O1144     0.96644      .   S
    Zr118  O1145     0.96644  1_545   S
    Zr31   O1145     0.96644      .   S
    Zr32   O1146     0.93696      .   S
    Zr186  O1146     0.93696      .   S
    Zr32   O1147     0.95602      .   S
    Zr152  O1147     0.95602      .   S
    Zr33   O1148     0.93696  1_455   S
    Zr187  O1148     0.93696      .   S
    Zr33   O1149     0.95602      .   S
    Zr150  O1149     0.95602      .   S
    Zr31   O1150     0.93696  1_565   S
    Zr185  O1150     0.93696      .   S
    Zr31   O1151     0.95602      .   S
    Zr151  O1151     0.95602      .   S
    Zr187  O1152     0.67137      .   S
    Zr432  O1152     0.67137      .   S
    Zr186  O1153     0.67137      .   S
    Zr431  O1153     0.67137      .   S
    Zr185  O1154     0.67137      .   S
    Zr430  O1154     0.67137      .   S
    Zr150  O1155     0.61258      .   S
    Zr430  O1155     0.61258      .   S
    Zr151  O1156     0.61258  1_455   S
    Zr431  O1156     0.61258      .   S
    Zr152  O1157     0.61258  1_565   S
    Zr432  O1157     0.61258      .   S
    Zr298  O1158     0.62440      .   S
    Zr508  O1158     0.62440      .   S
    Zr298  O1159     0.96534      .   S
    Zr101  O1159     0.96534      .   S
    Zr297  O1160     0.62440      .   S
    Zr507  O1160     0.62440      .   S
    Zr297  O1161     0.96427      .   S
    Zr101  O1161     0.96427      .   S
    Zr296  O1162     0.62440      .   S
    Zr506  O1162     0.62440      .   S
    Zr296  O1163     0.96449      .   S
    Zr101  O1163     0.96449      .   S
    Zr508  O1164     0.63553      .   S
    Zr333  O1164     0.63553      .   S
    Zr507  O1165     0.63553      .   S
    Zr332  O1165     0.63553      .   S
    Zr506  O1166     0.63553      .   S
    Zr331  O1166     0.63553      .   S
    Zr101  O1167     0.94408      .   S
    Zr131  O1167     0.94408      .   S
    Zr333  O1168     0.98052      .   S
    Zr73   O1168     0.98052      .   S
    Zr332  O1169     0.98052      .   S
    Zr72   O1169     0.98052      .   S
    Zr331  O1170     0.98052      .   S
    Zr74   O1170     0.98052      .   S
    Zr131  O1171     0.97060      .   S
    Zr74   O1171     0.97060      .   S
    Zr73   O1172     0.90314      .   S
    Zr262  O1172     0.90314      .   S
    Zr73   O1173     0.93867      .   S
    Zr226  O1173     0.93867      .   S
    Zr72   O1174     0.90314      .   S
    Zr261  O1174     0.90314      .   S
    Zr72   O1175     0.93867      .   S
    Zr228  O1175     0.93867      .   S
    Zr74   O1176     0.90314      .   S
    Zr263  O1176     0.90314      .   S
    Zr74   O1177     0.93867      .   S
    Zr227  O1177     0.93867      .   S
    Zr263  O1178     0.75796      .   S
    Zr473  O1178     0.75796      .   S
    Zr262  O1179     0.75796      .   S
    Zr472  O1179     0.75796      .   S
    Zr261  O1180     0.75796      .   S
    Zr471  O1180     0.75796      .   S
    Zr226  O1181     0.58021      .   S
    Zr471  O1181     0.58021      .   S
    Zr227  O1182     0.58021      .   S
    Zr472  O1182     0.58021      .   S
    Zr228  O1183     0.58021      .   S
    Zr473  O1183     0.58021      .   S
    Zr4    O1184     0.97120      .   S
    Zr0    O1184     0.97120      .   S
    Zr4    O1185     0.96644  1_445   S
    Zr29   O1185     0.96644      .   S
    Zr5    O1186     0.97080      .   S
    Zr2    O1186     0.97080      .   S
    Zr5    O1187     0.97168      .   S
    Zr64   O1187     0.97168      .   S
    Zr118  O1188     0.97120      .   S
    Zr18   O1188     0.97120      .   S
    Zr118  O1189     0.96644      .   S
    Zr33   O1189     0.96644      .   S
    Zr119  O1190     0.97120      .   S
    Zr19   O1190     0.97120      .   S
    Zr119  O1191     0.96644  1_445   S
    Zr36   O1191     0.96644      .   S
    Zr120  O1192     0.97120      .   S
    Zr20   O1192     0.97120      .   S
    Zr120  O1193     0.96644  1_445   S
    Zr39   O1193     0.96644      .   S
    Zr121  O1194     0.97120      .   S
    Zr21   O1194     0.97120      .   S
    Zr121  O1195     0.96644      .   S
    Zr42   O1195     0.96644      .   S
    Zr122  O1196     0.97120      .   S
    Zr22   O1196     0.97120      .   S
    Zr122  O1197     0.96644      .   S
    Zr44   O1197     0.96644      .   S
    Zr123  O1198     0.97120      .   S
    Zr23   O1198     0.97120      .   S
    Zr123  O1199     0.96644      .   S
    Zr48   O1199     0.96644      .   S
    Zr124  O1200     0.97120      .   S
    Zr24   O1200     0.97120      .   S
    Zr124  O1201     0.96644      .   S
    Zr50   O1201     0.96644      .   S
    Zr125  O1202     0.97120      .   S
    Zr25   O1202     0.97120      .   S
    Zr125  O1203     0.96644      .   S
    Zr53   O1203     0.96644      .   S
    Zr126  O1204     0.97120      .   S
    Zr26   O1204     0.97120      .   S
    Zr126  O1205     0.96644      .   S
    Zr56   O1205     0.96644      .   S
    Zr127  O1206     0.97120      .   S
    Zr27   O1206     0.97120      .   S
    Zr127  O1207     0.96644      .   S
    Zr60   O1207     0.96644      .   S
    Zr128  O1208     0.97120      .   S
    Zr28   O1208     0.97120      .   S
    Zr128  O1209     0.96644      .   S
    Zr63   O1209     0.96644      .   S
    Zr129  O1210     0.97080      .   S
    Zr66   O1210     0.97080      .   S
    Zr129  O1211     0.97168      .   S
    Zr67   O1211     0.97168      .   S
    Zr130  O1212     0.97080      .   S
    Zr69   O1212     0.97080      .   S
    Zr130  O1213     0.97168      .   S
    Zr70   O1213     0.97168      .   S
    Zr131  O1214     0.97080      .   S
    Zr72   O1214     0.97080      .   S
    Zr131  O1215     0.97168      .   S
    Zr73   O1215     0.97168      .   S
    Zr132  O1216     0.97080  1_545   S
    Zr75   O1216     0.97080      .   S
    Zr132  O1217     0.97168  1_645   S
    Zr76   O1217     0.97168      .   S
    Zr132  O1218     0.94408  1_545   S
    Zr103  O1218     0.94408      .   S
    Zr132  O1219     0.94408  1_655   S
    Zr104  O1219     0.94408      .   S
    Zr133  O1220     0.97080  1_655   S
    Zr76   O1220     0.97080      .   S
    Zr133  O1221     0.97168  1_665   S
    Zr77   O1221     0.97168      .   S
    Zr133  O1222     0.94408      .   S
    Zr102  O1222     0.94408  1_545   S
    Zr133  O1223     0.94408  1_655   S
    Zr104  O1223     0.94408  1_545   S
    Zr134  O1224     0.97168  1_445   S
    Zr75   O1224     0.97168      .   S
    Zr134  O1225     0.97080      .   S
    Zr77   O1225     0.97080      .   S
    Zr134  O1226     0.94408      .   S
    Zr102  O1226     0.94408  1_655   S
    Zr134  O1227     0.94408  1_545   S
    Zr103  O1227     0.94408  1_655   S
    Zr135  O1228     0.97080      .   S
    Zr78   O1228     0.97080      .   S
    Zr135  O1229     0.97168      .   S
    Zr79   O1229     0.97168      .   S
    Zr136  O1230     0.97080      .   S
    Zr81   O1230     0.97080      .   S
    Zr136  O1231     0.97168      .   S
    Zr82   O1231     0.97168      .   S
    Zr137  O1232     0.97080  1_655   S
    Zr84   O1232     0.97080      .   S
    Zr137  O1233     0.97168  1_645   S
    Zr85   O1233     0.97168      .   S
    Zr137  O1234     0.94408  1_655   S
    Zr108  O1234     0.94408      .   S
    Zr137  O1235     0.94408  1_545   S
    Zr109  O1235     0.94408      .   S
    Zr138  O1236     0.97080  1_545   S
    Zr85   O1236     0.97080      .   S
    Zr138  O1237     0.97168  1_445   S
    Zr86   O1237     0.97168      .   S
    Zr138  O1238     0.94408      .   S
    Zr107  O1238     0.94408  1_655   S
    Zr138  O1239     0.94408  1_545   S
    Zr109  O1239     0.94408  1_655   S
    Zr139  O1240     0.97168  1_665   S
    Zr84   O1240     0.97168      .   S
    Zr139  O1241     0.97080      .   S
    Zr86   O1241     0.97080      .   S
    Zr139  O1242     0.94408      .   S
    Zr107  O1242     0.94408  1_545   S
    Zr139  O1243     0.94408  1_655   S
    Zr108  O1243     0.94408  1_545   S
    Zr140  O1244     0.97080      .   S
    Zr87   O1244     0.97080      .   S
    Zr140  O1245     0.97168      .   S
    Zr88   O1245     0.97168      .   S
    Zr141  O1246     0.97080  1_455   S
    Zr90   O1246     0.97080      .   S
    Zr141  O1247     0.97168  1_465   S
    Zr91   O1247     0.97168      .   S
    Zr141  O1248     0.94408  1_455   S
    Zr112  O1248     0.94408      .   S
    Zr141  O1249     0.94408  1_565   S
    Zr113  O1249     0.94408      .   S
    Zr142  O1250     0.97080  1_565   S
    Zr91   O1250     0.97080      .   S
    Zr142  O1251     0.97168  1_665   S
    Zr92   O1251     0.97168      .   S
    Zr142  O1252     0.94408      .   S
    Zr111  O1252     0.94408  1_455   S
    Zr142  O1253     0.94408  1_565   S
    Zr113  O1253     0.94408  1_455   S
    Zr143  O1254     0.97168  1_445   S
    Zr90   O1254     0.97168      .   S
    Zr143  O1255     0.97080      .   S
    Zr92   O1255     0.97080      .   S
    Zr143  O1256     0.94408      .   S
    Zr111  O1256     0.94408  1_565   S
    Zr143  O1257     0.94408  1_455   S
    Zr112  O1257     0.94408  1_565   S
    Zr144  O1258     0.97080  1_565   S
    Zr93   O1258     0.97080      .   S
    Zr144  O1259     0.97168  1_465   S
    Zr94   O1259     0.97168      .   S
    Zr144  O1260     0.94408  1_565   S
    Zr115  O1260     0.94408      .   S
    Zr144  O1261     0.94408  1_455   S
    Zr116  O1261     0.94408      .   S
    Zr145  O1262     0.97080  1_455   S
    Zr94   O1262     0.97080      .   S
    Zr145  O1263     0.97168  1_445   S
    Zr95   O1263     0.97168      .   S
    Zr145  O1264     0.94408      .   S
    Zr114  O1264     0.94408  1_565   S
    Zr145  O1265     0.94408  1_455   S
    Zr116  O1265     0.94408  1_565   S
    Zr146  O1266     0.97168  1_665   S
    Zr93   O1266     0.97168      .   S
    Zr146  O1267     0.97080      .   S
    Zr95   O1267     0.97080      .   S
    Zr146  O1268     0.94408      .   S
    Zr114  O1268     0.94408  1_455   S
    Zr146  O1269     0.94408  1_565   S
    Zr115  O1269     0.94408  1_455   S
    Zr147  O1270     0.97080      .   S
    Zr96   O1270     0.97080      .   S
    Zr147  O1271     0.97168      .   S
    Zr97   O1271     0.97168      .   S
    Zr299  O1272     0.96449      .   S
    Zr102  O1272     0.96449  1_655   S
    Zr299  O1273     0.96534      .   S
    Zr103  O1273     0.96534  1_665   S
    Zr299  O1274     0.96427      .   S
    Zr104  O1274     0.96427      .   S
    Zr300  O1275     0.96427      .   S
    Zr102  O1275     0.96427  1_545   S
    Zr300  O1276     0.96449      .   S
    Zr103  O1276     0.96449      .   S
    Zr300  O1277     0.96534      .   S
    Zr104  O1277     0.96534  1_445   S
    Zr301  O1278     0.96534      .   S
    Zr102  O1278     0.96534  1_645   S
    Zr301  O1279     0.96427      .   S
    Zr103  O1279     0.96427  1_655   S
    Zr301  O1280     0.96449      .   S
    Zr104  O1280     0.96449  1_545   S
    Zr308  O1281     0.96449      .   S
    Zr107  O1281     0.96449  1_545   S
    Zr308  O1282     0.96534      .   S
    Zr108  O1282     0.96534  1_445   S
    Zr308  O1283     0.96427      .   S
    Zr109  O1283     0.96427      .   S
    Zr309  O1284     0.96427      .   S
    Zr107  O1284     0.96427  1_655   S
    Zr309  O1285     0.96449      .   S
    Zr108  O1285     0.96449      .   S
    Zr309  O1286     0.96534      .   S
    Zr109  O1286     0.96534  1_665   S
    Zr310  O1287     0.96534      .   S
    Zr107  O1287     0.96534  1_645   S
    Zr310  O1288     0.96427      .   S
    Zr108  O1288     0.96427  1_545   S
    Zr310  O1289     0.96449      .   S
    Zr109  O1289     0.96449  1_655   S
    Zr314  O1290     0.96449      .   S
    Zr111  O1290     0.96449  1_565   S
    Zr314  O1291     0.96534      .   S
    Zr112  O1291     0.96534  1_665   S
    Zr314  O1292     0.96427      .   S
    Zr113  O1292     0.96427      .   S
    Zr315  O1293     0.96427      .   S
    Zr111  O1293     0.96427  1_455   S
    Zr315  O1294     0.96449      .   S
    Zr112  O1294     0.96449      .   S
    Zr315  O1295     0.96534      .   S
    Zr113  O1295     0.96534  1_445   S
    Zr316  O1296     0.96534      .   S
    Zr111  O1296     0.96534  1_465   S
    Zr316  O1297     0.96427      .   S
    Zr112  O1297     0.96427  1_565   S
    Zr316  O1298     0.96449      .   S
    Zr113  O1298     0.96449  1_455   S
    Zr317  O1299     0.96449      .   S
    Zr114  O1299     0.96449  1_455   S
    Zr317  O1300     0.96534      .   S
    Zr115  O1300     0.96534  1_445   S
    Zr317  O1301     0.96427      .   S
    Zr116  O1301     0.96427      .   S
    Zr318  O1302     0.96427      .   S
    Zr114  O1302     0.96427  1_565   S
    Zr318  O1303     0.96449      .   S
    Zr115  O1303     0.96449      .   S
    Zr318  O1304     0.96534      .   S
    Zr116  O1304     0.96534  1_665   S
    Zr319  O1305     0.96534      .   S
    Zr114  O1305     0.96534  1_465   S
    Zr319  O1306     0.96427      .   S
    Zr115  O1306     0.96427  1_455   S
    Zr319  O1307     0.96449      .   S
    Zr116  O1307     0.96449  1_565   S
    Zr334  O1308     0.98052      .   S
    Zr77   O1308     0.98052      .   S
    Zr335  O1309     0.98052      .   S
    Zr75   O1309     0.98052      .   S
    Zr336  O1310     0.98052      .   S
    Zr76   O1310     0.98052      .   S
    Zr343  O1311     0.98052      .   S
    Zr86   O1311     0.98052      .   S
    Zr344  O1312     0.98052      .   S
    Zr84   O1312     0.98052      .   S
    Zr345  O1313     0.98052      .   S
    Zr85   O1313     0.98052      .   S
    Zr349  O1314     0.98052      .   S
    Zr92   O1314     0.98052      .   S
    Zr350  O1315     0.98052      .   S
    Zr90   O1315     0.98052      .   S
    Zr351  O1316     0.98052      .   S
    Zr91   O1316     0.98052      .   S
    Zr352  O1317     0.98052      .   S
    Zr95   O1317     0.98052      .   S
    Zr353  O1318     0.98052      .   S
    Zr93   O1318     0.98052      .   S
    Zr354  O1319     0.98052      .   S
    Zr94   O1319     0.98052      .   S
    N1320  O1321     2.14669      .   S
    Zr15   O1321     2.90044      .   S
    N1320  O1322     2.15292      .   S
    Zr14   O1322     2.88872      .   S
    N1323  O1324     2.14979  1_565   S
    Zr17   O1324     2.92427      .   S
    N1323  O1325     2.11678      .   S
    Zr16   O1325     2.87731      .   S
    N1326  O1327     2.11678      .   S
    Zr498  O1327     2.87731      .   S
    N1326  O1328     2.14979  1_455   S
    Zr533  O1328     2.92427      .   S
    N1329  O1330     2.11678      .   S
    Zr499  O1330     2.87731      .   S
    N1329  O1331     2.14979      .   S
    Zr534  O1331     2.92427      .   S
    N1332  O1333     2.14669      .   S
    Zr470  O1333     2.90044      .   S
    N1332  O1334     2.15292      .   S
    Zr435  O1334     2.88872      .   S
    N1335  O1336     2.14669      .   S
    Zr469  O1336     2.90044      .   S
    N1335  O1337     2.15292      .   S
    Zr434  O1337     2.88872      .   S
    N1338  O1339     2.14669      .   S
    Zr468  O1339     2.90044      .   S
    N1338  O1340     2.15292      .   S
    Zr433  O1340     2.88872      .   S
    N1341  O1342     2.14979      .   S
    Zr559  O1342     2.92427      .   S
    N1341  O1343     2.11678      .   S
    Zr524  O1343     2.87731      .   S
    N1344  O1345     2.14979      .   S
    Zr560  O1345     2.92427      .   S
    N1344  O1346     2.11678      .   S
    Zr525  O1346     2.87731      .   S
    N1347  O1348     2.14979      .   S
    Zr561  O1348     2.92427      .   S
    N1347  O1349     2.11678      .   S
    Zr526  O1349     2.87731      .   S
    N1350  O1351     2.14979      .   S
    Zr562  O1351     2.92427      .   S
    N1350  O1352     2.11678      .   S
    Zr527  O1352     2.87731      .   S
    N1353  O1354     2.14979      .   S
    Zr563  O1354     2.92427      .   S
    N1353  O1355     2.11678      .   S
    Zr528  O1355     2.87731      .   S
    N1356  O1357     2.14979      .   S
    Zr564  O1357     2.92427      .   S
    N1356  O1358     2.11678      .   S
    Zr529  O1358     2.87731      .   S
    N1359  O1360     2.14979      .   S
    Zr565  O1360     2.92427      .   S
    N1359  O1361     2.11678      .   S
    Zr530  O1361     2.87731      .   S
    N1362  O1363     2.11678      .   S
    Zr531  O1363     2.87731      .   S
    N1362  O1364     2.14979      .   S
    Zr566  O1364     2.92427      .   S
    N1365  O1366     2.11678      .   S
    Zr532  O1366     2.87731      .   S
    N1365  O1367     2.14979      .   S
    Zr567  O1367     2.92427      .   S
    N1368  O1369     2.11678      .   S
    Zr500  O1369     2.87731      .   S
    N1368  O1370     2.14979  1_655   S
    Zr535  O1370     2.92427      .   S
    N1371  O1372     2.11678      .   S
    Zr501  O1372     2.87731      .   S
    N1371  O1373     2.14979  1_545   S
    Zr536  O1373     2.92427      .   S
    N1374  O1375     2.11678      .   S
    Zr502  O1375     2.87731      .   S
    N1374  O1376     2.14979      .   S
    Zr537  O1376     2.92427      .   S
    N1377  O1378     2.11678      .   S
    Zr503  O1378     2.87731      .   S
    N1377  O1379     2.14979  1_545   S
    Zr538  O1379     2.92427      .   S
    N1380  O1381     2.11678      .   S
    Zr504  O1381     2.87731      .   S
    N1380  O1382     2.14979  1_655   S
    Zr539  O1382     2.92427      .   S
    N1383  O1384     2.14979      .   S
    Zr540  O1384     2.92427      .   S
    N1383  O1385     2.11678      .   S
    Zr505  O1385     2.87731      .   S
    N1386  O1387     2.14979  1_455   S
    Zr541  O1387     2.92427      .   S
    N1386  O1388     2.11678      .   S
    Zr506  O1388     2.87731      .   S
    N1389  O1390     2.14979  1_565   S
    Zr542  O1390     2.92427      .   S
    N1389  O1391     2.11678      .   S
    Zr507  O1391     2.87731      .   S
    N1392  O1393     2.14979      .   S
    Zr543  O1393     2.92427      .   S
    N1392  O1394     2.11678      .   S
    Zr508  O1394     2.87731      .   S
    N1395  O1396     2.14979      .   S
    Zr544  O1396     2.92427      .   S
    N1395  O1397     2.11678      .   S
    Zr509  O1397     2.87731      .   S
    N1398  O1399     2.14979      .   S
    Zr545  O1399     2.92427      .   S
    N1398  O1400     2.11678      .   S
    Zr510  O1400     2.87731      .   S
    N1401  O1402     2.14979      .   S
    Zr546  O1402     2.92427      .   S
    N1401  O1403     2.11678      .   S
    Zr511  O1403     2.87731      .   S
    N1404  O1405     2.14979      .   S
    Zr547  O1405     2.92427      .   S
    N1404  O1406     2.11678      .   S
    Zr512  O1406     2.87731      .   S
    N1407  O1408     2.14979      .   S
    Zr548  O1408     2.92427      .   S
    N1407  O1409     2.11678      .   S
    Zr513  O1409     2.87731      .   S
    N1410  O1411     2.14979      .   S
    Zr549  O1411     2.92427      .   S
    N1410  O1412     2.11678      .   S
    Zr514  O1412     2.87731      .   S
    N1413  O1414     2.14979      .   S
    Zr550  O1414     2.92427      .   S
    N1413  O1415     2.11678      .   S
    Zr515  O1415     2.87731      .   S
    N1416  O1417     2.14979      .   S
    Zr551  O1417     2.92427      .   S
    N1416  O1418     2.11678      .   S
    Zr516  O1418     2.87731      .   S
    N1419  O1420     2.14979      .   S
    Zr552  O1420     2.92427      .   S
    N1419  O1421     2.11678      .   S
    Zr517  O1421     2.87731      .   S
    N1422  O1423     2.14979      .   S
    Zr553  O1423     2.92427      .   S
    N1422  O1424     2.11678      .   S
    Zr518  O1424     2.87731      .   S
    N1425  O1426     2.14979      .   S
    Zr554  O1426     2.92427      .   S
    N1425  O1427     2.11678      .   S
    Zr519  O1427     2.87731      .   S
    N1428  O1429     2.14979      .   S
    Zr555  O1429     2.92427      .   S
    N1428  O1430     2.11678      .   S
    Zr520  O1430     2.87731      .   S
    N1431  O1432     2.14979      .   S
    Zr556  O1432     2.92427      .   S
    N1431  O1433     2.11678      .   S
    Zr521  O1433     2.87731      .   S
    N1434  O1435     2.14979      .   S
    Zr557  O1435     2.92427      .   S
    N1434  O1436     2.11678      .   S
    Zr522  O1436     2.87731      .   S
    N1437  O1438     2.14979      .   S
    Zr558  O1438     2.92427      .   S
    N1437  O1439     2.11678      .   S
    Zr523  O1439     2.87731      .   S
    N1440  O1441     2.14669      .   S
    Zr485  O1441     2.90044      .   S
    N1440  O1442     2.15292      .   S
    Zr450  O1442     2.88872      .   S
    N1443  O1444     2.14669  1_565   S
    Zr486  O1444     2.90044      .   S
    N1443  O1445     2.15292      .   S
    Zr451  O1445     2.88872      .   S
    N1446  O1447     2.14669  1_455   S
    Zr487  O1447     2.90044      .   S
    N1446  O1448     2.15292      .   S
    Zr452  O1448     2.88872      .   S
    N1449  O1450     2.14669      .   S
    Zr488  O1450     2.90044      .   S
    N1449  O1451     2.15292      .   S
    Zr453  O1451     2.88872      .   S
    N1452  O1453     2.14669      .   S
    Zr489  O1453     2.90044      .   S
    N1452  O1454     2.15292      .   S
    Zr454  O1454     2.88872      .   S
    N1455  O1456     2.14669      .   S
    Zr490  O1456     2.90044      .   S
    N1455  O1457     2.15292      .   S
    Zr455  O1457     2.88872      .   S
    N1458  O1459     2.14669      .   S
    Zr491  O1459     2.90044      .   S
    N1458  O1460     2.15292      .   S
    Zr456  O1460     2.88872      .   S
    N1461  O1462     2.14669      .   S
    Zr492  O1462     2.90044      .   S
    N1461  O1463     2.15292      .   S
    Zr457  O1463     2.88872      .   S
    N1464  O1465     2.14669      .   S
    Zr493  O1465     2.90044      .   S
    N1464  O1466     2.15292      .   S
    Zr458  O1466     2.88872      .   S
    N1467  O1468     2.14669      .   S
    Zr494  O1468     2.90044      .   S
    N1467  O1469     2.15292      .   S
    Zr459  O1469     2.88872      .   S
    N1470  O1471     2.14669  1_455   S
    Zr495  O1471     2.90044      .   S
    N1470  O1472     2.15292      .   S
    Zr460  O1472     2.88872      .   S
    N1473  O1474     2.14669  1_565   S
    Zr496  O1474     2.90044      .   S
    N1473  O1475     2.15292      .   S
    Zr461  O1475     2.88872      .   S
    N1476  O1477     2.14669      .   S
    Zr497  O1477     2.90044      .   S
    N1476  O1478     2.15292      .   S
    Zr462  O1478     2.88872      .   S
    N1479  O1480     2.14669      .   S
    Zr463  O1480     2.90044      .   S
    N1479  O1481     2.15292      .   S
    Zr428  O1481     2.88872      .   S
    N1482  O1483     2.14669      .   S
    Zr464  O1483     2.90044      .   S
    N1482  O1484     2.15292      .   S
    Zr429  O1484     2.88872      .   S
    N1485  O1486     2.14669      .   S
    Zr465  O1486     2.90044  1_554   S
    N1485  O1487     2.15292      .   S
    Zr430  O1487     2.88872      .   S
    N1488  O1489     2.14669      .   S
    Zr466  O1489     2.90044  1_554   S
    N1488  O1490     2.15292      .   S
    Zr431  O1490     2.88872      .   S
    N1491  O1492     2.14669      .   S
    Zr467  O1492     2.90044  1_554   S
    N1491  O1493     2.15292      .   S
    Zr432  O1493     2.88872      .   S
    N1494  O1495     2.14669      .   S
    Zr471  O1495     2.90044  1_556   S
    N1494  O1496     2.15292      .   S
    Zr436  O1496     2.88872      .   S
    N1497  O1498     2.14669      .   S
    Zr472  O1498     2.90044  1_556   S
    N1497  O1499     2.15292      .   S
    Zr437  O1499     2.88872      .   S
    N1500  O1501     2.14669      .   S
    Zr473  O1501     2.90044  1_556   S
    N1500  O1502     2.15292      .   S
    Zr438  O1502     2.88872      .   S
    N1503  O1504     2.14669      .   S
    Zr474  O1504     2.90044      .   S
    N1503  O1505     2.15292      .   S
    Zr439  O1505     2.88872      .   S
    N1506  O1507     2.14669      .   S
    Zr475  O1507     2.90044      .   S
    N1506  O1508     2.15292      .   S
    Zr440  O1508     2.88872      .   S
    N1509  O1510     2.14669      .   S
    Zr476  O1510     2.90044      .   S
    N1509  O1511     2.15292      .   S
    Zr441  O1511     2.88872      .   S
    N1512  O1513     2.14669  1_655   S
    Zr477  O1513     2.90044      .   S
    N1512  O1514     2.15292      .   S
    Zr442  O1514     2.88872      .   S
    N1515  O1516     2.14669  1_545   S
    Zr478  O1516     2.90044      .   S
    N1515  O1517     2.15292      .   S
    Zr443  O1517     2.88872      .   S
    N1518  O1519     2.14669      .   S
    Zr479  O1519     2.90044      .   S
    N1518  O1520     2.15292      .   S
    Zr444  O1520     2.88872      .   S
    N1521  O1522     2.14669  1_545   S
    Zr480  O1522     2.90044      .   S
    N1521  O1523     2.15292      .   S
    Zr445  O1523     2.88872      .   S
    N1524  O1525     2.14669  1_655   S
    Zr481  O1525     2.90044      .   S
    N1524  O1526     2.15292      .   S
    Zr446  O1526     2.88872      .   S
    N1527  O1528     2.14669      .   S
    Zr482  O1528     2.90044      .   S
    N1527  O1529     2.15292      .   S
    Zr447  O1529     2.88872      .   S
    N1530  O1531     2.14669      .   S
    Zr483  O1531     2.90044      .   S
    N1530  O1532     2.15292      .   S
    Zr448  O1532     2.88872      .   S
    N1533  O1534     2.14669      .   S
    Zr484  O1534     2.90044      .   S
    N1533  O1535     2.15292      .   S
    Zr449  O1535     2.88872      .   S
