# CIF file generated by openbabel 2.4.90, see http://openbabel.sf.net
data_I
_chemical_name_common ''
_cell_length_a 24.4635
_cell_length_b 24.4635
_cell_length_c 112.996
_cell_angle_alpha 90
_cell_angle_beta 90
_cell_angle_gamma 120
_space_group_name_H-M_alt 'P 1'
_space_group_name_Hall 'P 1'
loop_
    _symmetry_equiv_pos_as_xyz
    x,y,z
loop_
    _atom_site_label
    _atom_site_type_symbol
    _atom_site_fract_x
    _atom_site_fract_y
    _atom_site_fract_z
    _atom_site_occupancy
    N0      N    0.21832   0.33073   0.52018   1.000
    N1      N    0.50709   0.99749   0.43787   1.000
    N2      N    0.00251   0.50960   0.43787   1.000
    N3      N    0.49040   0.49291   0.43787   1.000
    N4      N    0.88759   0.21832   0.47982   1.000
    N5      N    0.33073   0.11241   0.47982   1.000
    N6      N    0.78168   0.66927   0.47982   1.000
    N7      N    0.33082   0.17376   0.72880   1.000
    N8      N    0.84294   0.66918   0.72880   1.000
    N9      N    0.82624   0.15706   0.72880   1.000
    N10     N    0.82624   0.66918   0.22880   1.000
    N11     N    0.33082   0.15706   0.22880   1.000
    N12     N    0.84294   0.17376   0.22880   1.000
    N13     N    0.33584   0.15957   0.60453   1.000
    N14     N    0.82373   0.66416   0.60453   1.000
    N15     N    0.84043   0.17627   0.60453   1.000
    N16     N    0.99749   0.50709   0.06213   1.000
    N17     N    0.50960   0.00251   0.06213   1.000
    N18     N    0.49291   0.49040   0.06213   1.000
    N19     N    0.49291   0.00251   0.56213   1.000
    N20     N    0.99749   0.49040   0.56213   1.000
    N21     N    0.50960   0.50709   0.56213   1.000
    N22     N    0.00251   0.49291   0.93787   1.000
    N23     N    0.49040   0.99749   0.93787   1.000
    N24     N    0.50709   0.50960   0.93787   1.000
    N25     N    0.17376   0.33082   0.77120   1.000
    N26     N    0.66918   0.84294   0.77120   1.000
    N27     N    0.15706   0.82624   0.77120   1.000
    N28     N    0.66416   0.84043   0.39547   1.000
    N29     N    0.17627   0.33584   0.39547   1.000
    N30     N    0.15957   0.82373   0.39547   1.000
    N31     N    0.15957   0.33584   0.89547   1.000
    N32     N    0.66416   0.82373   0.89547   1.000
    N33     N    0.17627   0.84043   0.89547   1.000
    N34     N    0.66918   0.82624   0.27120   1.000
    N35     N    0.15706   0.33082   0.27120   1.000
    N36     N    0.17376   0.84294   0.27120   1.000
    N37     N    0.84043   0.66416   0.10453   1.000
    N38     N    0.33584   0.17627   0.10453   1.000
    N39     N    0.82373   0.15957   0.10453   1.000
    N40     N    0.88499   0.22092   0.35352   1.000
    N41     N    0.55165   0.99740   0.18685   1.000
    N42     N    0.00260   0.55425   0.18685   1.000
    N43     N    0.44575   0.44835   0.18685   1.000
    N44     N    0.66407   0.88499   0.64648   1.000
    N45     N    0.22092   0.33593   0.64648   1.000
    N46     N    0.11501   0.77908   0.64648   1.000
    N47     N    0.11501   0.33593   0.14648   1.000
    N48     N    0.66407   0.77908   0.14648   1.000
    N49     N    0.22092   0.88499   0.14648   1.000
    N50     N    0.00260   0.44835   0.68685   1.000
    N51     N    0.44575   0.99740   0.68685   1.000
    N52     N    0.55165   0.55425   0.68685   1.000
    N53     N    0.66927   0.88759   0.52018   1.000
    N54     N    0.11241   0.78168   0.52018   1.000
    N55     N    0.33073   0.21832   0.97982   1.000
    N56     N    0.88759   0.66927   0.97982   1.000
    N57     N    0.78168   0.11241   0.97982   1.000
    N58     N    0.66927   0.78168   0.02018   1.000
    N59     N    0.11241   0.33073   0.02018   1.000
    N60     N    0.21832   0.88759   0.02018   1.000
    N61     N    0.88499   0.66407   0.85352   1.000
    N62     N    0.33593   0.22092   0.85352   1.000
    N63     N    0.77908   0.11501   0.85352   1.000
    N64     N    0.99740   0.55165   0.31315   1.000
    N65     N    0.55425   0.00260   0.31315   1.000
    N66     N    0.44835   0.44575   0.31315   1.000
    N67     N    0.44835   0.00260   0.81315   1.000
    N68     N    0.99740   0.44575   0.81315   1.000
    N69     N    0.55425   0.55165   0.81315   1.000
    N70     N    0.33593   0.11501   0.35352   1.000
    N71     N    0.77908   0.66407   0.35352   1.000
    Zr72    Zr   0.00000   0.00000   0.56237   1.000
    O73     O    0.08097   0.12300   0.54631   1.000
    O74     O    0.12534   0.05746   0.57829   1.000
    O75     O    0.93212   0.87466   0.57829   1.000
    O76     O    0.94254   0.06788   0.57829   1.000
    O77     O    0.87700   0.95797   0.54631   1.000
    O78     O    0.04203   0.91903   0.54631   1.000
    Zr79    Zr   0.33333   0.66667   0.47924   1.000
    O80     O    0.39714   0.79019   0.46364   1.000
    O81     O    0.20981   0.60695   0.46364   1.000
    O82     O    0.39305   0.60286   0.46364   1.000
    O83     O    0.28945   0.53996   0.49441   1.000
    O84     O    0.46004   0.74949   0.49441   1.000
    O85     O    0.25051   0.71055   0.49441   1.000
    Zr86    Zr   0.66667   0.33333   0.39571   1.000
    O87     O    0.60921   0.20799   0.41162   1.000
    O88     O    0.54367   0.25237   0.37965   1.000
    O89     O    0.70869   0.45633   0.37965   1.000
    O90     O    0.74763   0.29131   0.37965   1.000
    O91     O    0.79201   0.40122   0.41162   1.000
    O92     O    0.59878   0.39079   0.41162   1.000
    Zr93    Zr   0.66667   0.33333   0.27096   1.000
    O94     O    0.72413   0.45868   0.25505   1.000
    O95     O    0.54132   0.26545   0.25505   1.000
    O96     O    0.73455   0.27587   0.25505   1.000
    O97     O    0.78966   0.41430   0.28702   1.000
    O98     O    0.62464   0.21034   0.28702   1.000
    O99     O    0.58570   0.37536   0.28702   1.000
    Zr100   Zr   0.66667   0.33333   0.77096   1.000
    O101    O    0.54132   0.27587   0.75505   1.000
    O102    O    0.73455   0.45868   0.75505   1.000
    O103    O    0.72413   0.26545   0.75505   1.000
    O104    O    0.58570   0.21034   0.78702   1.000
    O105    O    0.78966   0.37536   0.78702   1.000
    O106    O    0.62464   0.41430   0.78702   1.000
    Zr107   Zr   0.33334   0.66666   0.35410   1.000
    O108    O    0.45686   0.73047   0.36970   1.000
    O109    O    0.27361   0.54314   0.36970   1.000
    O110    O    0.26953   0.72639   0.36970   1.000
    O111    O    0.20662   0.62278   0.33892   1.000
    O112    O    0.41616   0.79338   0.33892   1.000
    O113    O    0.37722   0.58384   0.33892   1.000
    Zr114   Zr   0.33333   0.66667   0.72904   1.000
    O115    O    0.21034   0.58570   0.71298   1.000
    O116    O    0.37536   0.78966   0.71298   1.000
    O117    O    0.41430   0.62464   0.71298   1.000
    O118    O    0.27587   0.54132   0.74495   1.000
    O119    O    0.45868   0.73455   0.74495   1.000
    O120    O    0.26545   0.72413   0.74495   1.000
    Zr121   Zr   0.00000   0.00000   0.43763   1.000
    O122    O    0.91903   0.87700   0.45369   1.000
    O123    O    0.12300   0.04203   0.45369   1.000
    O124    O    0.95797   0.08097   0.45369   1.000
    O125    O    0.87466   0.94254   0.42171   1.000
    O126    O    0.06788   0.12534   0.42171   1.000
    O127    O    0.05746   0.93212   0.42171   1.000
    Zr128   Zr   0.00000   0.00000   0.06237   1.000
    O129    O    0.94254   0.87466   0.07829   1.000
    O130    O    0.12534   0.06788   0.07829   1.000
    O131    O    0.93212   0.05746   0.07829   1.000
    O132    O    0.87700   0.91903   0.04631   1.000
    O133    O    0.04203   0.12300   0.04631   1.000
    O134    O    0.08097   0.95797   0.04631   1.000
    Zr135   Zr   0.66667   0.33333   0.89571   1.000
    O136    O    0.74763   0.45633   0.87965   1.000
    O137    O    0.54367   0.29131   0.87965   1.000
    O138    O    0.70869   0.25237   0.87965   1.000
    O139    O    0.79201   0.39079   0.91162   1.000
    O140    O    0.59878   0.20799   0.91162   1.000
    O141    O    0.60921   0.40122   0.91162   1.000
    Zr142   Zr   0.00000   0.00000   0.18852   1.000
    O143    O    0.04389   0.12671   0.17280   1.000
    O144    O    0.87329   0.91717   0.17280   1.000
    O145    O    0.08283   0.95611   0.17280   1.000
    O146    O    0.93619   0.87647   0.20358   1.000
    O147    O    0.12353   0.05972   0.20358   1.000
    O148    O    0.94028   0.06381   0.20358   1.000
    Zr149   Zr   0.33333   0.66667   0.22904   1.000
    O150    O    0.41430   0.78966   0.21298   1.000
    O151    O    0.21034   0.62464   0.21298   1.000
    O152    O    0.37536   0.58570   0.21298   1.000
    O153    O    0.45868   0.72413   0.24495   1.000
    O154    O    0.26545   0.54132   0.24495   1.000
    O155    O    0.27587   0.73455   0.24495   1.000
    Zr156   Zr   0.33333   0.66667   0.10429   1.000
    O157    O    0.25237   0.54367   0.12035   1.000
    O158    O    0.45633   0.70869   0.12035   1.000
    O159    O    0.29131   0.74763   0.12035   1.000
    O160    O    0.20799   0.60921   0.08838   1.000
    O161    O    0.40122   0.79201   0.08838   1.000
    O162    O    0.39079   0.59878   0.08838   1.000
    Zr163   Zr   0.66667   0.33333   0.02076   1.000
    O164    O    0.79019   0.39714   0.03636   1.000
    O165    O    0.60695   0.20981   0.03636   1.000
    O166    O    0.60286   0.39305   0.03636   1.000
    O167    O    0.53996   0.28945   0.00559   1.000
    O168    O    0.74949   0.46004   0.00559   1.000
    O169    O    0.71055   0.25051   0.00559   1.000
    Zr170   Zr   0.33333   0.66667   0.60429   1.000
    O171    O    0.45633   0.74763   0.62035   1.000
    O172    O    0.29131   0.54367   0.62035   1.000
    O173    O    0.25237   0.70869   0.62035   1.000
    O174    O    0.39079   0.79201   0.58838   1.000
    O175    O    0.20799   0.59878   0.58838   1.000
    O176    O    0.40122   0.60921   0.58838   1.000
    Zr177   Zr   0.66666   0.33334   0.14590   1.000
    O178    O    0.79338   0.41616   0.16108   1.000
    O179    O    0.58384   0.37722   0.16108   1.000
    O180    O    0.73047   0.45686   0.13030   1.000
    O181    O    0.54314   0.27361   0.13030   1.000
    O182    O    0.72639   0.26953   0.13030   1.000
    O183    O    0.62278   0.20662   0.16108   1.000
    Zr184   Zr   0.00000   0.00000   0.31148   1.000
    O185    O    0.87647   0.93619   0.29642   1.000
    O186    O    0.05972   0.12353   0.29642   1.000
    O187    O    0.06381   0.94028   0.29642   1.000
    O188    O    0.12671   0.04389   0.32720   1.000
    O189    O    0.91717   0.87329   0.32720   1.000
    O190    O    0.95611   0.08283   0.32720   1.000
    Zr191   Zr   0.00000   0.00000   0.68852   1.000
    O192    O    0.87329   0.95611   0.67280   1.000
    O193    O    0.08283   0.12671   0.67280   1.000
    O194    O    0.04389   0.91717   0.67280   1.000
    O195    O    0.12353   0.06381   0.70358   1.000
    O196    O    0.94028   0.87647   0.70358   1.000
    O197    O    0.93619   0.05972   0.70358   1.000
    Zr198   Zr   0.66666   0.33334   0.64590   1.000
    O199    O    0.79338   0.37722   0.66108   1.000
    O200    O    0.58384   0.20662   0.66108   1.000
    O201    O    0.62278   0.41616   0.66108   1.000
    O202    O    0.54314   0.26953   0.63030   1.000
    O203    O    0.72639   0.45686   0.63030   1.000
    O204    O    0.73047   0.27361   0.63030   1.000
    Zr205   Zr   0.00000   0.00000   0.81148   1.000
    O206    O    0.06381   0.12353   0.79642   1.000
    O207    O    0.87647   0.94028   0.79642   1.000
    O208    O    0.05972   0.93619   0.79642   1.000
    O209    O    0.95611   0.87329   0.82720   1.000
    O210    O    0.12671   0.08283   0.82720   1.000
    O211    O    0.91717   0.04389   0.82720   1.000
    Zr212   Zr   0.33334   0.66666   0.85410   1.000
    O213    O    0.26953   0.54314   0.86970   1.000
    O214    O    0.45686   0.72639   0.86970   1.000
    O215    O    0.27361   0.73047   0.86970   1.000
    O216    O    0.37722   0.79338   0.83892   1.000
    O217    O    0.20662   0.58384   0.83892   1.000
    O218    O    0.41616   0.62278   0.83892   1.000
    Zr219   Zr   0.66667   0.33333   0.52076   1.000
    O220    O    0.60286   0.20981   0.53636   1.000
    O221    O    0.79019   0.39305   0.53636   1.000
    O222    O    0.60695   0.39714   0.53636   1.000
    O223    O    0.71055   0.46004   0.50559   1.000
    O224    O    0.53996   0.25051   0.50559   1.000
    O225    O    0.74949   0.28945   0.50559   1.000
    Zr226   Zr   0.33333   0.66667   0.97924   1.000
    O227    O    0.20981   0.60286   0.96364   1.000
    O228    O    0.39305   0.79019   0.96364   1.000
    O229    O    0.39714   0.60695   0.96364   1.000
    O230    O    0.46004   0.71055   0.99441   1.000
    O231    O    0.25051   0.53996   0.99441   1.000
    O232    O    0.28945   0.74949   0.99441   1.000
    Zr233   Zr   0.00000   0.00000   0.93763   1.000
    O234    O    0.12300   0.08097   0.95369   1.000
    O235    O    0.95797   0.87700   0.95369   1.000
    O236    O    0.91903   0.04203   0.95369   1.000
    O237    O    0.05746   0.12534   0.92171   1.000
    O238    O    0.87466   0.93212   0.92171   1.000
    O239    O    0.06788   0.94254   0.92171   1.000
loop_
    _geom_bond_atom_site_label_1
    _geom_bond_atom_site_label_2
    _geom_bond_distance
    _geom_bond_site_symmetry_2
    _ccdc_geom_bond_type
    Zr72   O73       3.21095      .   S
    N0     O73       5.36259      .   S
    Zr72   O74       3.20959      .   S
    N13    O74       5.35652      .   S
    Zr72   O75       3.20959  1_445   S
    N14    O75       5.35652      .   S
    Zr72   O76       3.20959  1_455   S
    N15    O76       5.35652      .   S
    Zr72   O77       3.21095  1_445   S
    N53    O77       5.36259      .   S
    Zr72   O78       3.21095  1_545   S
    N54    O78       5.36259      .   S
    Zr79   O80       3.15566      .   S
    N1     O80       5.27152      .   S
    Zr79   O81       3.15566      .   S
    N2     O81       5.27152      .   S
    Zr79   O82       3.15573      .   S
    N3     O82       5.27160      .   S
    Zr79   O83       3.22077      .   S
    N0     O83       5.36671      .   S
    Zr79   O84       3.22076      .   S
    N53    O84       5.36669      .   S
    Zr79   O85       3.22069      .   S
    N54    O85       5.36662      .   S
    Zr86   O87       3.20959      .   S
    N1     O87       5.35652  1_565   S
    Zr86   O88       3.21095      .   S
    N70    O88       5.36259      .   S
    Zr86   O89       3.21095      .   S
    N71    O89       5.36259      .   S
    Zr86   O90       3.21095      .   S
    N40    O90       5.36259      .   S
    Zr86   O91       3.20959      .   S
    N2     O91       5.35652  1_455   S
    Zr86   O92       3.20959      .   S
    N3     O92       5.35652      .   S
    Zr93   O94       3.20959      .   S
    N10    O94       5.35652      .   S
    Zr93   O95       3.20959      .   S
    N11    O95       5.35652      .   S
    Zr93   O96       3.20959      .   S
    N12    O96       5.35652      .   S
    Zr93   O97       3.21095      .   S
    N64    O97       5.36259      .   S
    Zr93   O98       3.21095      .   S
    N65    O98       5.36259      .   S
    Zr93   O99       3.21095      .   S
    N66    O99       5.36259      .   S
    Zr100  O101      3.20959      .   S
    N7     O101      5.35652      .   S
    Zr100  O102      3.20959      .   S
    N8     O102      5.35652      .   S
    Zr100  O103      3.20959      .   S
    N9     O103      5.35652      .   S
    Zr100  O104      3.21095      .   S
    N67    O104      5.36259      .   S
    Zr100  O105      3.21095      .   S
    N68    O105      5.36259      .   S
    Zr100  O106      3.21095      .   S
    N69    O106      5.36259      .   S
    Zr107  O108      3.15566      .   S
    N28    O108      5.27152      .   S
    Zr107  O109      3.15566      .   S
    N29    O109      5.27152      .   S
    Zr107  O110      3.15573      .   S
    N30    O110      5.27160      .   S
    Zr107  O111      3.22077      .   S
    N64    O111      5.36671  1_655   S
    Zr107  O112      3.22076      .   S
    N65    O112      5.36669  1_545   S
    Zr107  O113      3.22069      .   S
    N66    O113      5.36662      .   S
    Zr114  O115      3.21095      .   S
    N50    O115      5.36259      .   S
    Zr114  O116      3.21095      .   S
    N51    O116      5.36259      .   S
    Zr114  O117      3.21095      .   S
    N52    O117      5.36259      .   S
    Zr114  O118      3.20959      .   S
    N25    O118      5.35652      .   S
    Zr114  O119      3.20959      .   S
    N26    O119      5.35652      .   S
    Zr114  O120      3.20959      .   S
    N27    O120      5.35652      .   S
    Zr121  O122      3.21095  1_445   S
    N6     O122      5.36259      .   S
    Zr121  O123      3.21095      .   S
    N5     O123      5.36259      .   S
    Zr121  O124      3.21095  1_455   S
    N4     O124      5.36259      .   S
    Zr121  O125      3.20959  1_445   S
    N28    O125      5.35652      .   S
    Zr121  O126      3.20959      .   S
    N29    O126      5.35652      .   S
    Zr121  O127      3.20959  1_545   S
    N30    O127      5.35652      .   S
    Zr128  O129      3.20959  1_445   S
    N37    O129      5.35652      .   S
    Zr128  O130      3.20959      .   S
    N38    O130      5.35652      .   S
    Zr128  O131      3.20959  1_455   S
    N39    O131      5.35652      .   S
    Zr128  O132      3.21095  1_445   S
    N58    O132      5.36259      .   S
    Zr128  O133      3.21095      .   S
    N59    O133      5.36259      .   S
    Zr128  O134      3.21095  1_545   S
    N60    O134      5.36259      .   S
    Zr135  O136      3.21095      .   S
    N61    O136      5.36259      .   S
    Zr135  O137      3.21095      .   S
    N62    O137      5.36259      .   S
    Zr135  O138      3.21095      .   S
    N63    O138      5.36259      .   S
    Zr135  O139      3.20959      .   S
    N22    O139      5.35652  1_455   S
    Zr135  O140      3.20959      .   S
    N23    O140      5.35652  1_565   S
    Zr135  O141      3.20959      .   S
    N24    O141      5.35652      .   S
    Zr142  O143      3.25400      .   S
    N47    O143      5.40040      .   S
    Zr142  O144      3.25400  1_445   S
    N48    O144      5.40040      .   S
    Zr142  O145      3.25400  1_545   S
    N49    O145      5.40040      .   S
    Zr142  O146      3.12164  1_445   S
    N10    O146      5.23773      .   S
    Zr142  O147      3.12164      .   S
    N11    O147      5.23773      .   S
    Zr142  O148      3.12164  1_455   S
    N12    O148      5.23773      .   S
    Zr149  O150      3.21095      .   S
    N41    O150      5.36259      .   S
    Zr149  O151      3.21095      .   S
    N42    O151      5.36259      .   S
    Zr149  O152      3.21095      .   S
    N43    O152      5.36259      .   S
    Zr149  O153      3.20959      .   S
    N34    O153      5.35652      .   S
    Zr149  O154      3.20959      .   S
    N35    O154      5.35652      .   S
    Zr149  O155      3.20959      .   S
    N36    O155      5.35652      .   S
    Zr156  O157      3.21095      .   S
    N47    O157      5.36259      .   S
    Zr156  O158      3.21095      .   S
    N48    O158      5.36259      .   S
    Zr156  O159      3.21095      .   S
    N49    O159      5.36259      .   S
    Zr156  O160      3.20959      .   S
    N16    O160      5.35652  1_655   S
    Zr156  O161      3.20959      .   S
    N17    O161      5.35652  1_545   S
    Zr156  O162      3.20959      .   S
    N18    O162      5.35652      .   S
    Zr163  O164      3.15566      .   S
    N16    O164      5.27152      .   S
    Zr163  O165      3.15566      .   S
    N17    O165      5.27152      .   S
    Zr163  O166      3.15573      .   S
    N18    O166      5.27160      .   S
    Zr163  O167      3.22077      .   S
    N55    O167      5.36671  1_556   S
    Zr163  O168      3.22076      .   S
    N56    O168      5.36669  1_556   S
    Zr163  O169      3.22069      .   S
    N57    O169      5.36662  1_556   S
    Zr170  O171      3.21095      .   S
    N44    O171      5.36259      .   S
    Zr170  O172      3.21095      .   S
    N45    O172      5.36259      .   S
    Zr170  O173      3.21095      .   S
    N46    O173      5.36259      .   S
    Zr170  O174      3.20959      .   S
    N19    O174      5.35652  1_545   S
    Zr170  O175      3.20959      .   S
    N20    O175      5.35652  1_655   S
    Zr170  O176      3.20959      .   S
    N21    O176      5.35652      .   S
    Zr177  O178      3.22076      .   S
    N42    O178      5.36669  1_455   S
    Zr177  O179      3.22069      .   S
    N43    O179      5.36662      .   S
    Zr177  O180      3.15566      .   S
    N37    O180      5.27152      .   S
    Zr177  O181      3.15566      .   S
    N38    O181      5.27152      .   S
    Zr177  O182      3.15573      .   S
    N39    O182      5.27160      .   S
    Zr177  O183      3.22077      .   S
    N41    O183      5.36671  1_565   S
    Zr184  O185      3.12164  1_445   S
    N34    O185      5.23773      .   S
    Zr184  O186      3.12164      .   S
    N35    O186      5.23773      .   S
    Zr184  O187      3.12164  1_545   S
    N36    O187      5.23773      .   S
    Zr184  O188      3.25400      .   S
    N70    O188      5.40040      .   S
    Zr184  O189      3.25400  1_445   S
    N71    O189      5.40040      .   S
    Zr184  O190      3.25400  1_455   S
    N40    O190      5.40040      .   S
    Zr191  O192      3.25400  1_445   S
    N44    O192      5.40040      .   S
    Zr191  O193      3.25400      .   S
    N45    O193      5.40040      .   S
    Zr191  O194      3.25400  1_545   S
    N46    O194      5.40040      .   S
    Zr191  O195      3.12164      .   S
    N7     O195      5.23773      .   S
    Zr191  O196      3.12164  1_445   S
    N8     O196      5.23773      .   S
    Zr191  O197      3.12164  1_455   S
    N9     O197      5.23773      .   S
    Zr198  O199      3.22077      .   S
    N50    O199      5.36671  1_455   S
    Zr198  O200      3.22076      .   S
    N51    O200      5.36669  1_565   S
    Zr198  O201      3.22069      .   S
    N52    O201      5.36662      .   S
    Zr198  O202      3.15566      .   S
    N13    O202      5.27152      .   S
    Zr198  O203      3.15566      .   S
    N14    O203      5.27152      .   S
    Zr198  O204      3.15573      .   S
    N15    O204      5.27160      .   S
    Zr205  O206      3.12164      .   S
    N25    O206      5.23773      .   S
    Zr205  O207      3.12164  1_445   S
    N26    O207      5.23773      .   S
    Zr205  O208      3.12164  1_545   S
    N27    O208      5.23773      .   S
    Zr205  O209      3.25400  1_445   S
    N61    O209      5.40040      .   S
    Zr205  O210      3.25400      .   S
    N62    O210      5.40040      .   S
    Zr205  O211      3.25400  1_455   S
    N63    O211      5.40040      .   S
    Zr212  O213      3.15566      .   S
    N31    O213      5.27152      .   S
    Zr212  O214      3.15566      .   S
    N32    O214      5.27152      .   S
    Zr212  O215      3.15573      .   S
    N33    O215      5.27160      .   S
    Zr212  O216      3.22077      .   S
    N67    O216      5.36671  1_545   S
    Zr212  O217      3.22076      .   S
    N68    O217      5.36669  1_655   S
    Zr212  O218      3.22069      .   S
    N69    O218      5.36662      .   S
    Zr219  O220      3.15566      .   S
    N19    O220      5.27152      .   S
    Zr219  O221      3.15566      .   S
    N20    O221      5.27152      .   S
    Zr219  O222      3.15573      .   S
    N21    O222      5.27160      .   S
    Zr219  O223      3.22077      .   S
    N6     O223      5.36671      .   S
    Zr219  O224      3.22076      .   S
    N5     O224      5.36669      .   S
    Zr219  O225      3.22069      .   S
    N4     O225      5.36662      .   S
    Zr226  O227      3.15566      .   S
    N22    O227      5.27152      .   S
    Zr226  O228      3.15566      .   S
    N23    O228      5.27152      .   S
    Zr226  O229      3.15573      .   S
    N24    O229      5.27160      .   S
    Zr226  O230      3.22077      .   S
    N58    O230      5.36671  1_554   S
    Zr226  O231      3.22076      .   S
    N59    O231      5.36669  1_554   S
    Zr226  O232      3.22069      .   S
    N60    O232      5.36662  1_554   S
    Zr233  O234      3.21095      .   S
    N55    O234      5.36259      .   S
    Zr233  O235      3.21095  1_445   S
    N56    O235      5.36259      .   S
    Zr233  O236      3.21095  1_455   S
    N57    O236      5.36259      .   S
    Zr233  O237      3.20959      .   S
    N31    O237      5.35652      .   S
    Zr233  O238      3.20959  1_445   S
    N32    O238      5.35652      .   S
    Zr233  O239      3.20959  1_545   S
    N33    O239      5.35652      .   S
