# CIF file generated by openbabel 2.4.90, see http://openbabel.sf.net
data_I
_chemical_name_common '?'
_cell_length_a 24.4635
_cell_length_b 24.4635
_cell_length_c 112.996
_cell_angle_alpha 90
_cell_angle_beta 90
_cell_angle_gamma 120
_space_group_name_H-M_alt 'P 1'
_space_group_name_Hall 'P 1'
loop_
    _symmetry_equiv_pos_as_xyz
    x,y,z
loop_
    _atom_site_label
    _atom_site_type_symbol
    _atom_site_fract_x
    _atom_site_fract_y
    _atom_site_fract_z
    _atom_site_occupancy
    Zn0     Zn   0.00000   0.00000   0.57964   1.000
    Zn1     Zn   0.97026   0.05473   0.55658   1.000
    Zn2     Zn   0.24871   0.61158   0.48622   1.000
    Zn3     Zn   0.33330   0.66670   0.46351   1.000
    O4      O    0.00000   0.00000   0.56245   1.000
    O5      O    0.33330   0.66670   0.48022   1.000
    O6      O    0.11610   0.10290   0.54673   1.000
    O7      O    0.03630   0.12460   0.54896   1.000
    O8      O    0.37960   0.35030   0.52540   1.000
    O9      O    0.34250   0.55800   0.49357   1.000
    O10     O    0.23500   0.53890   0.49299   1.000
    O11     O    0.38880   0.74920   0.45698   1.000
    O12     O    0.38320   0.80530   0.47220   1.000
    O13     O    0.49130   0.88290   0.40631   0.547
    O14     O    0.51790   0.09670   0.47150   0.453
    O15     O    0.60870   0.19080   0.40243   1.000
    O16     O    0.63250   0.24990   0.41916   1.000
    N17     N    0.27500   0.28630   0.52236   1.000
    H18     H    0.28070   0.25930   0.51810   1.000
    N19     N    0.32140   0.39200   0.52280   1.000
    H20     H    0.34730   0.42660   0.52670   1.000
    C21     C    0.08980   0.13260   0.54405   1.000
    C22     C    0.12130   0.18990   0.53659   1.000
    C23     C    0.18160   0.20890   0.53280   1.000
    H24     H    0.20220   0.18570   0.53460   1.000
    C25     C    0.21140   0.26500   0.52598   1.000
    C26     C    0.18280   0.30240   0.52376   1.000
    C27     C    0.12580   0.28130   0.52800   1.000
    H28     H    0.10720   0.30660   0.52660   1.000
    C29     C    0.08860   0.22460   0.53460   1.000
    H30     H    0.04720   0.21120   0.53740   1.000
    C31     C    0.33190   0.34720   0.52478   1.000
    C32     C    0.20830   0.35730   0.51654   1.000
    C33     C    0.27590   0.39970   0.51548   1.000
    C34     C    0.30120   0.45290   0.50836   1.000
    H35     H    0.34540   0.48060   0.50770   1.000
    C36     C    0.25630   0.46350   0.50206   1.000
    C37     C    0.19120   0.41850   0.50200   1.000
    H38     H    0.16340   0.42700   0.49750   1.000
    C39     C    0.16820   0.36660   0.50780   1.000
    H40     H    0.12580   0.33420   0.50650   1.000
    C41     C    0.28930   0.52800   0.49590   1.000
    C42     C    0.39810   0.79930   0.46170   1.000
    C43     C    0.43150   0.86060   0.45471   1.000
    C44     C    0.45780   0.85740   0.44407   1.000
    H45     H    0.45420   0.81920   0.44120   1.000
    C46     C    0.49090   0.91570   0.43760   1.000
    C47     C    0.49300   0.97030   0.44147   1.000
    C48     C    0.46550   0.96860   0.45156   1.000
    C49     C    0.43180   0.91180   0.45855   1.000
    H50     H    0.41070   0.91130   0.46560   1.000
    C51     C    0.52360   0.02670   0.43478   1.000
    C52     C    0.52530   0.02510   0.42209   1.000
    C53     C    0.55140   0.07880   0.41588   1.000
    H54     H    0.54970   0.07670   0.40750   1.000
    C55     C    0.58180   0.13910   0.42148   1.000
    C56     C    0.58580   0.13980   0.43362   1.000
    H57     H    0.61070   0.17900   0.43750   1.000
    C58     C    0.55590   0.08710   0.44011   1.000
    C59     C    0.61100   0.19650   0.41291   1.000
    N60     N    0.51520   0.90930   0.42631   0.547
    H61     H    0.54530   0.89990   0.42700   0.547
    N62     N    0.49100   0.96920   0.41435   0.547
    H63     H    0.46250   0.96880   0.40950   0.547
    C64     C    0.50020   0.91530   0.41400   0.547
    N65     N    0.46180   0.01730   0.45712   0.453
    H66     H    0.42370   0.01210   0.45780   0.453
    N67     N    0.55830   0.09540   0.45210   0.453
    H68     H    0.59760   0.11830   0.45450   0.453
    C69     C    0.51420   0.07730   0.46210   0.453
    Zn70    Zn   0.00000   0.00000   0.92036   1.000
    Zn71    Zn   0.00000   0.00000   0.42036   1.000
    Zn72    Zn   0.00000   0.00000   0.07964   1.000
    Zn73    Zn   0.66667   0.33333   0.91297   1.000
    Zn74    Zn   0.66667   0.33333   0.25369   1.000
    Zn75    Zn   0.66667   0.33333   0.75369   1.000
    Zn76    Zn   0.66667   0.33333   0.41297   1.000
    Zn77    Zn   0.33333   0.66667   0.24631   1.000
    Zn78    Zn   0.33333   0.66667   0.58703   1.000
    Zn79    Zn   0.33333   0.66667   0.08703   1.000
    Zn80    Zn   0.33333   0.66667   0.74631   1.000
    Zn81    Zn   0.94527   0.91553   0.55658   1.000
    Zn82    Zn   0.08447   0.02974   0.55658   1.000
    Zn83    Zn   0.05473   0.97026   0.94342   1.000
    Zn84    Zn   0.91553   0.94527   0.94342   1.000
    Zn85    Zn   0.02974   0.08447   0.94342   1.000
    Zn86    Zn   0.02974   0.94527   0.44342   1.000
    Zn87    Zn   0.05473   0.08447   0.44342   1.000
    Zn88    Zn   0.91553   0.97026   0.44342   1.000
    Zn89    Zn   0.94527   0.02974   0.05658   1.000
    Zn90    Zn   0.08447   0.05473   0.05658   1.000
    Zn91    Zn   0.97026   0.91553   0.05658   1.000
    Zn92    Zn   0.63693   0.38806   0.88991   1.000
    Zn93    Zn   0.61194   0.24886   0.88991   1.000
    Zn94    Zn   0.75114   0.36307   0.88991   1.000
    Zn95    Zn   0.72140   0.30359   0.27675   1.000
    Zn96    Zn   0.58220   0.27860   0.27675   1.000
    Zn97    Zn   0.69641   0.41780   0.27675   1.000
    Zn98    Zn   0.69641   0.27860   0.77675   1.000
    Zn99    Zn   0.72140   0.41780   0.77675   1.000
    Zn100   Zn   0.58220   0.30359   0.77675   1.000
    Zn101   Zn   0.61194   0.36307   0.38991   1.000
    Zn102   Zn   0.75114   0.38806   0.38991   1.000
    Zn103   Zn   0.63693   0.24886   0.38991   1.000
    Zn104   Zn   0.30359   0.72140   0.22325   1.000
    Zn105   Zn   0.27860   0.58220   0.22325   1.000
    Zn106   Zn   0.41780   0.69641   0.22325   1.000
    Zn107   Zn   0.38806   0.63693   0.61009   1.000
    Zn108   Zn   0.24886   0.61194   0.61009   1.000
    Zn109   Zn   0.36307   0.75114   0.61009   1.000
    Zn110   Zn   0.36307   0.61194   0.11009   1.000
    Zn111   Zn   0.38806   0.75114   0.11009   1.000
    Zn112   Zn   0.24886   0.63693   0.11009   1.000
    Zn113   Zn   0.27860   0.69641   0.72325   1.000
    Zn114   Zn   0.41780   0.72140   0.72325   1.000
    Zn115   Zn   0.30359   0.58220   0.72325   1.000
    Zn116   Zn   0.38842   0.63713   0.48622   1.000
    Zn117   Zn   0.36287   0.75129   0.48622   1.000
    Zn118   Zn   0.61158   0.24871   0.01378   1.000
    Zn119   Zn   0.63713   0.38842   0.01378   1.000
    Zn120   Zn   0.75129   0.36287   0.01378   1.000
    Zn121   Zn   0.75129   0.38842   0.51378   1.000
    Zn122   Zn   0.61158   0.36287   0.51378   1.000
    Zn123   Zn   0.63713   0.24871   0.51378   1.000
    Zn124   Zn   0.38842   0.75129   0.98622   1.000
    Zn125   Zn   0.36287   0.61158   0.98622   1.000
    Zn126   Zn   0.24871   0.63713   0.98622   1.000
    Zn127   Zn   0.91538   0.94491   0.81955   1.000
    Zn128   Zn   0.05509   0.97046   0.81955   1.000
    Zn129   Zn   0.02954   0.08462   0.81955   1.000
    Zn130   Zn   0.27825   0.58204   0.34711   1.000
    Zn131   Zn   0.30380   0.72175   0.34711   1.000
    Zn132   Zn   0.41796   0.69620   0.34711   1.000
    Zn133   Zn   0.41796   0.72175   0.84711   1.000
    Zn134   Zn   0.27825   0.69620   0.84711   1.000
    Zn135   Zn   0.30380   0.58204   0.84711   1.000
    Zn136   Zn   0.05509   0.08462   0.31955   1.000
    Zn137   Zn   0.02954   0.94491   0.31955   1.000
    Zn138   Zn   0.91538   0.97046   0.31955   1.000
    Zn139   Zn   0.58204   0.27825   0.15289   1.000
    Zn140   Zn   0.72175   0.30380   0.15289   1.000
    Zn141   Zn   0.69620   0.41796   0.15289   1.000
    Zn142   Zn   0.94491   0.91538   0.68045   1.000
    Zn143   Zn   0.97046   0.05509   0.68045   1.000
    Zn144   Zn   0.08462   0.02954   0.68045   1.000
    Zn145   Zn   0.08462   0.05509   0.18045   1.000
    Zn146   Zn   0.94491   0.02954   0.18045   1.000
    Zn147   Zn   0.97046   0.91538   0.18045   1.000
    Zn148   Zn   0.72175   0.41796   0.65289   1.000
    Zn149   Zn   0.69620   0.27825   0.65289   1.000
    Zn150   Zn   0.58204   0.30380   0.65289   1.000
    Zn151   Zn   0.66670   0.33330   0.03649   1.000
    Zn152   Zn   0.66670   0.33330   0.53649   1.000
    Zn153   Zn   0.33330   0.66670   0.96351   1.000
    Zn154   Zn   0.99997   0.00003   0.79684   1.000
    Zn155   Zn   0.99997   0.99993   0.79684   1.000
    Zn156   Zn   0.00007   0.00003   0.79684   1.000
    Zn157   Zn   0.33337   0.66663   0.36982   1.000
    Zn158   Zn   0.33337   0.66663   0.86982   1.000
    Zn159   Zn   0.99997   0.00003   0.29684   1.000
    Zn160   Zn   0.00007   0.00003   0.29684   1.000
    Zn161   Zn   0.99997   0.99993   0.29684   1.000
    Zn162   Zn   0.66663   0.33337   0.13018   1.000
    Zn163   Zn   0.00003   0.99997   0.70316   1.000
    Zn164   Zn   0.99993   0.99997   0.70316   1.000
    Zn165   Zn   0.00003   0.00007   0.70316   1.000
    Zn166   Zn   0.00003   0.99997   0.20316   1.000
    Zn167   Zn   0.00003   0.00007   0.20316   1.000
    Zn168   Zn   0.99993   0.99997   0.20316   1.000
    Zn169   Zn   0.66663   0.33337   0.63018   1.000
    O170    O    0.00000   0.00000   0.93755   1.000
    O171    O    0.00000   0.00000   0.43755   1.000
    O172    O    0.00000   0.00000   0.06245   1.000
    O173    O    0.66667   0.33333   0.89578   1.000
    O174    O    0.66667   0.33333   0.27088   1.000
    O175    O    0.66667   0.33333   0.77088   1.000
    O176    O    0.66667   0.33333   0.39578   1.000
    O177    O    0.33333   0.66667   0.22912   1.000
    O178    O    0.33333   0.66667   0.60422   1.000
    O179    O    0.33333   0.66667   0.10422   1.000
    O180    O    0.33333   0.66667   0.72912   1.000
    O181    O    0.66670   0.33330   0.01978   1.000
    O182    O    0.66670   0.33330   0.51978   1.000
    O183    O    0.33330   0.66670   0.98022   1.000
    O184    O    0.99997   0.00003   0.81355   1.000
    O185    O    0.99997   0.99993   0.81355   1.000
    O186    O    0.00007   0.00003   0.81355   1.000
    O187    O    0.33337   0.66663   0.35311   1.000
    O188    O    0.33337   0.66663   0.85311   1.000
    O189    O    0.99997   0.00003   0.31355   1.000
    O190    O    0.00007   0.00003   0.31355   1.000
    O191    O    0.99997   0.99993   0.31355   1.000
    O192    O    0.66663   0.33337   0.14689   1.000
    O193    O    0.00003   0.99997   0.68645   1.000
    O194    O    0.99993   0.99997   0.68645   1.000
    O195    O    0.00003   0.00007   0.68645   1.000
    O196    O    0.00003   0.99997   0.18645   1.000
    O197    O    0.00003   0.00007   0.18645   1.000
    O198    O    0.99993   0.99997   0.18645   1.000
    O199    O    0.66663   0.33337   0.64689   1.000
    O200    O    0.89710   0.01320   0.54673   1.000
    O201    O    0.98680   0.88390   0.54673   1.000
    O202    O    0.10290   0.11610   0.95327   1.000
    O203    O    0.01320   0.89710   0.95327   1.000
    O204    O    0.88390   0.98680   0.95327   1.000
    O205    O    0.88390   0.89710   0.45327   1.000
    O206    O    0.10290   0.98680   0.45327   1.000
    O207    O    0.01320   0.11610   0.45327   1.000
    O208    O    0.89710   0.88390   0.04673   1.000
    O209    O    0.98680   0.10290   0.04673   1.000
    O210    O    0.11610   0.01320   0.04673   1.000
    O211    O    0.78277   0.43623   0.88006   1.000
    O212    O    0.56377   0.34653   0.88006   1.000
    O213    O    0.65347   0.21723   0.88006   1.000
    O214    O    0.76957   0.44943   0.28660   1.000
    O215    O    0.67987   0.23043   0.28660   1.000
    O216    O    0.55057   0.32013   0.28660   1.000
    O217    O    0.55057   0.23043   0.78660   1.000
    O218    O    0.76957   0.32013   0.78660   1.000
    O219    O    0.67987   0.44943   0.78660   1.000
    O220    O    0.56377   0.21723   0.38006   1.000
    O221    O    0.65347   0.43623   0.38006   1.000
    O222    O    0.78277   0.34653   0.38006   1.000
    O223    O    0.44943   0.76957   0.21340   1.000
    O224    O    0.23043   0.67987   0.21340   1.000
    O225    O    0.32013   0.55057   0.21340   1.000
    O226    O    0.43623   0.78277   0.61994   1.000
    O227    O    0.34653   0.56377   0.61994   1.000
    O228    O    0.21723   0.65347   0.61994   1.000
    O229    O    0.21723   0.56377   0.11994   1.000
    O230    O    0.43623   0.65347   0.11994   1.000
    O231    O    0.34653   0.78277   0.11994   1.000
    O232    O    0.23043   0.55057   0.71340   1.000
    O233    O    0.32013   0.76957   0.71340   1.000
    O234    O    0.44943   0.67987   0.71340   1.000
    O235    O    0.87540   0.91170   0.54896   1.000
    O236    O    0.08830   0.96370   0.54896   1.000
    O237    O    0.12460   0.03630   0.95104   1.000
    O238    O    0.91170   0.87540   0.95104   1.000
    O239    O    0.96370   0.08830   0.95104   1.000
    O240    O    0.96370   0.87540   0.45104   1.000
    O241    O    0.12460   0.08830   0.45104   1.000
    O242    O    0.91170   0.03630   0.45104   1.000
    O243    O    0.87540   0.96370   0.04896   1.000
    O244    O    0.08830   0.12460   0.04896   1.000
    O245    O    0.03630   0.91170   0.04896   1.000
    O246    O    0.70297   0.45793   0.88229   1.000
    O247    O    0.54207   0.24503   0.88229   1.000
    O248    O    0.75497   0.29703   0.88229   1.000
    O249    O    0.79127   0.36963   0.28437   1.000
    O250    O    0.57837   0.20873   0.28437   1.000
    O251    O    0.63037   0.42163   0.28437   1.000
    O252    O    0.63037   0.20873   0.78437   1.000
    O253    O    0.79127   0.42163   0.78437   1.000
    O254    O    0.57837   0.36963   0.78437   1.000
    O255    O    0.54207   0.29703   0.38229   1.000
    O256    O    0.75497   0.45793   0.38229   1.000
    O257    O    0.70297   0.24503   0.38229   1.000
    O258    O    0.36963   0.79127   0.21563   1.000
    O259    O    0.20873   0.57837   0.21563   1.000
    O260    O    0.42163   0.63037   0.21563   1.000
    O261    O    0.45793   0.70297   0.61771   1.000
    O262    O    0.24503   0.54207   0.61771   1.000
    O263    O    0.29703   0.75497   0.61771   1.000
    O264    O    0.29703   0.54207   0.11771   1.000
    O265    O    0.45793   0.75497   0.11771   1.000
    O266    O    0.24503   0.70297   0.11771   1.000
    O267    O    0.20873   0.63037   0.71563   1.000
    O268    O    0.42163   0.79127   0.71563   1.000
    O269    O    0.36963   0.57837   0.71563   1.000
    O270    O    0.64970   0.02930   0.52540   1.000
    O271    O    0.97070   0.62040   0.52540   1.000
    O272    O    0.35030   0.37960   0.97460   1.000
    O273    O    0.02930   0.64970   0.97460   1.000
    O274    O    0.62040   0.97070   0.97460   1.000
    O275    O    0.62040   0.64970   0.47460   1.000
    O276    O    0.35030   0.97070   0.47460   1.000
    O277    O    0.02930   0.37960   0.47460   1.000
    O278    O    0.64970   0.62040   0.02540   1.000
    O279    O    0.97070   0.35030   0.02540   1.000
    O280    O    0.37960   0.02930   0.02540   1.000
    O281    O    0.04627   0.68363   0.85873   1.000
    O282    O    0.31637   0.36263   0.85873   1.000
    O283    O    0.63737   0.95373   0.85873   1.000
    O284    O    0.01697   0.71293   0.30793   1.000
    O285    O    0.69597   0.98303   0.30793   1.000
    O286    O    0.28707   0.30403   0.30793   1.000
    O287    O    0.28707   0.98303   0.80793   1.000
    O288    O    0.01697   0.30403   0.80793   1.000
    O289    O    0.69597   0.71293   0.80793   1.000
    O290    O    0.31637   0.95373   0.35873   1.000
    O291    O    0.63737   0.68363   0.35873   1.000
    O292    O    0.04627   0.36263   0.35873   1.000
    O293    O    0.71293   0.01697   0.19207   1.000
    O294    O    0.98303   0.69597   0.19207   1.000
    O295    O    0.30403   0.28707   0.19207   1.000
    O296    O    0.68363   0.04627   0.64127   1.000
    O297    O    0.36263   0.31637   0.64127   1.000
    O298    O    0.95373   0.63737   0.64127   1.000
    O299    O    0.95373   0.31637   0.14127   1.000
    O300    O    0.68363   0.63737   0.14127   1.000
    O301    O    0.36263   0.04627   0.14127   1.000
    O302    O    0.98303   0.28707   0.69207   1.000
    O303    O    0.30403   0.01697   0.69207   1.000
    O304    O    0.71293   0.69597   0.69207   1.000
    O305    O    0.44200   0.78450   0.49357   1.000
    O306    O    0.21550   0.65750   0.49357   1.000
    O307    O    0.55800   0.34250   0.00643   1.000
    O308    O    0.78450   0.44200   0.00643   1.000
    O309    O    0.65750   0.21550   0.00643   1.000
    O310    O    0.65750   0.44200   0.50643   1.000
    O311    O    0.55800   0.21550   0.50643   1.000
    O312    O    0.78450   0.34250   0.50643   1.000
    O313    O    0.44200   0.65750   0.99357   1.000
    O314    O    0.21550   0.55800   0.99357   1.000
    O315    O    0.34250   0.78450   0.99357   1.000
    O316    O    0.00917   0.89133   0.82690   1.000
    O317    O    0.10867   0.11783   0.82690   1.000
    O318    O    0.88217   0.99083   0.82690   1.000
    O319    O    0.22467   0.67583   0.33976   1.000
    O320    O    0.45117   0.77533   0.33976   1.000
    O321    O    0.32417   0.54883   0.33976   1.000
    O322    O    0.32417   0.77533   0.83976   1.000
    O323    O    0.22467   0.54883   0.83976   1.000
    O324    O    0.45117   0.67583   0.83976   1.000
    O325    O    0.10867   0.99083   0.32690   1.000
    O326    O    0.88217   0.89133   0.32690   1.000
    O327    O    0.00917   0.11783   0.32690   1.000
    O328    O    0.67583   0.22467   0.16024   1.000
    O329    O    0.77533   0.45117   0.16024   1.000
    O330    O    0.54883   0.32417   0.16024   1.000
    O331    O    0.89133   0.00917   0.67310   1.000
    O332    O    0.11783   0.10867   0.67310   1.000
    O333    O    0.99083   0.88217   0.67310   1.000
    O334    O    0.99083   0.10867   0.17310   1.000
    O335    O    0.89133   0.88217   0.17310   1.000
    O336    O    0.11783   0.00917   0.17310   1.000
    O337    O    0.77533   0.32417   0.66024   1.000
    O338    O    0.54883   0.22467   0.66024   1.000
    O339    O    0.67583   0.45117   0.66024   1.000
    O340    O    0.46110   0.69610   0.49299   1.000
    O341    O    0.30390   0.76500   0.49299   1.000
    O342    O    0.53890   0.23500   0.00701   1.000
    O343    O    0.69610   0.46110   0.00701   1.000
    O344    O    0.76500   0.30390   0.00701   1.000
    O345    O    0.76500   0.46110   0.50701   1.000
    O346    O    0.53890   0.30390   0.50701   1.000
    O347    O    0.69610   0.23500   0.50701   1.000
    O348    O    0.46110   0.76500   0.99299   1.000
    O349    O    0.30390   0.53890   0.99299   1.000
    O350    O    0.23500   0.69610   0.99299   1.000
    O351    O    0.90167   0.87223   0.82632   1.000
    O352    O    0.12777   0.02943   0.82632   1.000
    O353    O    0.97057   0.09833   0.82632   1.000
    O354    O    0.20557   0.56833   0.34034   1.000
    O355    O    0.36277   0.79443   0.34034   1.000
    O356    O    0.43167   0.63723   0.34034   1.000
    O357    O    0.43167   0.79443   0.84034   1.000
    O358    O    0.20557   0.63723   0.84034   1.000
    O359    O    0.36277   0.56833   0.84034   1.000
    O360    O    0.12777   0.09833   0.32632   1.000
    O361    O    0.97057   0.87223   0.32632   1.000
    O362    O    0.90167   0.02943   0.32632   1.000
    O363    O    0.56833   0.20557   0.15966   1.000
    O364    O    0.79443   0.36277   0.15966   1.000
    O365    O    0.63723   0.43167   0.15966   1.000
    O366    O    0.87223   0.90167   0.67368   1.000
    O367    O    0.02943   0.12777   0.67368   1.000
    O368    O    0.09833   0.97057   0.67368   1.000
    O369    O    0.09833   0.12777   0.17368   1.000
    O370    O    0.87223   0.97057   0.17368   1.000
    O371    O    0.02943   0.90167   0.17368   1.000
    O372    O    0.79443   0.43167   0.65966   1.000
    O373    O    0.63723   0.20557   0.65966   1.000
    O374    O    0.56833   0.36277   0.65966   1.000
    O375    O    0.25080   0.63960   0.45698   1.000
    O376    O    0.36040   0.61120   0.45698   1.000
    O377    O    0.74920   0.38880   0.04302   1.000
    O378    O    0.63960   0.25080   0.04302   1.000
    O379    O    0.61120   0.36040   0.04302   1.000
    O380    O    0.61120   0.25080   0.54302   1.000
    O381    O    0.74920   0.36040   0.54302   1.000
    O382    O    0.63960   0.38880   0.54302   1.000
    O383    O    0.25080   0.61120   0.95698   1.000
    O384    O    0.36040   0.74920   0.95698   1.000
    O385    O    0.38880   0.63960   0.95698   1.000
    O386    O    0.05547   0.08253   0.79031   1.000
    O387    O    0.91747   0.97293   0.79031   1.000
    O388    O    0.02707   0.94453   0.79031   1.000
    O389    O    0.41587   0.72213   0.37635   1.000
    O390    O    0.30627   0.58413   0.37635   1.000
    O391    O    0.27787   0.69373   0.37635   1.000
    O392    O    0.27787   0.58413   0.87635   1.000
    O393    O    0.41587   0.69373   0.87635   1.000
    O394    O    0.30627   0.72213   0.87635   1.000
    O395    O    0.91747   0.94453   0.29031   1.000
    O396    O    0.02707   0.08253   0.29031   1.000
    O397    O    0.05547   0.97293   0.29031   1.000
    O398    O    0.72213   0.41587   0.12365   1.000
    O399    O    0.58413   0.30627   0.12365   1.000
    O400    O    0.69373   0.27787   0.12365   1.000
    O401    O    0.08253   0.05547   0.70969   1.000
    O402    O    0.97293   0.91747   0.70969   1.000
    O403    O    0.94453   0.02707   0.70969   1.000
    O404    O    0.94453   0.91747   0.20969   1.000
    O405    O    0.08253   0.02707   0.20969   1.000
    O406    O    0.97293   0.05547   0.20969   1.000
    O407    O    0.58413   0.27787   0.62365   1.000
    O408    O    0.69373   0.41587   0.62365   1.000
    O409    O    0.72213   0.30627   0.62365   1.000
    O410    O    0.19470   0.57790   0.47220   1.000
    O411    O    0.42210   0.61680   0.47220   1.000
    O412    O    0.80530   0.38320   0.02780   1.000
    O413    O    0.57790   0.19470   0.02780   1.000
    O414    O    0.61680   0.42210   0.02780   1.000
    O415    O    0.61680   0.19470   0.52780   1.000
    O416    O    0.80530   0.42210   0.52780   1.000
    O417    O    0.57790   0.38320   0.52780   1.000
    O418    O    0.19470   0.61680   0.97220   1.000
    O419    O    0.42210   0.80530   0.97220   1.000
    O420    O    0.38320   0.57790   0.97220   1.000
    O421    O    0.04987   0.13863   0.80553   1.000
    O422    O    0.86137   0.91123   0.80553   1.000
    O423    O    0.08877   0.95013   0.80553   1.000
    O424    O    0.47197   0.71653   0.36113   1.000
    O425    O    0.24457   0.52803   0.36113   1.000
    O426    O    0.28347   0.75543   0.36113   1.000
    O427    O    0.28347   0.52803   0.86113   1.000
    O428    O    0.47197   0.75543   0.86113   1.000
    O429    O    0.24457   0.71653   0.86113   1.000
    O430    O    0.86137   0.95013   0.30553   1.000
    O431    O    0.08877   0.13863   0.30553   1.000
    O432    O    0.04987   0.91123   0.30553   1.000
    O433    O    0.71653   0.47197   0.13887   1.000
    O434    O    0.52803   0.24457   0.13887   1.000
    O435    O    0.75543   0.28347   0.13887   1.000
    O436    O    0.13863   0.04987   0.69447   1.000
    O437    O    0.91123   0.86137   0.69447   1.000
    O438    O    0.95013   0.08877   0.69447   1.000
    O439    O    0.95013   0.86137   0.19447   1.000
    O440    O    0.13863   0.08877   0.19447   1.000
    O441    O    0.91123   0.04987   0.19447   1.000
    O442    O    0.52803   0.28347   0.63887   1.000
    O443    O    0.75543   0.47197   0.63887   1.000
    O444    O    0.71653   0.24457   0.63887   1.000
    O445    O    0.11710   0.60840   0.40631   0.547
    O446    O    0.39160   0.50870   0.40631   0.547
    O447    O    0.88290   0.49130   0.09369   0.547
    O448    O    0.60840   0.11710   0.09369   0.547
    O449    O    0.50870   0.39160   0.09369   0.547
    O450    O    0.50870   0.11710   0.59369   0.547
    O451    O    0.88290   0.39160   0.59369   0.547
    O452    O    0.60840   0.49130   0.59369   0.547
    O453    O    0.11710   0.50870   0.90631   0.547
    O454    O    0.39160   0.88290   0.90631   0.547
    O455    O    0.49130   0.60840   0.90631   0.547
    O456    O    0.15797   0.21623   0.73964   0.547
    O457    O    0.78377   0.94173   0.73964   0.547
    O458    O    0.05827   0.84203   0.73964   0.547
    O459    O    0.54957   0.82463   0.42702   0.547
    O460    O    0.27507   0.45043   0.42702   0.547
    O461    O    0.17537   0.72493   0.42702   0.547
    O462    O    0.17537   0.45043   0.92702   0.547
    O463    O    0.54957   0.72493   0.92702   0.547
    O464    O    0.27507   0.82463   0.92702   0.547
    O465    O    0.78377   0.84203   0.23964   0.547
    O466    O    0.05827   0.21623   0.23964   0.547
    O467    O    0.15797   0.94173   0.23964   0.547
    O468    O    0.82463   0.54957   0.07298   0.547
    O469    O    0.45043   0.27507   0.07298   0.547
    O470    O    0.72493   0.17537   0.07298   0.547
    O471    O    0.21623   0.15797   0.76036   0.547
    O472    O    0.94173   0.78377   0.76036   0.547
    O473    O    0.84203   0.05827   0.76036   0.547
    O474    O    0.84203   0.78377   0.26036   0.547
    O475    O    0.21623   0.05827   0.26036   0.547
    O476    O    0.94173   0.15797   0.26036   0.547
    O477    O    0.45043   0.17537   0.57298   0.547
    O478    O    0.72493   0.54957   0.57298   0.547
    O479    O    0.82463   0.27507   0.57298   0.547
    O480    O    0.90330   0.42120   0.47150   0.453
    O481    O    0.57880   0.48210   0.47150   0.453
    O482    O    0.09670   0.51790   0.02850   0.453
    O483    O    0.42120   0.90330   0.02850   0.453
    O484    O    0.48210   0.57880   0.02850   0.453
    O485    O    0.48210   0.90330   0.52850   0.453
    O486    O    0.09670   0.57880   0.52850   0.453
    O487    O    0.42120   0.51790   0.52850   0.453
    O488    O    0.90330   0.48210   0.97150   0.453
    O489    O    0.57880   0.09670   0.97150   0.453
    O490    O    0.51790   0.42120   0.97150   0.453
    O491    O    0.18457   0.43003   0.80483   0.453
    O492    O    0.56997   0.75453   0.80483   0.453
    O493    O    0.24547   0.81543   0.80483   0.453
    O494    O    0.76337   0.85123   0.36183   0.453
    O495    O    0.08787   0.23663   0.36183   0.453
    O496    O    0.14877   0.91213   0.36183   0.453
    O497    O    0.14877   0.23663   0.86183   0.453
    O498    O    0.76337   0.91213   0.86183   0.453
    O499    O    0.08787   0.85123   0.86183   0.453
    O500    O    0.56997   0.81543   0.30483   0.453
    O501    O    0.24547   0.43003   0.30483   0.453
    O502    O    0.18457   0.75453   0.30483   0.453
    O503    O    0.85123   0.76337   0.13817   0.453
    O504    O    0.23663   0.08787   0.13817   0.453
    O505    O    0.91213   0.14877   0.13817   0.453
    O506    O    0.43003   0.18457   0.69517   0.453
    O507    O    0.75453   0.56997   0.69517   0.453
    O508    O    0.81543   0.24547   0.69517   0.453
    O509    O    0.81543   0.56997   0.19517   0.453
    O510    O    0.43003   0.24547   0.19517   0.453
    O511    O    0.75453   0.18457   0.19517   0.453
    O512    O    0.23663   0.14877   0.63817   0.453
    O513    O    0.91213   0.76337   0.63817   0.453
    O514    O    0.85123   0.08787   0.63817   0.453
    O515    O    0.80920   0.41790   0.40243   1.000
    O516    O    0.58210   0.39130   0.40243   1.000
    O517    O    0.19080   0.60870   0.09757   1.000
    O518    O    0.41790   0.80920   0.09757   1.000
    O519    O    0.39130   0.58210   0.09757   1.000
    O520    O    0.39130   0.80920   0.59757   1.000
    O521    O    0.19080   0.58210   0.59757   1.000
    O522    O    0.41790   0.60870   0.59757   1.000
    O523    O    0.80920   0.39130   0.90243   1.000
    O524    O    0.58210   0.19080   0.90243   1.000
    O525    O    0.60870   0.41790   0.90243   1.000
    O526    O    0.27537   0.52413   0.73576   1.000
    O527    O    0.47587   0.75123   0.73576   1.000
    O528    O    0.24877   0.72463   0.73576   1.000
    O529    O    0.85747   0.94203   0.43090   1.000
    O530    O    0.08457   0.14253   0.43090   1.000
    O531    O    0.05797   0.91543   0.43090   1.000
    O532    O    0.05797   0.14253   0.93090   1.000
    O533    O    0.85747   0.91543   0.93090   1.000
    O534    O    0.08457   0.94203   0.93090   1.000
    O535    O    0.47587   0.72463   0.23576   1.000
    O536    O    0.24877   0.52413   0.23576   1.000
    O537    O    0.27537   0.75123   0.23576   1.000
    O538    O    0.94203   0.85747   0.06910   1.000
    O539    O    0.14253   0.08457   0.06910   1.000
    O540    O    0.91543   0.05797   0.06910   1.000
    O541    O    0.52413   0.27537   0.76424   1.000
    O542    O    0.75123   0.47587   0.76424   1.000
    O543    O    0.72463   0.24877   0.76424   1.000
    O544    O    0.72463   0.47587   0.26424   1.000
    O545    O    0.52413   0.24877   0.26424   1.000
    O546    O    0.75123   0.27537   0.26424   1.000
    O547    O    0.14253   0.05797   0.56910   1.000
    O548    O    0.91543   0.85747   0.56910   1.000
    O549    O    0.94203   0.08457   0.56910   1.000
    O550    O    0.75010   0.38260   0.41916   1.000
    O551    O    0.61740   0.36750   0.41916   1.000
    O552    O    0.24990   0.63250   0.08084   1.000
    O553    O    0.38260   0.75010   0.08084   1.000
    O554    O    0.36750   0.61740   0.08084   1.000
    O555    O    0.36750   0.75010   0.58084   1.000
    O556    O    0.24990   0.61740   0.58084   1.000
    O557    O    0.38260   0.63250   0.58084   1.000
    O558    O    0.75010   0.36750   0.91916   1.000
    O559    O    0.61740   0.24990   0.91916   1.000
    O560    O    0.63250   0.38260   0.91916   1.000
    O561    O    0.29917   0.58323   0.75249   1.000
    O562    O    0.41677   0.71593   0.75249   1.000
    O563    O    0.28407   0.70083   0.75249   1.000
    O564    O    0.91657   0.96583   0.41417   1.000
    O565    O    0.04927   0.08343   0.41417   1.000
    O566    O    0.03417   0.95073   0.41417   1.000
    O567    O    0.03417   0.08343   0.91417   1.000
    O568    O    0.91657   0.95073   0.91417   1.000
    O569    O    0.04927   0.96583   0.91417   1.000
    O570    O    0.41677   0.70083   0.25249   1.000
    O571    O    0.28407   0.58323   0.25249   1.000
    O572    O    0.29917   0.71593   0.25249   1.000
    O573    O    0.96583   0.91657   0.08583   1.000
    O574    O    0.08343   0.04927   0.08583   1.000
    O575    O    0.95073   0.03417   0.08583   1.000
    O576    O    0.58323   0.29917   0.74751   1.000
    O577    O    0.71593   0.41677   0.74751   1.000
    O578    O    0.70083   0.28407   0.74751   1.000
    O579    O    0.70083   0.41677   0.24751   1.000
    O580    O    0.58323   0.28407   0.24751   1.000
    O581    O    0.71593   0.29917   0.24751   1.000
    O582    O    0.08343   0.03417   0.58583   1.000
    O583    O    0.95073   0.91657   0.58583   1.000
    O584    O    0.96583   0.04927   0.58583   1.000
    N585    N    0.71370   0.98870   0.52236   1.000
    N586    N    0.01130   0.72500   0.52236   1.000
    N587    N    0.28630   0.27500   0.97764   1.000
    N588    N    0.98870   0.71370   0.97764   1.000
    N589    N    0.72500   0.01130   0.97764   1.000
    N590    N    0.72500   0.71370   0.47764   1.000
    N591    N    0.28630   0.01130   0.47764   1.000
    N592    N    0.98870   0.27500   0.47764   1.000
    N593    N    0.71370   0.72500   0.02236   1.000
    N594    N    0.01130   0.28630   0.02236   1.000
    N595    N    0.27500   0.98870   0.02236   1.000
    N596    N    0.94167   0.61963   0.85569   1.000
    N597    N    0.38037   0.32203   0.85569   1.000
    N598    N    0.67797   0.05833   0.85569   1.000
    N599    N    0.95297   0.60833   0.31097   1.000
    N600    N    0.65537   0.04703   0.31097   1.000
    N601    N    0.39167   0.34463   0.31097   1.000
    N602    N    0.39167   0.04703   0.81097   1.000
    N603    N    0.95297   0.34463   0.81097   1.000
    N604    N    0.65537   0.60833   0.81097   1.000
    N605    N    0.38037   0.05833   0.35569   1.000
    N606    N    0.67797   0.61963   0.35569   1.000
    N607    N    0.94167   0.32203   0.35569   1.000
    N608    N    0.60833   0.95297   0.18903   1.000
    N609    N    0.04703   0.65537   0.18903   1.000
    N610    N    0.34463   0.39167   0.18903   1.000
    N611    N    0.61963   0.94167   0.64431   1.000
    N612    N    0.32203   0.38037   0.64431   1.000
    N613    N    0.05833   0.67797   0.64431   1.000
    N614    N    0.05833   0.38037   0.14431   1.000
    N615    N    0.61963   0.67797   0.14431   1.000
    N616    N    0.32203   0.94167   0.14431   1.000
    N617    N    0.04703   0.39167   0.68903   1.000
    N618    N    0.34463   0.95297   0.68903   1.000
    N619    N    0.60833   0.65537   0.68903   1.000
    H620    H    0.74070   0.02140   0.51810   1.000
    H621    H    0.97860   0.71930   0.51810   1.000
    H622    H    0.25930   0.28070   0.98190   1.000
    H623    H    0.02140   0.74070   0.98190   1.000
    H624    H    0.71930   0.97860   0.98190   1.000
    H625    H    0.71930   0.74070   0.48190   1.000
    H626    H    0.25930   0.97860   0.48190   1.000
    H627    H    0.02140   0.28070   0.48190   1.000
    H628    H    0.74070   0.71930   0.01810   1.000
    H629    H    0.97860   0.25930   0.01810   1.000
    H630    H    0.28070   0.02140   0.01810   1.000
    H631    H    0.94737   0.59263   0.85143   1.000
    H632    H    0.40737   0.35473   0.85143   1.000
    H633    H    0.64527   0.05263   0.85143   1.000
    H634    H    0.92597   0.61403   0.31523   1.000
    H635    H    0.68807   0.07403   0.31523   1.000
    H636    H    0.38597   0.31193   0.31523   1.000
    H637    H    0.38597   0.07403   0.81523   1.000
    H638    H    0.92597   0.31193   0.81523   1.000
    H639    H    0.68807   0.61403   0.81523   1.000
    H640    H    0.40737   0.05263   0.35143   1.000
    H641    H    0.64527   0.59263   0.35143   1.000
    H642    H    0.94737   0.35473   0.35143   1.000
    H643    H    0.61403   0.92597   0.18477   1.000
    H644    H    0.07403   0.68807   0.18477   1.000
    H645    H    0.31193   0.38597   0.18477   1.000
    H646    H    0.59263   0.94737   0.64857   1.000
    H647    H    0.35473   0.40737   0.64857   1.000
    H648    H    0.05263   0.64527   0.64857   1.000
    H649    H    0.05263   0.40737   0.14857   1.000
    H650    H    0.59263   0.64527   0.14857   1.000
    H651    H    0.35473   0.94737   0.14857   1.000
    H652    H    0.07403   0.38597   0.68477   1.000
    H653    H    0.31193   0.92597   0.68477   1.000
    H654    H    0.61403   0.68807   0.68477   1.000
    N655    N    0.60800   0.92940   0.52280   1.000
    N656    N    0.07060   0.67860   0.52280   1.000
    N657    N    0.39200   0.32140   0.97720   1.000
    N658    N    0.92940   0.60800   0.97720   1.000
    N659    N    0.67860   0.07060   0.97720   1.000
    N660    N    0.67860   0.60800   0.47720   1.000
    N661    N    0.39200   0.07060   0.47720   1.000
    N662    N    0.92940   0.32140   0.47720   1.000
    N663    N    0.60800   0.67860   0.02280   1.000
    N664    N    0.07060   0.39200   0.02280   1.000
    N665    N    0.32140   0.92940   0.02280   1.000
    N666    N    0.98807   0.72533   0.85613   1.000
    N667    N    0.27467   0.26273   0.85613   1.000
    N668    N    0.73727   0.01193   0.85613   1.000
    N669    N    0.05867   0.65473   0.31053   1.000
    N670    N    0.59607   0.94133   0.31053   1.000
    N671    N    0.34527   0.40393   0.31053   1.000
    N672    N    0.34527   0.94133   0.81053   1.000
    N673    N    0.05867   0.40393   0.81053   1.000
    N674    N    0.59607   0.65473   0.81053   1.000
    N675    N    0.27467   0.01193   0.35613   1.000
    N676    N    0.73727   0.72533   0.35613   1.000
    N677    N    0.98807   0.26273   0.35613   1.000
    N678    N    0.65473   0.05867   0.18947   1.000
    N679    N    0.94133   0.59607   0.18947   1.000
    N680    N    0.40393   0.34527   0.18947   1.000
    N681    N    0.72533   0.98807   0.64387   1.000
    N682    N    0.26273   0.27467   0.64387   1.000
    N683    N    0.01193   0.73727   0.64387   1.000
    N684    N    0.01193   0.27467   0.14387   1.000
    N685    N    0.72533   0.73727   0.14387   1.000
    N686    N    0.26273   0.98807   0.14387   1.000
    N687    N    0.94133   0.34527   0.68947   1.000
    N688    N    0.40393   0.05867   0.68947   1.000
    N689    N    0.65473   0.59607   0.68947   1.000
    H690    H    0.57340   0.92070   0.52670   1.000
    H691    H    0.07930   0.65270   0.52670   1.000
    H692    H    0.42660   0.34730   0.97330   1.000
    H693    H    0.92070   0.57340   0.97330   1.000
    H694    H    0.65270   0.07930   0.97330   1.000
    H695    H    0.65270   0.57340   0.47330   1.000
    H696    H    0.42660   0.07930   0.47330   1.000
    H697    H    0.92070   0.34730   0.47330   1.000
    H698    H    0.57340   0.65270   0.02670   1.000
    H699    H    0.07930   0.42660   0.02670   1.000
    H700    H    0.34730   0.92070   0.02670   1.000
    H701    H    0.01397   0.75993   0.86003   1.000
    H702    H    0.24007   0.25403   0.86003   1.000
    H703    H    0.74597   0.98603   0.86003   1.000
    H704    H    0.09327   0.68063   0.30663   1.000
    H705    H    0.58737   0.90673   0.30663   1.000
    H706    H    0.31937   0.41263   0.30663   1.000
    H707    H    0.31937   0.90673   0.80663   1.000
    H708    H    0.09327   0.41263   0.80663   1.000
    H709    H    0.58737   0.68063   0.80663   1.000
    H710    H    0.24007   0.98603   0.36003   1.000
    H711    H    0.74597   0.75993   0.36003   1.000
    H712    H    0.01397   0.25403   0.36003   1.000
    H713    H    0.68063   0.09327   0.19337   1.000
    H714    H    0.90673   0.58737   0.19337   1.000
    H715    H    0.41263   0.31937   0.19337   1.000
    H716    H    0.75993   0.01397   0.63997   1.000
    H717    H    0.25403   0.24007   0.63997   1.000
    H718    H    0.98603   0.74597   0.63997   1.000
    H719    H    0.98603   0.24007   0.13997   1.000
    H720    H    0.75993   0.74597   0.13997   1.000
    H721    H    0.25403   0.01397   0.13997   1.000
    H722    H    0.90673   0.31937   0.69337   1.000
    H723    H    0.41263   0.09327   0.69337   1.000
    H724    H    0.68063   0.58737   0.69337   1.000
    C725    C    0.86740   0.95720   0.54405   1.000
    C726    C    0.04280   0.91020   0.54405   1.000
    C727    C    0.13260   0.08980   0.95595   1.000
    C728    C    0.95720   0.86740   0.95595   1.000
    C729    C    0.91020   0.04280   0.95595   1.000
    C730    C    0.91020   0.86740   0.45595   1.000
    C731    C    0.13260   0.04280   0.45595   1.000
    C732    C    0.95720   0.08980   0.45595   1.000
    C733    C    0.86740   0.91020   0.04405   1.000
    C734    C    0.04280   0.13260   0.04405   1.000
    C735    C    0.08980   0.95720   0.04405   1.000
    C736    C    0.75647   0.46593   0.87738   1.000
    C737    C    0.53407   0.29053   0.87738   1.000
    C738    C    0.70947   0.24353   0.87738   1.000
    C739    C    0.79927   0.42313   0.28928   1.000
    C740    C    0.62387   0.20073   0.28928   1.000
    C741    C    0.57687   0.37613   0.28928   1.000
    C742    C    0.57687   0.20073   0.78928   1.000
    C743    C    0.79927   0.37613   0.78928   1.000
    C744    C    0.62387   0.42313   0.78928   1.000
    C745    C    0.53407   0.24353   0.37738   1.000
    C746    C    0.70947   0.46593   0.37738   1.000
    C747    C    0.75647   0.29053   0.37738   1.000
    C748    C    0.42313   0.79927   0.21072   1.000
    C749    C    0.20073   0.62387   0.21072   1.000
    C750    C    0.37613   0.57687   0.21072   1.000
    C751    C    0.46593   0.75647   0.62262   1.000
    C752    C    0.29053   0.53407   0.62262   1.000
    C753    C    0.24353   0.70947   0.62262   1.000
    C754    C    0.24353   0.53407   0.12262   1.000
    C755    C    0.46593   0.70947   0.12262   1.000
    C756    C    0.29053   0.75647   0.12262   1.000
    C757    C    0.20073   0.57687   0.71072   1.000
    C758    C    0.37613   0.79927   0.71072   1.000
    C759    C    0.42313   0.62387   0.71072   1.000
    C760    C    0.81010   0.93140   0.53659   1.000
    C761    C    0.06860   0.87870   0.53659   1.000
    C762    C    0.18990   0.12130   0.96341   1.000
    C763    C    0.93140   0.81010   0.96341   1.000
    C764    C    0.87870   0.06860   0.96341   1.000
    C765    C    0.87870   0.81010   0.46341   1.000
    C766    C    0.18990   0.06860   0.46341   1.000
    C767    C    0.93140   0.12130   0.46341   1.000
    C768    C    0.81010   0.87870   0.03659   1.000
    C769    C    0.06860   0.18990   0.03659   1.000
    C770    C    0.12130   0.93140   0.03659   1.000
    C771    C    0.78797   0.52323   0.86992   1.000
    C772    C    0.47677   0.26473   0.86992   1.000
    C773    C    0.73527   0.21203   0.86992   1.000
    C774    C    0.85657   0.45463   0.29674   1.000
    C775    C    0.59807   0.14343   0.29674   1.000
    C776    C    0.54537   0.40193   0.29674   1.000
    C777    C    0.54537   0.14343   0.79674   1.000
    C778    C    0.85657   0.40193   0.79674   1.000
    C779    C    0.59807   0.45463   0.79674   1.000
    C780    C    0.47677   0.21203   0.36992   1.000
    C781    C    0.73527   0.52323   0.36992   1.000
    C782    C    0.78797   0.26473   0.36992   1.000
    C783    C    0.45463   0.85657   0.20326   1.000
    C784    C    0.14343   0.59807   0.20326   1.000
    C785    C    0.40193   0.54537   0.20326   1.000
    C786    C    0.52323   0.78797   0.63008   1.000
    C787    C    0.26473   0.47677   0.63008   1.000
    C788    C    0.21203   0.73527   0.63008   1.000
    C789    C    0.21203   0.47677   0.13008   1.000
    C790    C    0.52323   0.73527   0.13008   1.000
    C791    C    0.26473   0.78797   0.13008   1.000
    C792    C    0.14343   0.54537   0.70326   1.000
    C793    C    0.40193   0.85657   0.70326   1.000
    C794    C    0.45463   0.59807   0.70326   1.000
    C795    C    0.79110   0.97270   0.53280   1.000
    C796    C    0.02730   0.81840   0.53280   1.000
    C797    C    0.20890   0.18160   0.96720   1.000
    C798    C    0.97270   0.79110   0.96720   1.000
    C799    C    0.81840   0.02730   0.96720   1.000
    C800    C    0.81840   0.79110   0.46720   1.000
    C801    C    0.20890   0.02730   0.46720   1.000
    C802    C    0.97270   0.18160   0.46720   1.000
    C803    C    0.79110   0.81840   0.03280   1.000
    C804    C    0.02730   0.20890   0.03280   1.000
    C805    C    0.18160   0.97270   0.03280   1.000
    C806    C    0.84827   0.54223   0.86613   1.000
    C807    C    0.45777   0.30603   0.86613   1.000
    C808    C    0.69397   0.15173   0.86613   1.000
    C809    C    0.87557   0.51493   0.30053   1.000
    C810    C    0.63937   0.12443   0.30053   1.000
    C811    C    0.48507   0.36063   0.30053   1.000
    C812    C    0.48507   0.12443   0.80053   1.000
    C813    C    0.87557   0.36063   0.80053   1.000
    C814    C    0.63937   0.51493   0.80053   1.000
    C815    C    0.45777   0.15173   0.36613   1.000
    C816    C    0.69397   0.54223   0.36613   1.000
    C817    C    0.84827   0.30603   0.36613   1.000
    C818    C    0.51493   0.87557   0.19947   1.000
    C819    C    0.12443   0.63937   0.19947   1.000
    C820    C    0.36063   0.48507   0.19947   1.000
    C821    C    0.54223   0.84827   0.63387   1.000
    C822    C    0.30603   0.45777   0.63387   1.000
    C823    C    0.15173   0.69397   0.63387   1.000
    C824    C    0.15173   0.45777   0.13387   1.000
    C825    C    0.54223   0.69397   0.13387   1.000
    C826    C    0.30603   0.84827   0.13387   1.000
    C827    C    0.12443   0.48507   0.69947   1.000
    C828    C    0.36063   0.87557   0.69947   1.000
    C829    C    0.51493   0.63937   0.69947   1.000
    H830    H    0.81430   0.01650   0.53460   1.000
    H831    H    0.98350   0.79780   0.53460   1.000
    H832    H    0.18570   0.20220   0.96540   1.000
    H833    H    0.01650   0.81430   0.96540   1.000
    H834    H    0.79780   0.98350   0.96540   1.000
    H835    H    0.79780   0.81430   0.46540   1.000
    H836    H    0.18570   0.98350   0.46540   1.000
    H837    H    0.01650   0.20220   0.46540   1.000
    H838    H    0.81430   0.79780   0.03460   1.000
    H839    H    0.98350   0.18570   0.03460   1.000
    H840    H    0.20220   0.01650   0.03460   1.000
    H841    H    0.86887   0.51903   0.86793   1.000
    H842    H    0.48097   0.34983   0.86793   1.000
    H843    H    0.65017   0.13113   0.86793   1.000
    H844    H    0.85237   0.53553   0.29873   1.000
    H845    H    0.68317   0.14763   0.29873   1.000
    H846    H    0.46447   0.31683   0.29873   1.000
    H847    H    0.46447   0.14763   0.79873   1.000
    H848    H    0.85237   0.31683   0.79873   1.000
    H849    H    0.68317   0.53553   0.79873   1.000
    H850    H    0.48097   0.13113   0.36793   1.000
    H851    H    0.65017   0.51903   0.36793   1.000
    H852    H    0.86887   0.34983   0.36793   1.000
    H853    H    0.53553   0.85237   0.20127   1.000
    H854    H    0.14763   0.68317   0.20127   1.000
    H855    H    0.31683   0.46447   0.20127   1.000
    H856    H    0.51903   0.86887   0.63207   1.000
    H857    H    0.34983   0.48097   0.63207   1.000
    H858    H    0.13113   0.65017   0.63207   1.000
    H859    H    0.13113   0.48097   0.13207   1.000
    H860    H    0.51903   0.65017   0.13207   1.000
    H861    H    0.34983   0.86887   0.13207   1.000
    H862    H    0.14763   0.46447   0.70127   1.000
    H863    H    0.31683   0.85237   0.70127   1.000
    H864    H    0.53553   0.68317   0.70127   1.000
    C865    C    0.73500   0.94640   0.52598   1.000
    C866    C    0.05360   0.78860   0.52598   1.000
    C867    C    0.26500   0.21140   0.97402   1.000
    C868    C    0.94640   0.73500   0.97402   1.000
    C869    C    0.78860   0.05360   0.97402   1.000
    C870    C    0.78860   0.73500   0.47402   1.000
    C871    C    0.26500   0.05360   0.47402   1.000
    C872    C    0.94640   0.21140   0.47402   1.000
    C873    C    0.73500   0.78860   0.02598   1.000
    C874    C    0.05360   0.26500   0.02598   1.000
    C875    C    0.21140   0.94640   0.02598   1.000
    C876    C    0.87807   0.59833   0.85931   1.000
    C877    C    0.40167   0.27973   0.85931   1.000
    C878    C    0.72027   0.12193   0.85931   1.000
    C879    C    0.93167   0.54473   0.30735   1.000
    C880    C    0.61307   0.06833   0.30735   1.000
    C881    C    0.45527   0.38693   0.30735   1.000
    C882    C    0.45527   0.06833   0.80735   1.000
    C883    C    0.93167   0.38693   0.80735   1.000
    C884    C    0.61307   0.54473   0.80735   1.000
    C885    C    0.40167   0.12193   0.35931   1.000
    C886    C    0.72027   0.59833   0.35931   1.000
    C887    C    0.87807   0.27973   0.35931   1.000
    C888    C    0.54473   0.93167   0.19265   1.000
    C889    C    0.06833   0.61307   0.19265   1.000
    C890    C    0.38693   0.45527   0.19265   1.000
    C891    C    0.59833   0.87807   0.64069   1.000
    C892    C    0.27973   0.40167   0.64069   1.000
    C893    C    0.12193   0.72027   0.64069   1.000
    C894    C    0.12193   0.40167   0.14069   1.000
    C895    C    0.59833   0.72027   0.14069   1.000
    C896    C    0.27973   0.87807   0.14069   1.000
    C897    C    0.06833   0.45527   0.69265   1.000
    C898    C    0.38693   0.93167   0.69265   1.000
    C899    C    0.54473   0.61307   0.69265   1.000
    C900    C    0.69760   0.88040   0.52376   1.000
    C901    C    0.11960   0.81720   0.52376   1.000
    C902    C    0.30240   0.18280   0.97624   1.000
    C903    C    0.88040   0.69760   0.97624   1.000
    C904    C    0.81720   0.11960   0.97624   1.000
    C905    C    0.81720   0.69760   0.47624   1.000
    C906    C    0.30240   0.11960   0.47624   1.000
    C907    C    0.88040   0.18280   0.47624   1.000
    C908    C    0.69760   0.81720   0.02376   1.000
    C909    C    0.11960   0.30240   0.02376   1.000
    C910    C    0.18280   0.88040   0.02376   1.000
    C911    C    0.84947   0.63573   0.85709   1.000
    C912    C    0.36427   0.21373   0.85709   1.000
    C913    C    0.78627   0.15053   0.85709   1.000
    C914    C    0.96907   0.51613   0.30957   1.000
    C915    C    0.54707   0.03093   0.30957   1.000
    C916    C    0.48387   0.45293   0.30957   1.000
    C917    C    0.48387   0.03093   0.80957   1.000
    C918    C    0.96907   0.45293   0.80957   1.000
    C919    C    0.54707   0.51613   0.80957   1.000
    C920    C    0.36427   0.15053   0.35709   1.000
    C921    C    0.78627   0.63573   0.35709   1.000
    C922    C    0.84947   0.21373   0.35709   1.000
    C923    C    0.51613   0.96907   0.19043   1.000
    C924    C    0.03093   0.54707   0.19043   1.000
    C925    C    0.45293   0.48387   0.19043   1.000
    C926    C    0.63573   0.84947   0.64291   1.000
    C927    C    0.21373   0.36427   0.64291   1.000
    C928    C    0.15053   0.78627   0.64291   1.000
    C929    C    0.15053   0.36427   0.14291   1.000
    C930    C    0.63573   0.78627   0.14291   1.000
    C931    C    0.21373   0.84947   0.14291   1.000
    C932    C    0.03093   0.48387   0.69043   1.000
    C933    C    0.45293   0.96907   0.69043   1.000
    C934    C    0.51613   0.54707   0.69043   1.000
    C935    C    0.71870   0.84450   0.52800   1.000
    C936    C    0.15550   0.87420   0.52800   1.000
    C937    C    0.28130   0.12580   0.97200   1.000
    C938    C    0.84450   0.71870   0.97200   1.000
    C939    C    0.87420   0.15550   0.97200   1.000
    C940    C    0.87420   0.71870   0.47200   1.000
    C941    C    0.28130   0.15550   0.47200   1.000
    C942    C    0.84450   0.12580   0.47200   1.000
    C943    C    0.71870   0.87420   0.02800   1.000
    C944    C    0.15550   0.28130   0.02800   1.000
    C945    C    0.12580   0.84450   0.02800   1.000
    C946    C    0.79247   0.61463   0.86133   1.000
    C947    C    0.38537   0.17783   0.86133   1.000
    C948    C    0.82217   0.20753   0.86133   1.000
    C949    C    0.94797   0.45913   0.30533   1.000
    C950    C    0.51117   0.05203   0.30533   1.000
    C951    C    0.54087   0.48883   0.30533   1.000
    C952    C    0.54087   0.05203   0.80533   1.000
    C953    C    0.94797   0.48883   0.80533   1.000
    C954    C    0.51117   0.45913   0.80533   1.000
    C955    C    0.38537   0.20753   0.36133   1.000
    C956    C    0.82217   0.61463   0.36133   1.000
    C957    C    0.79247   0.17783   0.36133   1.000
    C958    C    0.45913   0.94797   0.19467   1.000
    C959    C    0.05203   0.51117   0.19467   1.000
    C960    C    0.48883   0.54087   0.19467   1.000
    C961    C    0.61463   0.79247   0.63867   1.000
    C962    C    0.17783   0.38537   0.63867   1.000
    C963    C    0.20753   0.82217   0.63867   1.000
    C964    C    0.20753   0.38537   0.13867   1.000
    C965    C    0.61463   0.82217   0.13867   1.000
    C966    C    0.17783   0.79247   0.13867   1.000
    C967    C    0.05203   0.54087   0.69467   1.000
    C968    C    0.48883   0.94797   0.69467   1.000
    C969    C    0.45913   0.51117   0.69467   1.000
    H970    H    0.69340   0.80060   0.52660   1.000
    H971    H    0.19940   0.89280   0.52660   1.000
    H972    H    0.30660   0.10720   0.97340   1.000
    H973    H    0.80060   0.69340   0.97340   1.000
    H974    H    0.89280   0.19940   0.97340   1.000
    H975    H    0.89280   0.69340   0.47340   1.000
    H976    H    0.30660   0.19940   0.47340   1.000
    H977    H    0.80060   0.10720   0.47340   1.000
    H978    H    0.69340   0.89280   0.02660   1.000
    H979    H    0.19940   0.30660   0.02660   1.000
    H980    H    0.10720   0.80060   0.02660   1.000
    H981    H    0.77387   0.63993   0.85993   1.000
    H982    H    0.36007   0.13393   0.85993   1.000
    H983    H    0.86607   0.22613   0.85993   1.000
    H984    H    0.97327   0.44053   0.30673   1.000
    H985    H    0.46727   0.02673   0.30673   1.000
    H986    H    0.55947   0.53273   0.30673   1.000
    H987    H    0.55947   0.02673   0.80673   1.000
    H988    H    0.97327   0.53273   0.80673   1.000
    H989    H    0.46727   0.44053   0.80673   1.000
    H990    H    0.36007   0.22613   0.35993   1.000
    H991    H    0.86607   0.63993   0.35993   1.000
    H992    H    0.77387   0.13393   0.35993   1.000
    H993    H    0.44053   0.97327   0.19327   1.000
    H994    H    0.02673   0.46727   0.19327   1.000
    H995    H    0.53273   0.55947   0.19327   1.000
    H996    H    0.63993   0.77387   0.64007   1.000
    H997    H    0.13393   0.36007   0.64007   1.000
    H998    H    0.22613   0.86607   0.64007   1.000
    H999    H    0.22613   0.36007   0.14007   1.000
    H1000   H    0.63993   0.86607   0.14007   1.000
    H1001   H    0.13393   0.77387   0.14007   1.000
    H1002   H    0.02673   0.55947   0.69327   1.000
    H1003   H    0.53273   0.97327   0.69327   1.000
    H1004   H    0.44053   0.46727   0.69327   1.000
    C1005   C    0.77540   0.86400   0.53460   1.000
    C1006   C    0.13600   0.91140   0.53460   1.000
    C1007   C    0.22460   0.08860   0.96540   1.000
    C1008   C    0.86400   0.77540   0.96540   1.000
    C1009   C    0.91140   0.13600   0.96540   1.000
    C1010   C    0.91140   0.77540   0.46540   1.000
    C1011   C    0.22460   0.13600   0.46540   1.000
    C1012   C    0.86400   0.08860   0.46540   1.000
    C1013   C    0.77540   0.91140   0.03460   1.000
    C1014   C    0.13600   0.22460   0.03460   1.000
    C1015   C    0.08860   0.86400   0.03460   1.000
    C1016   C    0.75527   0.55793   0.86793   1.000
    C1017   C    0.44207   0.19733   0.86793   1.000
    C1018   C    0.80267   0.24473   0.86793   1.000
    C1019   C    0.89127   0.42193   0.29873   1.000
    C1020   C    0.53067   0.10873   0.29873   1.000
    C1021   C    0.57807   0.46933   0.29873   1.000
    C1022   C    0.57807   0.10873   0.79873   1.000
    C1023   C    0.89127   0.46933   0.79873   1.000
    C1024   C    0.53067   0.42193   0.79873   1.000
    C1025   C    0.44207   0.24473   0.36793   1.000
    C1026   C    0.80267   0.55793   0.36793   1.000
    C1027   C    0.75527   0.19733   0.36793   1.000
    C1028   C    0.42193   0.89127   0.20127   1.000
    C1029   C    0.10873   0.53067   0.20127   1.000
    C1030   C    0.46933   0.57807   0.20127   1.000
    C1031   C    0.55793   0.75527   0.63207   1.000
    C1032   C    0.19733   0.44207   0.63207   1.000
    C1033   C    0.24473   0.80267   0.63207   1.000
    C1034   C    0.24473   0.44207   0.13207   1.000
    C1035   C    0.55793   0.80267   0.13207   1.000
    C1036   C    0.19733   0.75527   0.13207   1.000
    C1037   C    0.10873   0.57807   0.70127   1.000
    C1038   C    0.46933   0.89127   0.70127   1.000
    C1039   C    0.42193   0.53067   0.70127   1.000
    H1040   H    0.78880   0.83600   0.53740   1.000
    H1041   H    0.16400   0.95280   0.53740   1.000
    H1042   H    0.21120   0.04720   0.96260   1.000
    H1043   H    0.83600   0.78880   0.96260   1.000
    H1044   H    0.95280   0.16400   0.96260   1.000
    H1045   H    0.95280   0.78880   0.46260   1.000
    H1046   H    0.21120   0.16400   0.46260   1.000
    H1047   H    0.83600   0.04720   0.46260   1.000
    H1048   H    0.78880   0.95280   0.03740   1.000
    H1049   H    0.16400   0.21120   0.03740   1.000
    H1050   H    0.04720   0.83600   0.03740   1.000
    H1051   H    0.71387   0.54453   0.87073   1.000
    H1052   H    0.45547   0.16933   0.87073   1.000
    H1053   H    0.83067   0.28613   0.87073   1.000
    H1054   H    0.87787   0.38053   0.29593   1.000
    H1055   H    0.50267   0.12213   0.29593   1.000
    H1056   H    0.61947   0.49733   0.29593   1.000
    H1057   H    0.61947   0.12213   0.79593   1.000
    H1058   H    0.87787   0.49733   0.79593   1.000
    H1059   H    0.50267   0.38053   0.79593   1.000
    H1060   H    0.45547   0.28613   0.37073   1.000
    H1061   H    0.83067   0.54453   0.37073   1.000
    H1062   H    0.71387   0.16933   0.37073   1.000
    H1063   H    0.38053   0.87787   0.20407   1.000
    H1064   H    0.12213   0.50267   0.20407   1.000
    H1065   H    0.49733   0.61947   0.20407   1.000
    H1066   H    0.54453   0.71387   0.62927   1.000
    H1067   H    0.16933   0.45547   0.62927   1.000
    H1068   H    0.28613   0.83067   0.62927   1.000
    H1069   H    0.28613   0.45547   0.12927   1.000
    H1070   H    0.54453   0.83067   0.12927   1.000
    H1071   H    0.16933   0.71387   0.12927   1.000
    H1072   H    0.12213   0.61947   0.70407   1.000
    H1073   H    0.49733   0.87787   0.70407   1.000
    H1074   H    0.38053   0.50267   0.70407   1.000
    C1075   C    0.65280   0.98470   0.52478   1.000
    C1076   C    0.01530   0.66810   0.52478   1.000
    C1077   C    0.34720   0.33190   0.97522   1.000
    C1078   C    0.98470   0.65280   0.97522   1.000
    C1079   C    0.66810   0.01530   0.97522   1.000
    C1080   C    0.66810   0.65280   0.47522   1.000
    C1081   C    0.34720   0.01530   0.47522   1.000
    C1082   C    0.98470   0.33190   0.47522   1.000
    C1083   C    0.65280   0.66810   0.02478   1.000
    C1084   C    0.01530   0.34720   0.02478   1.000
    C1085   C    0.33190   0.98470   0.02478   1.000
    C1086   C    0.99857   0.68053   0.85811   1.000
    C1087   C    0.31947   0.31803   0.85811   1.000
    C1088   C    0.68197   0.00143   0.85811   1.000
    C1089   C    0.01387   0.66523   0.30855   1.000
    C1090   C    0.65137   0.98613   0.30855   1.000
    C1091   C    0.33477   0.34863   0.30855   1.000
    C1092   C    0.33477   0.98613   0.80855   1.000
    C1093   C    0.01387   0.34863   0.80855   1.000
    C1094   C    0.65137   0.66523   0.80855   1.000
    C1095   C    0.31947   0.00143   0.35811   1.000
    C1096   C    0.68197   0.68053   0.35811   1.000
    C1097   C    0.99857   0.31803   0.35811   1.000
    C1098   C    0.66523   0.01387   0.19145   1.000
    C1099   C    0.98613   0.65137   0.19145   1.000
    C1100   C    0.34863   0.33477   0.19145   1.000
    C1101   C    0.68053   0.99857   0.64189   1.000
    C1102   C    0.31803   0.31947   0.64189   1.000
    C1103   C    0.00143   0.68197   0.64189   1.000
    C1104   C    0.00143   0.31947   0.14189   1.000
    C1105   C    0.68053   0.68197   0.14189   1.000
    C1106   C    0.31803   0.99857   0.14189   1.000
    C1107   C    0.98613   0.33477   0.69145   1.000
    C1108   C    0.34863   0.01387   0.69145   1.000
    C1109   C    0.66523   0.65137   0.69145   1.000
    C1110   C    0.64270   0.85100   0.51654   1.000
    C1111   C    0.14900   0.79170   0.51654   1.000
    C1112   C    0.35730   0.20830   0.98346   1.000
    C1113   C    0.85100   0.64270   0.98346   1.000
    C1114   C    0.79170   0.14900   0.98346   1.000
    C1115   C    0.79170   0.64270   0.48346   1.000
    C1116   C    0.35730   0.14900   0.48346   1.000
    C1117   C    0.85100   0.20830   0.48346   1.000
    C1118   C    0.64270   0.79170   0.01654   1.000
    C1119   C    0.14900   0.35730   0.01654   1.000
    C1120   C    0.20830   0.85100   0.01654   1.000
    C1121   C    0.87497   0.69063   0.84987   1.000
    C1122   C    0.30937   0.18433   0.84987   1.000
    C1123   C    0.81567   0.12503   0.84987   1.000
    C1124   C    0.02397   0.54163   0.31679   1.000
    C1125   C    0.51767   0.97603   0.31679   1.000
    C1126   C    0.45837   0.48233   0.31679   1.000
    C1127   C    0.45837   0.97603   0.81679   1.000
    C1128   C    0.02397   0.48233   0.81679   1.000
    C1129   C    0.51767   0.54163   0.81679   1.000
    C1130   C    0.30937   0.12503   0.34987   1.000
    C1131   C    0.81567   0.69063   0.34987   1.000
    C1132   C    0.87497   0.18433   0.34987   1.000
    C1133   C    0.54163   0.02397   0.18321   1.000
    C1134   C    0.97603   0.51767   0.18321   1.000
    C1135   C    0.48233   0.45837   0.18321   1.000
    C1136   C    0.69063   0.87497   0.65013   1.000
    C1137   C    0.18433   0.30937   0.65013   1.000
    C1138   C    0.12503   0.81567   0.65013   1.000
    C1139   C    0.12503   0.30937   0.15013   1.000
    C1140   C    0.69063   0.81567   0.15013   1.000
    C1141   C    0.18433   0.87497   0.15013   1.000
    C1142   C    0.97603   0.45837   0.68321   1.000
    C1143   C    0.48233   0.02397   0.68321   1.000
    C1144   C    0.54163   0.51767   0.68321   1.000
    C1145   C    0.60030   0.87620   0.51548   1.000
    C1146   C    0.12380   0.72410   0.51548   1.000
    C1147   C    0.39970   0.27590   0.98452   1.000
    C1148   C    0.87620   0.60030   0.98452   1.000
    C1149   C    0.72410   0.12380   0.98452   1.000
    C1150   C    0.72410   0.60030   0.48452   1.000
    C1151   C    0.39970   0.12380   0.48452   1.000
    C1152   C    0.87620   0.27590   0.48452   1.000
    C1153   C    0.60030   0.72410   0.01548   1.000
    C1154   C    0.12380   0.39970   0.01548   1.000
    C1155   C    0.27590   0.87620   0.01548   1.000
    C1156   C    0.94257   0.73303   0.84881   1.000
    C1157   C    0.26697   0.20953   0.84881   1.000
    C1158   C    0.79047   0.05743   0.84881   1.000
    C1159   C    0.06637   0.60923   0.31785   1.000
    C1160   C    0.54287   0.93363   0.31785   1.000
    C1161   C    0.39077   0.45713   0.31785   1.000
    C1162   C    0.39077   0.93363   0.81785   1.000
    C1163   C    0.06637   0.45713   0.81785   1.000
    C1164   C    0.54287   0.60923   0.81785   1.000
    C1165   C    0.26697   0.05743   0.34881   1.000
    C1166   C    0.79047   0.73303   0.34881   1.000
    C1167   C    0.94257   0.20953   0.34881   1.000
    C1168   C    0.60923   0.06637   0.18215   1.000
    C1169   C    0.93363   0.54287   0.18215   1.000
    C1170   C    0.45713   0.39077   0.18215   1.000
    C1171   C    0.73303   0.94257   0.65119   1.000
    C1172   C    0.20953   0.26697   0.65119   1.000
    C1173   C    0.05743   0.79047   0.65119   1.000
    C1174   C    0.05743   0.26697   0.15119   1.000
    C1175   C    0.73303   0.79047   0.15119   1.000
    C1176   C    0.20953   0.94257   0.15119   1.000
    C1177   C    0.93363   0.39077   0.68215   1.000
    C1178   C    0.45713   0.06637   0.68215   1.000
    C1179   C    0.60923   0.54287   0.68215   1.000
    C1180   C    0.54710   0.84830   0.50836   1.000
    C1181   C    0.15170   0.69880   0.50836   1.000
    C1182   C    0.45290   0.30120   0.99164   1.000
    C1183   C    0.84830   0.54710   0.99164   1.000
    C1184   C    0.69880   0.15170   0.99164   1.000
    C1185   C    0.69880   0.54710   0.49164   1.000
    C1186   C    0.45290   0.15170   0.49164   1.000
    C1187   C    0.84830   0.30120   0.49164   1.000
    C1188   C    0.54710   0.69880   0.00836   1.000
    C1189   C    0.15170   0.45290   0.00836   1.000
    C1190   C    0.30120   0.84830   0.00836   1.000
    C1191   C    0.96787   0.78623   0.84169   1.000
    C1192   C    0.21377   0.18163   0.84169   1.000
    C1193   C    0.81837   0.03213   0.84169   1.000
    C1194   C    0.11957   0.63453   0.32497   1.000
    C1195   C    0.51497   0.88043   0.32497   1.000
    C1196   C    0.36547   0.48503   0.32497   1.000
    C1197   C    0.36547   0.88043   0.82497   1.000
    C1198   C    0.11957   0.48503   0.82497   1.000
    C1199   C    0.51497   0.63453   0.82497   1.000
    C1200   C    0.21377   0.03213   0.34169   1.000
    C1201   C    0.81837   0.78623   0.34169   1.000
    C1202   C    0.96787   0.18163   0.34169   1.000
    C1203   C    0.63453   0.11957   0.17503   1.000
    C1204   C    0.88043   0.51497   0.17503   1.000
    C1205   C    0.48503   0.36547   0.17503   1.000
    C1206   C    0.78623   0.96787   0.65831   1.000
    C1207   C    0.18163   0.21377   0.65831   1.000
    C1208   C    0.03213   0.81837   0.65831   1.000
    C1209   C    0.03213   0.21377   0.15831   1.000
    C1210   C    0.78623   0.81837   0.15831   1.000
    C1211   C    0.18163   0.96787   0.15831   1.000
    C1212   C    0.88043   0.36547   0.67503   1.000
    C1213   C    0.48503   0.11957   0.67503   1.000
    C1214   C    0.63453   0.51497   0.67503   1.000
    H1215   H    0.51940   0.86480   0.50770   1.000
    H1216   H    0.13520   0.65460   0.50770   1.000
    H1217   H    0.48060   0.34540   0.99230   1.000
    H1218   H    0.86480   0.51940   0.99230   1.000
    H1219   H    0.65460   0.13520   0.99230   1.000
    H1220   H    0.65460   0.51940   0.49230   1.000
    H1221   H    0.48060   0.13520   0.49230   1.000
    H1222   H    0.86480   0.34540   0.49230   1.000
    H1223   H    0.51940   0.65460   0.00770   1.000
    H1224   H    0.13520   0.48060   0.00770   1.000
    H1225   H    0.34540   0.86480   0.00770   1.000
    H1226   H    0.01207   0.81393   0.84103   1.000
    H1227   H    0.18607   0.19813   0.84103   1.000
    H1228   H    0.80187   0.98793   0.84103   1.000
    H1229   H    0.14727   0.67873   0.32563   1.000
    H1230   H    0.53147   0.85273   0.32563   1.000
    H1231   H    0.32127   0.46853   0.32563   1.000
    H1232   H    0.32127   0.85273   0.82563   1.000
    H1233   H    0.14727   0.46853   0.82563   1.000
    H1234   H    0.53147   0.67873   0.82563   1.000
    H1235   H    0.18607   0.98793   0.34103   1.000
    H1236   H    0.80187   0.81393   0.34103   1.000
    H1237   H    0.01207   0.19813   0.34103   1.000
    H1238   H    0.67873   0.14727   0.17437   1.000
    H1239   H    0.85273   0.53147   0.17437   1.000
    H1240   H    0.46853   0.32127   0.17437   1.000
    H1241   H    0.81393   0.01207   0.65897   1.000
    H1242   H    0.19813   0.18607   0.65897   1.000
    H1243   H    0.98793   0.80187   0.65897   1.000
    H1244   H    0.98793   0.18607   0.15897   1.000
    H1245   H    0.81393   0.80187   0.15897   1.000
    H1246   H    0.19813   0.01207   0.15897   1.000
    H1247   H    0.85273   0.32127   0.67437   1.000
    H1248   H    0.46853   0.14727   0.67437   1.000
    H1249   H    0.67873   0.53147   0.67437   1.000
    C1250   C    0.53650   0.79280   0.50206   1.000
    C1251   C    0.20720   0.74370   0.50206   1.000
    C1252   C    0.46350   0.25630   0.99794   1.000
    C1253   C    0.79280   0.53650   0.99794   1.000
    C1254   C    0.74370   0.20720   0.99794   1.000
    C1255   C    0.74370   0.53650   0.49794   1.000
    C1256   C    0.46350   0.20720   0.49794   1.000
    C1257   C    0.79280   0.25630   0.49794   1.000
    C1258   C    0.53650   0.74370   0.00206   1.000
    C1259   C    0.20720   0.46350   0.00206   1.000
    C1260   C    0.25630   0.79280   0.00206   1.000
    C1261   C    0.92297   0.79683   0.83539   1.000
    C1262   C    0.20317   0.12613   0.83539   1.000
    C1263   C    0.87387   0.07703   0.83539   1.000
    C1264   C    0.13017   0.58963   0.33127   1.000
    C1265   C    0.45947   0.86983   0.33127   1.000
    C1266   C    0.41037   0.54053   0.33127   1.000
    C1267   C    0.41037   0.86983   0.83127   1.000
    C1268   C    0.13017   0.54053   0.83127   1.000
    C1269   C    0.45947   0.58963   0.83127   1.000
    C1270   C    0.20317   0.07703   0.33539   1.000
    C1271   C    0.87387   0.79683   0.33539   1.000
    C1272   C    0.92297   0.12613   0.33539   1.000
    C1273   C    0.58963   0.13017   0.16873   1.000
    C1274   C    0.86983   0.45947   0.16873   1.000
    C1275   C    0.54053   0.41037   0.16873   1.000
    C1276   C    0.79683   0.92297   0.66461   1.000
    C1277   C    0.12613   0.20317   0.66461   1.000
    C1278   C    0.07703   0.87387   0.66461   1.000
    C1279   C    0.07703   0.20317   0.16461   1.000
    C1280   C    0.79683   0.87387   0.16461   1.000
    C1281   C    0.12613   0.92297   0.16461   1.000
    C1282   C    0.86983   0.41037   0.66873   1.000
    C1283   C    0.54053   0.13017   0.66873   1.000
    C1284   C    0.58963   0.45947   0.66873   1.000
    C1285   C    0.58150   0.77270   0.50200   1.000
    C1286   C    0.22730   0.80880   0.50200   1.000
    C1287   C    0.41850   0.19120   0.99800   1.000
    C1288   C    0.77270   0.58150   0.99800   1.000
    C1289   C    0.80880   0.22730   0.99800   1.000
    C1290   C    0.80880   0.58150   0.49800   1.000
    C1291   C    0.41850   0.22730   0.49800   1.000
    C1292   C    0.77270   0.19120   0.49800   1.000
    C1293   C    0.58150   0.80880   0.00200   1.000
    C1294   C    0.22730   0.41850   0.00200   1.000
    C1295   C    0.19120   0.77270   0.00200   1.000
    C1296   C    0.85787   0.75183   0.83533   1.000
    C1297   C    0.24817   0.10603   0.83533   1.000
    C1298   C    0.89397   0.14213   0.83533   1.000
    C1299   C    0.08517   0.52453   0.33133   1.000
    C1300   C    0.43937   0.91483   0.33133   1.000
    C1301   C    0.47547   0.56063   0.33133   1.000
    C1302   C    0.47547   0.91483   0.83133   1.000
    C1303   C    0.08517   0.56063   0.83133   1.000
    C1304   C    0.43937   0.52453   0.83133   1.000
    C1305   C    0.24817   0.14213   0.33533   1.000
    C1306   C    0.89397   0.75183   0.33533   1.000
    C1307   C    0.85787   0.10603   0.33533   1.000
    C1308   C    0.52453   0.08517   0.16867   1.000
    C1309   C    0.91483   0.43937   0.16867   1.000
    C1310   C    0.56063   0.47547   0.16867   1.000
    C1311   C    0.75183   0.85787   0.66467   1.000
    C1312   C    0.10603   0.24817   0.66467   1.000
    C1313   C    0.14213   0.89397   0.66467   1.000
    C1314   C    0.14213   0.24817   0.16467   1.000
    C1315   C    0.75183   0.89397   0.16467   1.000
    C1316   C    0.10603   0.85787   0.16467   1.000
    C1317   C    0.91483   0.47547   0.66867   1.000
    C1318   C    0.56063   0.08517   0.66867   1.000
    C1319   C    0.52453   0.43937   0.66867   1.000
    H1320   H    0.57300   0.73640   0.49750   1.000
    H1321   H    0.26360   0.83660   0.49750   1.000
    H1322   H    0.42700   0.16340   0.00250   1.000
    H1323   H    0.73640   0.57300   0.00250   1.000
    H1324   H    0.83660   0.26360   0.00250   1.000
    H1325   H    0.83660   0.57300   0.50250   1.000
    H1326   H    0.42700   0.26360   0.50250   1.000
    H1327   H    0.73640   0.16340   0.50250   1.000
    H1328   H    0.57300   0.83660   0.99750   1.000
    H1329   H    0.26360   0.42700   0.99750   1.000
    H1330   H    0.16340   0.73640   0.99750   1.000
    H1331   H    0.83007   0.76033   0.83083   1.000
    H1332   H    0.23967   0.06973   0.83083   1.000
    H1333   H    0.93027   0.16993   0.83083   1.000
    H1334   H    0.09367   0.49673   0.33583   1.000
    H1335   H    0.40307   0.90633   0.33583   1.000
    H1336   H    0.50327   0.59693   0.33583   1.000
    H1337   H    0.50327   0.90633   0.83583   1.000
    H1338   H    0.09367   0.59693   0.83583   1.000
    H1339   H    0.40307   0.49673   0.83583   1.000
    H1340   H    0.23967   0.16993   0.33083   1.000
    H1341   H    0.93027   0.76033   0.33083   1.000
    H1342   H    0.83007   0.06973   0.33083   1.000
    H1343   H    0.49673   0.09367   0.16417   1.000
    H1344   H    0.90633   0.40307   0.16417   1.000
    H1345   H    0.59693   0.50327   0.16417   1.000
    H1346   H    0.76033   0.83007   0.66917   1.000
    H1347   H    0.06973   0.23967   0.66917   1.000
    H1348   H    0.16993   0.93027   0.66917   1.000
    H1349   H    0.16993   0.23967   0.16917   1.000
    H1350   H    0.76033   0.93027   0.16917   1.000
    H1351   H    0.06973   0.83007   0.16917   1.000
    H1352   H    0.90633   0.50327   0.66417   1.000
    H1353   H    0.59693   0.09367   0.66417   1.000
    H1354   H    0.49673   0.40307   0.66417   1.000
    C1355   C    0.63340   0.80160   0.50780   1.000
    C1356   C    0.19840   0.83180   0.50780   1.000
    C1357   C    0.36660   0.16820   0.99220   1.000
    C1358   C    0.80160   0.63340   0.99220   1.000
    C1359   C    0.83180   0.19840   0.99220   1.000
    C1360   C    0.83180   0.63340   0.49220   1.000
    C1361   C    0.36660   0.19840   0.49220   1.000
    C1362   C    0.80160   0.16820   0.49220   1.000
    C1363   C    0.63340   0.83180   0.00780   1.000
    C1364   C    0.19840   0.36660   0.00780   1.000
    C1365   C    0.16820   0.80160   0.00780   1.000
    C1366   C    0.83487   0.69993   0.84113   1.000
    C1367   C    0.30007   0.13493   0.84113   1.000
    C1368   C    0.86507   0.16513   0.84113   1.000
    C1369   C    0.03327   0.50153   0.32553   1.000
    C1370   C    0.46827   0.96673   0.32553   1.000
    C1371   C    0.49847   0.53173   0.32553   1.000
    C1372   C    0.49847   0.96673   0.82553   1.000
    C1373   C    0.03327   0.53173   0.82553   1.000
    C1374   C    0.46827   0.50153   0.82553   1.000
    C1375   C    0.30007   0.16513   0.34113   1.000
    C1376   C    0.86507   0.69993   0.34113   1.000
    C1377   C    0.83487   0.13493   0.34113   1.000
    C1378   C    0.50153   0.03327   0.17447   1.000
    C1379   C    0.96673   0.46827   0.17447   1.000
    C1380   C    0.53173   0.49847   0.17447   1.000
    C1381   C    0.69993   0.83487   0.65887   1.000
    C1382   C    0.13493   0.30007   0.65887   1.000
    C1383   C    0.16513   0.86507   0.65887   1.000
    C1384   C    0.16513   0.30007   0.15887   1.000
    C1385   C    0.69993   0.86507   0.15887   1.000
    C1386   C    0.13493   0.83487   0.15887   1.000
    C1387   C    0.96673   0.49847   0.67447   1.000
    C1388   C    0.53173   0.03327   0.67447   1.000
    C1389   C    0.50153   0.46827   0.67447   1.000
    H1390   H    0.66580   0.79160   0.50650   1.000
    H1391   H    0.20840   0.87420   0.50650   1.000
    H1392   H    0.33420   0.12580   0.99350   1.000
    H1393   H    0.79160   0.66580   0.99350   1.000
    H1394   H    0.87420   0.20840   0.99350   1.000
    H1395   H    0.87420   0.66580   0.49350   1.000
    H1396   H    0.33420   0.20840   0.49350   1.000
    H1397   H    0.79160   0.12580   0.49350   1.000
    H1398   H    0.66580   0.87420   0.00650   1.000
    H1399   H    0.20840   0.33420   0.00650   1.000
    H1400   H    0.12580   0.79160   0.00650   1.000
    H1401   H    0.79247   0.66753   0.83983   1.000
    H1402   H    0.33247   0.12493   0.83983   1.000
    H1403   H    0.87507   0.20753   0.83983   1.000
    H1404   H    0.00087   0.45913   0.32683   1.000
    H1405   H    0.45827   0.99913   0.32683   1.000
    H1406   H    0.54087   0.54173   0.32683   1.000
    H1407   H    0.54087   0.99913   0.82683   1.000
    H1408   H    0.00087   0.54173   0.82683   1.000
    H1409   H    0.45827   0.45913   0.82683   1.000
    H1410   H    0.33247   0.20753   0.33983   1.000
    H1411   H    0.87507   0.66753   0.33983   1.000
    H1412   H    0.79247   0.12493   0.33983   1.000
    H1413   H    0.45913   0.00087   0.17317   1.000
    H1414   H    0.99913   0.45827   0.17317   1.000
    H1415   H    0.54173   0.54087   0.17317   1.000
    H1416   H    0.66753   0.79247   0.66017   1.000
    H1417   H    0.12493   0.33247   0.66017   1.000
    H1418   H    0.20753   0.87507   0.66017   1.000
    H1419   H    0.20753   0.33247   0.16017   1.000
    H1420   H    0.66753   0.87507   0.16017   1.000
    H1421   H    0.12493   0.79247   0.16017   1.000
    H1422   H    0.99913   0.54087   0.67317   1.000
    H1423   H    0.54173   0.00087   0.67317   1.000
    H1424   H    0.45913   0.45827   0.67317   1.000
    C1425   C    0.47200   0.76130   0.49590   1.000
    C1426   C    0.23870   0.71070   0.49590   1.000
    C1427   C    0.52800   0.28930   0.00410   1.000
    C1428   C    0.76130   0.47200   0.00410   1.000
    C1429   C    0.71070   0.23870   0.00410   1.000
    C1430   C    0.71070   0.47200   0.50410   1.000
    C1431   C    0.52800   0.23870   0.50410   1.000
    C1432   C    0.76130   0.28930   0.50410   1.000
    C1433   C    0.47200   0.71070   0.99590   1.000
    C1434   C    0.23870   0.52800   0.99590   1.000
    C1435   C    0.28930   0.76130   0.99590   1.000
    C1436   C    0.95597   0.86133   0.82923   1.000
    C1437   C    0.13867   0.09463   0.82923   1.000
    C1438   C    0.90537   0.04403   0.82923   1.000
    C1439   C    0.19467   0.62263   0.33743   1.000
    C1440   C    0.42797   0.80533   0.33743   1.000
    C1441   C    0.37737   0.57203   0.33743   1.000
    C1442   C    0.37737   0.80533   0.83743   1.000
    C1443   C    0.19467   0.57203   0.83743   1.000
    C1444   C    0.42797   0.62263   0.83743   1.000
    C1445   C    0.13867   0.04403   0.32923   1.000
    C1446   C    0.90537   0.86133   0.32923   1.000
    C1447   C    0.95597   0.09463   0.32923   1.000
    C1448   C    0.62263   0.19467   0.16257   1.000
    C1449   C    0.80533   0.42797   0.16257   1.000
    C1450   C    0.57203   0.37737   0.16257   1.000
    C1451   C    0.86133   0.95597   0.67077   1.000
    C1452   C    0.09463   0.13867   0.67077   1.000
    C1453   C    0.04403   0.90537   0.67077   1.000
    C1454   C    0.04403   0.13867   0.17077   1.000
    C1455   C    0.86133   0.90537   0.17077   1.000
    C1456   C    0.09463   0.95597   0.17077   1.000
    C1457   C    0.80533   0.37737   0.66257   1.000
    C1458   C    0.57203   0.19467   0.66257   1.000
    C1459   C    0.62263   0.42797   0.66257   1.000
    C1460   C    0.20070   0.59880   0.46170   1.000
    C1461   C    0.40120   0.60190   0.46170   1.000
    C1462   C    0.79930   0.39810   0.03830   1.000
    C1463   C    0.59880   0.20070   0.03830   1.000
    C1464   C    0.60190   0.40120   0.03830   1.000
    C1465   C    0.60190   0.20070   0.53830   1.000
    C1466   C    0.79930   0.40120   0.53830   1.000
    C1467   C    0.59880   0.39810   0.53830   1.000
    C1468   C    0.20070   0.60190   0.96170   1.000
    C1469   C    0.40120   0.79930   0.96170   1.000
    C1470   C    0.39810   0.59880   0.96170   1.000
    C1471   C    0.06477   0.13263   0.79503   1.000
    C1472   C    0.86737   0.93213   0.79503   1.000
    C1473   C    0.06787   0.93523   0.79503   1.000
    C1474   C    0.46597   0.73143   0.37163   1.000
    C1475   C    0.26547   0.53403   0.37163   1.000
    C1476   C    0.26857   0.73453   0.37163   1.000
    C1477   C    0.26857   0.53403   0.87163   1.000
    C1478   C    0.46597   0.73453   0.87163   1.000
    C1479   C    0.26547   0.73143   0.87163   1.000
    C1480   C    0.86737   0.93523   0.29503   1.000
    C1481   C    0.06787   0.13263   0.29503   1.000
    C1482   C    0.06477   0.93213   0.29503   1.000
    C1483   C    0.73143   0.46597   0.12837   1.000
    C1484   C    0.53403   0.26547   0.12837   1.000
    C1485   C    0.73453   0.26857   0.12837   1.000
    C1486   C    0.13263   0.06477   0.70497   1.000
    C1487   C    0.93213   0.86737   0.70497   1.000
    C1488   C    0.93523   0.06787   0.70497   1.000
    C1489   C    0.93523   0.86737   0.20497   1.000
    C1490   C    0.13263   0.06787   0.20497   1.000
    C1491   C    0.93213   0.06477   0.20497   1.000
    C1492   C    0.53403   0.26857   0.62837   1.000
    C1493   C    0.73453   0.46597   0.62837   1.000
    C1494   C    0.73143   0.26547   0.62837   1.000
    C1495   C    0.13940   0.57090   0.45471   1.000
    C1496   C    0.42910   0.56850   0.45471   1.000
    C1497   C    0.86060   0.43150   0.04529   1.000
    C1498   C    0.57090   0.13940   0.04529   1.000
    C1499   C    0.56850   0.42910   0.04529   1.000
    C1500   C    0.56850   0.13940   0.54529   1.000
    C1501   C    0.86060   0.42910   0.54529   1.000
    C1502   C    0.57090   0.43150   0.54529   1.000
    C1503   C    0.13940   0.56850   0.95471   1.000
    C1504   C    0.42910   0.86060   0.95471   1.000
    C1505   C    0.43150   0.57090   0.95471   1.000
    C1506   C    0.09817   0.19393   0.78804   1.000
    C1507   C    0.80607   0.90423   0.78804   1.000
    C1508   C    0.09577   0.90183   0.78804   1.000
    C1509   C    0.52727   0.76483   0.37862   1.000
    C1510   C    0.23757   0.47273   0.37862   1.000
    C1511   C    0.23517   0.76243   0.37862   1.000
    C1512   C    0.23517   0.47273   0.87862   1.000
    C1513   C    0.52727   0.76243   0.87862   1.000
    C1514   C    0.23757   0.76483   0.87862   1.000
    C1515   C    0.80607   0.90183   0.28804   1.000
    C1516   C    0.09577   0.19393   0.28804   1.000
    C1517   C    0.09817   0.90423   0.28804   1.000
    C1518   C    0.76483   0.52727   0.12138   1.000
    C1519   C    0.47273   0.23757   0.12138   1.000
    C1520   C    0.76243   0.23517   0.12138   1.000
    C1521   C    0.19393   0.09817   0.71196   1.000
    C1522   C    0.90423   0.80607   0.71196   1.000
    C1523   C    0.90183   0.09577   0.71196   1.000
    C1524   C    0.90183   0.80607   0.21196   1.000
    C1525   C    0.19393   0.09577   0.21196   1.000
    C1526   C    0.90423   0.09817   0.21196   1.000
    C1527   C    0.47273   0.23517   0.62138   1.000
    C1528   C    0.76243   0.52727   0.62138   1.000
    C1529   C    0.76483   0.23757   0.62138   1.000
    C1530   C    0.14260   0.60040   0.44407   1.000
    C1531   C    0.39960   0.54220   0.44407   1.000
    C1532   C    0.85740   0.45780   0.05593   1.000
    C1533   C    0.60040   0.14260   0.05593   1.000
    C1534   C    0.54220   0.39960   0.05593   1.000
    C1535   C    0.54220   0.14260   0.55593   1.000
    C1536   C    0.85740   0.39960   0.55593   1.000
    C1537   C    0.60040   0.45780   0.55593   1.000
    C1538   C    0.14260   0.54220   0.94407   1.000
    C1539   C    0.39960   0.85740   0.94407   1.000
    C1540   C    0.45780   0.60040   0.94407   1.000
    C1541   C    0.12447   0.19073   0.77740   1.000
    C1542   C    0.80927   0.93373   0.77740   1.000
    C1543   C    0.06627   0.87553   0.77740   1.000
    C1544   C    0.52407   0.79113   0.38926   1.000
    C1545   C    0.26707   0.47593   0.38926   1.000
    C1546   C    0.20887   0.73293   0.38926   1.000
    C1547   C    0.20887   0.47593   0.88926   1.000
    C1548   C    0.52407   0.73293   0.88926   1.000
    C1549   C    0.26707   0.79113   0.88926   1.000
    C1550   C    0.80927   0.87553   0.27740   1.000
    C1551   C    0.06627   0.19073   0.27740   1.000
    C1552   C    0.12447   0.93373   0.27740   1.000
    C1553   C    0.79113   0.52407   0.11074   1.000
    C1554   C    0.47593   0.26707   0.11074   1.000
    C1555   C    0.73293   0.20887   0.11074   1.000
    C1556   C    0.19073   0.12447   0.72260   1.000
    C1557   C    0.93373   0.80927   0.72260   1.000
    C1558   C    0.87553   0.06627   0.72260   1.000
    C1559   C    0.87553   0.80927   0.22260   1.000
    C1560   C    0.19073   0.06627   0.22260   1.000
    C1561   C    0.93373   0.12447   0.22260   1.000
    C1562   C    0.47593   0.20887   0.61074   1.000
    C1563   C    0.73293   0.52407   0.61074   1.000
    C1564   C    0.79113   0.26707   0.61074   1.000
    H1565   H    0.18080   0.63500   0.44120   1.000
    H1566   H    0.36500   0.54580   0.44120   1.000
    H1567   H    0.81920   0.45420   0.05880   1.000
    H1568   H    0.63500   0.18080   0.05880   1.000
    H1569   H    0.54580   0.36500   0.05880   1.000
    H1570   H    0.54580   0.18080   0.55880   1.000
    H1571   H    0.81920   0.36500   0.55880   1.000
    H1572   H    0.63500   0.45420   0.55880   1.000
    H1573   H    0.18080   0.54580   0.94120   1.000
    H1574   H    0.36500   0.81920   0.94120   1.000
    H1575   H    0.45420   0.63500   0.94120   1.000
    H1576   H    0.12087   0.15253   0.77453   1.000
    H1577   H    0.84747   0.96833   0.77453   1.000
    H1578   H    0.03167   0.87913   0.77453   1.000
    H1579   H    0.48587   0.78753   0.39213   1.000
    H1580   H    0.30167   0.51413   0.39213   1.000
    H1581   H    0.21247   0.69833   0.39213   1.000
    H1582   H    0.21247   0.51413   0.89213   1.000
    H1583   H    0.48587   0.69833   0.89213   1.000
    H1584   H    0.30167   0.78753   0.89213   1.000
    H1585   H    0.84747   0.87913   0.27453   1.000
    H1586   H    0.03167   0.15253   0.27453   1.000
    H1587   H    0.12087   0.96833   0.27453   1.000
    H1588   H    0.78753   0.48587   0.10787   1.000
    H1589   H    0.51413   0.30167   0.10787   1.000
    H1590   H    0.69833   0.21247   0.10787   1.000
    H1591   H    0.15253   0.12087   0.72547   1.000
    H1592   H    0.96833   0.84747   0.72547   1.000
    H1593   H    0.87913   0.03167   0.72547   1.000
    H1594   H    0.87913   0.84747   0.22547   1.000
    H1595   H    0.15253   0.03167   0.22547   1.000
    H1596   H    0.96833   0.12087   0.22547   1.000
    H1597   H    0.51413   0.21247   0.60787   1.000
    H1598   H    0.69833   0.48587   0.60787   1.000
    H1599   H    0.78753   0.30167   0.60787   1.000
    C1600   C    0.08430   0.57520   0.43760   1.000
    C1601   C    0.42480   0.50910   0.43760   1.000
    C1602   C    0.91570   0.49090   0.06240   1.000
    C1603   C    0.57520   0.08430   0.06240   1.000
    C1604   C    0.50910   0.42480   0.06240   1.000
    C1605   C    0.50910   0.08430   0.56240   1.000
    C1606   C    0.91570   0.42480   0.56240   1.000
    C1607   C    0.57520   0.49090   0.56240   1.000
    C1608   C    0.08430   0.50910   0.93760   1.000
    C1609   C    0.42480   0.91570   0.93760   1.000
    C1610   C    0.49090   0.57520   0.93760   1.000
    C1611   C    0.15757   0.24903   0.77093   1.000
    C1612   C    0.75097   0.90853   0.77093   1.000
    C1613   C    0.09147   0.84243   0.77093   1.000
    C1614   C    0.58237   0.82423   0.39573   1.000
    C1615   C    0.24187   0.41763   0.39573   1.000
    C1616   C    0.17577   0.75813   0.39573   1.000
    C1617   C    0.17577   0.41763   0.89573   1.000
    C1618   C    0.58237   0.75813   0.89573   1.000
    C1619   C    0.24187   0.82423   0.89573   1.000
    C1620   C    0.75097   0.84243   0.27093   1.000
    C1621   C    0.09147   0.24903   0.27093   1.000
    C1622   C    0.15757   0.90853   0.27093   1.000
    C1623   C    0.82423   0.58237   0.10427   1.000
    C1624   C    0.41763   0.24187   0.10427   1.000
    C1625   C    0.75813   0.17577   0.10427   1.000
    C1626   C    0.24903   0.15757   0.72907   1.000
    C1627   C    0.90853   0.75097   0.72907   1.000
    C1628   C    0.84243   0.09147   0.72907   1.000
    C1629   C    0.84243   0.75097   0.22907   1.000
    C1630   C    0.24903   0.09147   0.22907   1.000
    C1631   C    0.90853   0.15757   0.22907   1.000
    C1632   C    0.41763   0.17577   0.60427   1.000
    C1633   C    0.75813   0.58237   0.60427   1.000
    C1634   C    0.82423   0.24187   0.60427   1.000
    C1635   C    0.02970   0.52270   0.44147   1.000
    C1636   C    0.47730   0.50700   0.44147   1.000
    C1637   C    0.97030   0.49300   0.05853   1.000
    C1638   C    0.52270   0.02970   0.05853   1.000
    C1639   C    0.50700   0.47730   0.05853   1.000
    C1640   C    0.50700   0.02970   0.55853   1.000
    C1641   C    0.97030   0.47730   0.55853   1.000
    C1642   C    0.52270   0.49300   0.55853   1.000
    C1643   C    0.02970   0.50700   0.94147   1.000
    C1644   C    0.47730   0.97030   0.94147   1.000
    C1645   C    0.49300   0.52270   0.94147   1.000
    C1646   C    0.15967   0.30363   0.77480   1.000
    C1647   C    0.69637   0.85603   0.77480   1.000
    C1648   C    0.14397   0.84033   0.77480   1.000
    C1649   C    0.63697   0.82633   0.39186   1.000
    C1650   C    0.18937   0.36303   0.39186   1.000
    C1651   C    0.17367   0.81063   0.39186   1.000
    C1652   C    0.17367   0.36303   0.89186   1.000
    C1653   C    0.63697   0.81063   0.89186   1.000
    C1654   C    0.18937   0.82633   0.89186   1.000
    C1655   C    0.69637   0.84033   0.27480   1.000
    C1656   C    0.14397   0.30363   0.27480   1.000
    C1657   C    0.15967   0.85603   0.27480   1.000
    C1658   C    0.82633   0.63697   0.10814   1.000
    C1659   C    0.36303   0.18937   0.10814   1.000
    C1660   C    0.81063   0.17367   0.10814   1.000
    C1661   C    0.30363   0.15967   0.72520   1.000
    C1662   C    0.85603   0.69637   0.72520   1.000
    C1663   C    0.84033   0.14397   0.72520   1.000
    C1664   C    0.84033   0.69637   0.22520   1.000
    C1665   C    0.30363   0.14397   0.22520   1.000
    C1666   C    0.85603   0.15967   0.22520   1.000
    C1667   C    0.36303   0.17367   0.60814   1.000
    C1668   C    0.81063   0.63697   0.60814   1.000
    C1669   C    0.82633   0.18937   0.60814   1.000
    C1670   C    0.03140   0.49690   0.45156   1.000
    C1671   C    0.50310   0.53450   0.45156   1.000
    C1672   C    0.96860   0.46550   0.04844   1.000
    C1673   C    0.49690   0.03140   0.04844   1.000
    C1674   C    0.53450   0.50310   0.04844   1.000
    C1675   C    0.53450   0.03140   0.54844   1.000
    C1676   C    0.96860   0.50310   0.54844   1.000
    C1677   C    0.49690   0.46550   0.54844   1.000
    C1678   C    0.03140   0.53450   0.95156   1.000
    C1679   C    0.50310   0.96860   0.95156   1.000
    C1680   C    0.46550   0.49690   0.95156   1.000
    C1681   C    0.13217   0.30193   0.78489   1.000
    C1682   C    0.69807   0.83023   0.78489   1.000
    C1683   C    0.16977   0.86783   0.78489   1.000
    C1684   C    0.63527   0.79883   0.38177   1.000
    C1685   C    0.16357   0.36473   0.38177   1.000
    C1686   C    0.20117   0.83643   0.38177   1.000
    C1687   C    0.20117   0.36473   0.88177   1.000
    C1688   C    0.63527   0.83643   0.88177   1.000
    C1689   C    0.16357   0.79883   0.88177   1.000
    C1690   C    0.69807   0.86783   0.28489   1.000
    C1691   C    0.16977   0.30193   0.28489   1.000
    C1692   C    0.13217   0.83023   0.28489   1.000
    C1693   C    0.79883   0.63527   0.11823   1.000
    C1694   C    0.36473   0.16357   0.11823   1.000
    C1695   C    0.83643   0.20117   0.11823   1.000
    C1696   C    0.30193   0.13217   0.71511   1.000
    C1697   C    0.83023   0.69807   0.71511   1.000
    C1698   C    0.86783   0.16977   0.71511   1.000
    C1699   C    0.86783   0.69807   0.21511   1.000
    C1700   C    0.30193   0.16977   0.21511   1.000
    C1701   C    0.83023   0.13217   0.21511   1.000
    C1702   C    0.36473   0.20117   0.61823   1.000
    C1703   C    0.83643   0.63527   0.61823   1.000
    C1704   C    0.79883   0.16357   0.61823   1.000
    C1705   C    0.08820   0.52000   0.45855   1.000
    C1706   C    0.48000   0.56820   0.45855   1.000
    C1707   C    0.91180   0.43180   0.04145   1.000
    C1708   C    0.52000   0.08820   0.04145   1.000
    C1709   C    0.56820   0.48000   0.04145   1.000
    C1710   C    0.56820   0.08820   0.54145   1.000
    C1711   C    0.91180   0.48000   0.54145   1.000
    C1712   C    0.52000   0.43180   0.54145   1.000
    C1713   C    0.08820   0.56820   0.95855   1.000
    C1714   C    0.48000   0.91180   0.95855   1.000
    C1715   C    0.43180   0.52000   0.95855   1.000
    C1716   C    0.09847   0.24513   0.79188   1.000
    C1717   C    0.75487   0.85333   0.79188   1.000
    C1718   C    0.14667   0.90153   0.79188   1.000
    C1719   C    0.57847   0.76513   0.37478   1.000
    C1720   C    0.18667   0.42153   0.37478   1.000
    C1721   C    0.23487   0.81333   0.37478   1.000
    C1722   C    0.23487   0.42153   0.87478   1.000
    C1723   C    0.57847   0.81333   0.87478   1.000
    C1724   C    0.18667   0.76513   0.87478   1.000
    C1725   C    0.75487   0.90153   0.29188   1.000
    C1726   C    0.14667   0.24513   0.29188   1.000
    C1727   C    0.09847   0.85333   0.29188   1.000
    C1728   C    0.76513   0.57847   0.12522   1.000
    C1729   C    0.42153   0.18667   0.12522   1.000
    C1730   C    0.81333   0.23487   0.12522   1.000
    C1731   C    0.24513   0.09847   0.70812   1.000
    C1732   C    0.85333   0.75487   0.70812   1.000
    C1733   C    0.90153   0.14667   0.70812   1.000
    C1734   C    0.90153   0.75487   0.20812   1.000
    C1735   C    0.24513   0.14667   0.20812   1.000
    C1736   C    0.85333   0.09847   0.20812   1.000
    C1737   C    0.42153   0.23487   0.62522   1.000
    C1738   C    0.81333   0.57847   0.62522   1.000
    C1739   C    0.76513   0.18667   0.62522   1.000
    H1740   H    0.08870   0.49940   0.46560   1.000
    H1741   H    0.50060   0.58930   0.46560   1.000
    H1742   H    0.91130   0.41070   0.03440   1.000
    H1743   H    0.49940   0.08870   0.03440   1.000
    H1744   H    0.58930   0.50060   0.03440   1.000
    H1745   H    0.58930   0.08870   0.53440   1.000
    H1746   H    0.91130   0.50060   0.53440   1.000
    H1747   H    0.49940   0.41070   0.53440   1.000
    H1748   H    0.08870   0.58930   0.96560   1.000
    H1749   H    0.50060   0.91130   0.96560   1.000
    H1750   H    0.41070   0.49940   0.96560   1.000
    H1751   H    0.07737   0.24463   0.79893   1.000
    H1752   H    0.75537   0.83273   0.79893   1.000
    H1753   H    0.16727   0.92263   0.79893   1.000
    H1754   H    0.57797   0.74403   0.36773   1.000
    H1755   H    0.16607   0.42203   0.36773   1.000
    H1756   H    0.25597   0.83393   0.36773   1.000
    H1757   H    0.25597   0.42203   0.86773   1.000
    H1758   H    0.57797   0.83393   0.86773   1.000
    H1759   H    0.16607   0.74403   0.86773   1.000
    H1760   H    0.75537   0.92263   0.29893   1.000
    H1761   H    0.16727   0.24463   0.29893   1.000
    H1762   H    0.07737   0.83273   0.29893   1.000
    H1763   H    0.74403   0.57797   0.13227   1.000
    H1764   H    0.42203   0.16607   0.13227   1.000
    H1765   H    0.83393   0.25597   0.13227   1.000
    H1766   H    0.24463   0.07737   0.70107   1.000
    H1767   H    0.83273   0.75537   0.70107   1.000
    H1768   H    0.92263   0.16727   0.70107   1.000
    H1769   H    0.92263   0.75537   0.20107   1.000
    H1770   H    0.24463   0.16727   0.20107   1.000
    H1771   H    0.83273   0.07737   0.20107   1.000
    H1772   H    0.42203   0.25597   0.63227   1.000
    H1773   H    0.83393   0.57797   0.63227   1.000
    H1774   H    0.74403   0.16607   0.63227   1.000
    C1775   C    0.97330   0.49690   0.43478   1.000
    C1776   C    0.50310   0.47640   0.43478   1.000
    C1777   C    0.02670   0.52360   0.06522   1.000
    C1778   C    0.49690   0.97330   0.06522   1.000
    C1779   C    0.47640   0.50310   0.06522   1.000
    C1780   C    0.47640   0.97330   0.56522   1.000
    C1781   C    0.02670   0.50310   0.56522   1.000
    C1782   C    0.49690   0.52360   0.56522   1.000
    C1783   C    0.97330   0.47640   0.93478   1.000
    C1784   C    0.50310   0.02670   0.93478   1.000
    C1785   C    0.52360   0.49690   0.93478   1.000
    C1786   C    0.19027   0.36003   0.76811   1.000
    C1787   C    0.63997   0.83023   0.76811   1.000
    C1788   C    0.16977   0.80973   0.76811   1.000
    C1789   C    0.69337   0.85693   0.39855   1.000
    C1790   C    0.16357   0.30663   0.39855   1.000
    C1791   C    0.14307   0.83643   0.39855   1.000
    C1792   C    0.14307   0.30663   0.89855   1.000
    C1793   C    0.69337   0.83643   0.89855   1.000
    C1794   C    0.16357   0.85693   0.89855   1.000
    C1795   C    0.63997   0.80973   0.26811   1.000
    C1796   C    0.16977   0.36003   0.26811   1.000
    C1797   C    0.19027   0.83023   0.26811   1.000
    C1798   C    0.85693   0.69337   0.10145   1.000
    C1799   C    0.30663   0.16357   0.10145   1.000
    C1800   C    0.83643   0.14307   0.10145   1.000
    C1801   C    0.36003   0.19027   0.73189   1.000
    C1802   C    0.83023   0.63997   0.73189   1.000
    C1803   C    0.80973   0.16977   0.73189   1.000
    C1804   C    0.80973   0.63997   0.23189   1.000
    C1805   C    0.36003   0.16977   0.23189   1.000
    C1806   C    0.83023   0.19027   0.23189   1.000
    C1807   C    0.30663   0.14307   0.60145   1.000
    C1808   C    0.83643   0.69337   0.60145   1.000
    C1809   C    0.85693   0.16357   0.60145   1.000
    C1810   C    0.97490   0.50020   0.42209   1.000
    C1811   C    0.49980   0.47470   0.42209   1.000
    C1812   C    0.02510   0.52530   0.07791   1.000
    C1813   C    0.50020   0.97490   0.07791   1.000
    C1814   C    0.47470   0.49980   0.07791   1.000
    C1815   C    0.47470   0.97490   0.57791   1.000
    C1816   C    0.02510   0.49980   0.57791   1.000
    C1817   C    0.50020   0.52530   0.57791   1.000
    C1818   C    0.97490   0.47470   0.92209   1.000
    C1819   C    0.49980   0.02510   0.92209   1.000
    C1820   C    0.52530   0.50020   0.92209   1.000
    C1821   C    0.19197   0.35843   0.75542   1.000
    C1822   C    0.64157   0.83353   0.75542   1.000
    C1823   C    0.16647   0.80803   0.75542   1.000
    C1824   C    0.69177   0.85863   0.41124   1.000
    C1825   C    0.16687   0.30823   0.41124   1.000
    C1826   C    0.14137   0.83313   0.41124   1.000
    C1827   C    0.14137   0.30823   0.91124   1.000
    C1828   C    0.69177   0.83313   0.91124   1.000
    C1829   C    0.16687   0.85863   0.91124   1.000
    C1830   C    0.64157   0.80803   0.25542   1.000
    C1831   C    0.16647   0.35843   0.25542   1.000
    C1832   C    0.19197   0.83353   0.25542   1.000
    C1833   C    0.85863   0.69177   0.08876   1.000
    C1834   C    0.30823   0.16687   0.08876   1.000
    C1835   C    0.83313   0.14137   0.08876   1.000
    C1836   C    0.35843   0.19197   0.74458   1.000
    C1837   C    0.83353   0.64157   0.74458   1.000
    C1838   C    0.80803   0.16647   0.74458   1.000
    C1839   C    0.80803   0.64157   0.24458   1.000
    C1840   C    0.35843   0.16647   0.24458   1.000
    C1841   C    0.83353   0.19197   0.24458   1.000
    C1842   C    0.30823   0.14137   0.58876   1.000
    C1843   C    0.83313   0.69177   0.58876   1.000
    C1844   C    0.85863   0.16687   0.58876   1.000
    C1845   C    0.92120   0.47260   0.41588   1.000
    C1846   C    0.52740   0.44860   0.41588   1.000
    C1847   C    0.07880   0.55140   0.08412   1.000
    C1848   C    0.47260   0.92120   0.08412   1.000
    C1849   C    0.44860   0.52740   0.08412   1.000
    C1850   C    0.44860   0.92120   0.58412   1.000
    C1851   C    0.07880   0.52740   0.58412   1.000
    C1852   C    0.47260   0.55140   0.58412   1.000
    C1853   C    0.92120   0.44860   0.91588   1.000
    C1854   C    0.52740   0.07880   0.91588   1.000
    C1855   C    0.55140   0.47260   0.91588   1.000
    C1856   C    0.21807   0.41213   0.74921   1.000
    C1857   C    0.58787   0.80593   0.74921   1.000
    C1858   C    0.19407   0.78193   0.74921   1.000
    C1859   C    0.74547   0.88473   0.41745   1.000
    C1860   C    0.13927   0.25453   0.41745   1.000
    C1861   C    0.11527   0.86073   0.41745   1.000
    C1862   C    0.11527   0.25453   0.91745   1.000
    C1863   C    0.74547   0.86073   0.91745   1.000
    C1864   C    0.13927   0.88473   0.91745   1.000
    C1865   C    0.58787   0.78193   0.24921   1.000
    C1866   C    0.19407   0.41213   0.24921   1.000
    C1867   C    0.21807   0.80593   0.24921   1.000
    C1868   C    0.88473   0.74547   0.08255   1.000
    C1869   C    0.25453   0.13927   0.08255   1.000
    C1870   C    0.86073   0.11527   0.08255   1.000
    C1871   C    0.41213   0.21807   0.75079   1.000
    C1872   C    0.80593   0.58787   0.75079   1.000
    C1873   C    0.78193   0.19407   0.75079   1.000
    C1874   C    0.78193   0.58787   0.25079   1.000
    C1875   C    0.41213   0.19407   0.25079   1.000
    C1876   C    0.80593   0.21807   0.25079   1.000
    C1877   C    0.25453   0.11527   0.58255   1.000
    C1878   C    0.86073   0.74547   0.58255   1.000
    C1879   C    0.88473   0.13927   0.58255   1.000
    H1880   H    0.92330   0.47300   0.40750   1.000
    H1881   H    0.52700   0.45030   0.40750   1.000
    H1882   H    0.07670   0.54970   0.09250   1.000
    H1883   H    0.47300   0.92330   0.09250   1.000
    H1884   H    0.45030   0.52700   0.09250   1.000
    H1885   H    0.45030   0.92330   0.59250   1.000
    H1886   H    0.07670   0.52700   0.59250   1.000
    H1887   H    0.47300   0.54970   0.59250   1.000
    H1888   H    0.92330   0.45030   0.90750   1.000
    H1889   H    0.52700   0.07670   0.90750   1.000
    H1890   H    0.54970   0.47300   0.90750   1.000
    H1891   H    0.21637   0.41003   0.74083   1.000
    H1892   H    0.58997   0.80633   0.74083   1.000
    H1893   H    0.19367   0.78363   0.74083   1.000
    H1894   H    0.74337   0.88303   0.42583   1.000
    H1895   H    0.13967   0.25663   0.42583   1.000
    H1896   H    0.11697   0.86033   0.42583   1.000
    H1897   H    0.11697   0.25663   0.92583   1.000
    H1898   H    0.74337   0.86033   0.92583   1.000
    H1899   H    0.13967   0.88303   0.92583   1.000
    H1900   H    0.58997   0.78363   0.24083   1.000
    H1901   H    0.19367   0.41003   0.24083   1.000
    H1902   H    0.21637   0.80633   0.24083   1.000
    H1903   H    0.88303   0.74337   0.07417   1.000
    H1904   H    0.25663   0.13967   0.07417   1.000
    H1905   H    0.86033   0.11697   0.07417   1.000
    H1906   H    0.41003   0.21637   0.75917   1.000
    H1907   H    0.80633   0.58997   0.75917   1.000
    H1908   H    0.78363   0.19367   0.75917   1.000
    H1909   H    0.78363   0.58997   0.25917   1.000
    H1910   H    0.41003   0.19367   0.25917   1.000
    H1911   H    0.80633   0.21637   0.25917   1.000
    H1912   H    0.25663   0.11697   0.57417   1.000
    H1913   H    0.86033   0.74337   0.57417   1.000
    H1914   H    0.88303   0.13967   0.57417   1.000
    C1915   C    0.86090   0.44270   0.42148   1.000
    C1916   C    0.55730   0.41820   0.42148   1.000
    C1917   C    0.13910   0.58180   0.07852   1.000
    C1918   C    0.44270   0.86090   0.07852   1.000
    C1919   C    0.41820   0.55730   0.07852   1.000
    C1920   C    0.41820   0.86090   0.57852   1.000
    C1921   C    0.13910   0.55730   0.57852   1.000
    C1922   C    0.44270   0.58180   0.57852   1.000
    C1923   C    0.86090   0.41820   0.92148   1.000
    C1924   C    0.55730   0.13910   0.92148   1.000
    C1925   C    0.58180   0.44270   0.92148   1.000
    C1926   C    0.24847   0.47243   0.75481   1.000
    C1927   C    0.52757   0.77603   0.75481   1.000
    C1928   C    0.22397   0.75153   0.75481   1.000
    C1929   C    0.80577   0.91513   0.41185   1.000
    C1930   C    0.10937   0.19423   0.41185   1.000
    C1931   C    0.08487   0.89063   0.41185   1.000
    C1932   C    0.08487   0.19423   0.91185   1.000
    C1933   C    0.80577   0.89063   0.91185   1.000
    C1934   C    0.10937   0.91513   0.91185   1.000
    C1935   C    0.52757   0.75153   0.25481   1.000
    C1936   C    0.22397   0.47243   0.25481   1.000
    C1937   C    0.24847   0.77603   0.25481   1.000
    C1938   C    0.91513   0.80577   0.08815   1.000
    C1939   C    0.19423   0.10937   0.08815   1.000
    C1940   C    0.89063   0.08487   0.08815   1.000
    C1941   C    0.47243   0.24847   0.74519   1.000
    C1942   C    0.77603   0.52757   0.74519   1.000
    C1943   C    0.75153   0.22397   0.74519   1.000
    C1944   C    0.75153   0.52757   0.24519   1.000
    C1945   C    0.47243   0.22397   0.24519   1.000
    C1946   C    0.77603   0.24847   0.24519   1.000
    C1947   C    0.19423   0.08487   0.58815   1.000
    C1948   C    0.89063   0.80577   0.58815   1.000
    C1949   C    0.91513   0.10937   0.58815   1.000
    C1950   C    0.86020   0.44600   0.43362   1.000
    C1951   C    0.55400   0.41420   0.43362   1.000
    C1952   C    0.13980   0.58580   0.06638   1.000
    C1953   C    0.44600   0.86020   0.06638   1.000
    C1954   C    0.41420   0.55400   0.06638   1.000
    C1955   C    0.41420   0.86020   0.56638   1.000
    C1956   C    0.13980   0.55400   0.56638   1.000
    C1957   C    0.44600   0.58580   0.56638   1.000
    C1958   C    0.86020   0.41420   0.93362   1.000
    C1959   C    0.55400   0.13980   0.93362   1.000
    C1960   C    0.58580   0.44600   0.93362   1.000
    C1961   C    0.25247   0.47313   0.76695   1.000
    C1962   C    0.52687   0.77933   0.76695   1.000
    C1963   C    0.22067   0.74753   0.76695   1.000
    C1964   C    0.80647   0.91913   0.39971   1.000
    C1965   C    0.11267   0.19353   0.39971   1.000
    C1966   C    0.08087   0.88733   0.39971   1.000
    C1967   C    0.08087   0.19353   0.89971   1.000
    C1968   C    0.80647   0.88733   0.89971   1.000
    C1969   C    0.11267   0.91913   0.89971   1.000
    C1970   C    0.52687   0.74753   0.26695   1.000
    C1971   C    0.22067   0.47313   0.26695   1.000
    C1972   C    0.25247   0.77933   0.26695   1.000
    C1973   C    0.91913   0.80647   0.10029   1.000
    C1974   C    0.19353   0.11267   0.10029   1.000
    C1975   C    0.88733   0.08087   0.10029   1.000
    C1976   C    0.47313   0.25247   0.73305   1.000
    C1977   C    0.77933   0.52687   0.73305   1.000
    C1978   C    0.74753   0.22067   0.73305   1.000
    C1979   C    0.74753   0.52687   0.23305   1.000
    C1980   C    0.47313   0.22067   0.23305   1.000
    C1981   C    0.77933   0.25247   0.23305   1.000
    C1982   C    0.19353   0.08087   0.60029   1.000
    C1983   C    0.88733   0.80647   0.60029   1.000
    C1984   C    0.91913   0.11267   0.60029   1.000
    H1985   H    0.82100   0.43170   0.43750   1.000
    H1986   H    0.56830   0.38930   0.43750   1.000
    H1987   H    0.17900   0.61070   0.06250   1.000
    H1988   H    0.43170   0.82100   0.06250   1.000
    H1989   H    0.38930   0.56830   0.06250   1.000
    H1990   H    0.38930   0.82100   0.56250   1.000
    H1991   H    0.17900   0.56830   0.56250   1.000
    H1992   H    0.43170   0.61070   0.56250   1.000
    H1993   H    0.82100   0.38930   0.93750   1.000
    H1994   H    0.56830   0.17900   0.93750   1.000
    H1995   H    0.61070   0.43170   0.93750   1.000
    H1996   H    0.27737   0.51233   0.77083   1.000
    H1997   H    0.48767   0.76503   0.77083   1.000
    H1998   H    0.23497   0.72263   0.77083   1.000
    H1999   H    0.84567   0.94403   0.39583   1.000
    H2000   H    0.09837   0.15433   0.39583   1.000
    H2001   H    0.05597   0.90163   0.39583   1.000
    H2002   H    0.05597   0.15433   0.89583   1.000
    H2003   H    0.84567   0.90163   0.89583   1.000
    H2004   H    0.09837   0.94403   0.89583   1.000
    H2005   H    0.48767   0.72263   0.27083   1.000
    H2006   H    0.23497   0.51233   0.27083   1.000
    H2007   H    0.27737   0.76503   0.27083   1.000
    H2008   H    0.94403   0.84567   0.10417   1.000
    H2009   H    0.15433   0.09837   0.10417   1.000
    H2010   H    0.90163   0.05597   0.10417   1.000
    H2011   H    0.51233   0.27737   0.72917   1.000
    H2012   H    0.76503   0.48767   0.72917   1.000
    H2013   H    0.72263   0.23497   0.72917   1.000
    H2014   H    0.72263   0.48767   0.22917   1.000
    H2015   H    0.51233   0.23497   0.22917   1.000
    H2016   H    0.76503   0.27737   0.22917   1.000
    H2017   H    0.15433   0.05597   0.60417   1.000
    H2018   H    0.90163   0.84567   0.60417   1.000
    H2019   H    0.94403   0.09837   0.60417   1.000
    C2020   C    0.91290   0.46880   0.44011   1.000
    C2021   C    0.53120   0.44410   0.44011   1.000
    C2022   C    0.08710   0.55590   0.05989   1.000
    C2023   C    0.46880   0.91290   0.05989   1.000
    C2024   C    0.44410   0.53120   0.05989   1.000
    C2025   C    0.44410   0.91290   0.55989   1.000
    C2026   C    0.08710   0.53120   0.55989   1.000
    C2027   C    0.46880   0.55590   0.55989   1.000
    C2028   C    0.91290   0.44410   0.94011   1.000
    C2029   C    0.53120   0.08710   0.94011   1.000
    C2030   C    0.55590   0.46880   0.94011   1.000
    C2031   C    0.22257   0.42043   0.77344   1.000
    C2032   C    0.57957   0.80213   0.77344   1.000
    C2033   C    0.19787   0.77743   0.77344   1.000
    C2034   C    0.75377   0.88923   0.39322   1.000
    C2035   C    0.13547   0.24623   0.39322   1.000
    C2036   C    0.11077   0.86453   0.39322   1.000
    C2037   C    0.11077   0.24623   0.89322   1.000
    C2038   C    0.75377   0.86453   0.89322   1.000
    C2039   C    0.13547   0.88923   0.89322   1.000
    C2040   C    0.57957   0.77743   0.27344   1.000
    C2041   C    0.19787   0.42043   0.27344   1.000
    C2042   C    0.22257   0.80213   0.27344   1.000
    C2043   C    0.88923   0.75377   0.10678   1.000
    C2044   C    0.24623   0.13547   0.10678   1.000
    C2045   C    0.86453   0.11077   0.10678   1.000
    C2046   C    0.42043   0.22257   0.72656   1.000
    C2047   C    0.80213   0.57957   0.72656   1.000
    C2048   C    0.77743   0.19787   0.72656   1.000
    C2049   C    0.77743   0.57957   0.22656   1.000
    C2050   C    0.42043   0.19787   0.22656   1.000
    C2051   C    0.80213   0.22257   0.22656   1.000
    C2052   C    0.24623   0.11077   0.60678   1.000
    C2053   C    0.86453   0.75377   0.60678   1.000
    C2054   C    0.88923   0.13547   0.60678   1.000
    C2055   C    0.80350   0.41450   0.41291   1.000
    C2056   C    0.58550   0.38900   0.41291   1.000
    C2057   C    0.19650   0.61100   0.08709   1.000
    C2058   C    0.41450   0.80350   0.08709   1.000
    C2059   C    0.38900   0.58550   0.08709   1.000
    C2060   C    0.38900   0.80350   0.58709   1.000
    C2061   C    0.19650   0.58550   0.58709   1.000
    C2062   C    0.41450   0.61100   0.58709   1.000
    C2063   C    0.80350   0.38900   0.91291   1.000
    C2064   C    0.58550   0.19650   0.91291   1.000
    C2065   C    0.61100   0.41450   0.91291   1.000
    C2066   C    0.27767   0.52983   0.74624   1.000
    C2067   C    0.47017   0.74783   0.74624   1.000
    C2068   C    0.25217   0.72233   0.74624   1.000
    C2069   C    0.86317   0.94433   0.42042   1.000
    C2070   C    0.08117   0.13683   0.42042   1.000
    C2071   C    0.05567   0.91883   0.42042   1.000
    C2072   C    0.05567   0.13683   0.92042   1.000
    C2073   C    0.86317   0.91883   0.92042   1.000
    C2074   C    0.08117   0.94433   0.92042   1.000
    C2075   C    0.47017   0.72233   0.24624   1.000
    C2076   C    0.25217   0.52983   0.24624   1.000
    C2077   C    0.27767   0.74783   0.24624   1.000
    C2078   C    0.94433   0.86317   0.07958   1.000
    C2079   C    0.13683   0.08117   0.07958   1.000
    C2080   C    0.91883   0.05567   0.07958   1.000
    C2081   C    0.52983   0.27767   0.75376   1.000
    C2082   C    0.74783   0.47017   0.75376   1.000
    C2083   C    0.72233   0.25217   0.75376   1.000
    C2084   C    0.72233   0.47017   0.25376   1.000
    C2085   C    0.52983   0.25217   0.25376   1.000
    C2086   C    0.74783   0.27767   0.25376   1.000
    C2087   C    0.13683   0.05567   0.57958   1.000
    C2088   C    0.91883   0.86317   0.57958   1.000
    C2089   C    0.94433   0.08117   0.57958   1.000
    N2090   N    0.09070   0.60590   0.42631   0.547
    N2091   N    0.39410   0.48480   0.42631   0.547
    N2092   N    0.90930   0.51520   0.07369   0.547
    N2093   N    0.60590   0.09070   0.07369   0.547
    N2094   N    0.48480   0.39410   0.07369   0.547
    N2095   N    0.48480   0.09070   0.57369   0.547
    N2096   N    0.90930   0.39410   0.57369   0.547
    N2097   N    0.60590   0.51520   0.57369   0.547
    N2098   N    0.09070   0.48480   0.92631   0.547
    N2099   N    0.39410   0.90930   0.92631   0.547
    N2100   N    0.51520   0.60590   0.92631   0.547
    N2101   N    0.18187   0.24263   0.75964   0.547
    N2102   N    0.75737   0.93923   0.75964   0.547
    N2103   N    0.06077   0.81813   0.75964   0.547
    N2104   N    0.57597   0.84853   0.40702   0.547
    N2105   N    0.27257   0.42403   0.40702   0.547
    N2106   N    0.15147   0.72743   0.40702   0.547
    N2107   N    0.15147   0.42403   0.90702   0.547
    N2108   N    0.57597   0.72743   0.90702   0.547
    N2109   N    0.27257   0.84853   0.90702   0.547
    N2110   N    0.75737   0.81813   0.25964   0.547
    N2111   N    0.06077   0.24263   0.25964   0.547
    N2112   N    0.18187   0.93923   0.25964   0.547
    N2113   N    0.84853   0.57597   0.09298   0.547
    N2114   N    0.42403   0.27257   0.09298   0.547
    N2115   N    0.72743   0.15147   0.09298   0.547
    N2116   N    0.24263   0.18187   0.74036   0.547
    N2117   N    0.93923   0.75737   0.74036   0.547
    N2118   N    0.81813   0.06077   0.74036   0.547
    N2119   N    0.81813   0.75737   0.24036   0.547
    N2120   N    0.24263   0.06077   0.24036   0.547
    N2121   N    0.93923   0.18187   0.24036   0.547
    N2122   N    0.42403   0.15147   0.59298   0.547
    N2123   N    0.72743   0.57597   0.59298   0.547
    N2124   N    0.84853   0.27257   0.59298   0.547
    H2125   H    0.10010   0.64540   0.42700   0.547
    H2126   H    0.35460   0.45470   0.42700   0.547
    H2127   H    0.89990   0.54530   0.07300   0.547
    H2128   H    0.64540   0.10010   0.07300   0.547
    H2129   H    0.45470   0.35460   0.07300   0.547
    H2130   H    0.45470   0.10010   0.57300   0.547
    H2131   H    0.89990   0.35460   0.57300   0.547
    H2132   H    0.64540   0.54530   0.57300   0.547
    H2133   H    0.10010   0.45470   0.92700   0.547
    H2134   H    0.35460   0.89990   0.92700   0.547
    H2135   H    0.54530   0.64540   0.92700   0.547
    H2136   H    0.21197   0.23323   0.76033   0.547
    H2137   H    0.76677   0.97873   0.76033   0.547
    H2138   H    0.02127   0.78803   0.76033   0.547
    H2139   H    0.56657   0.87863   0.40633   0.547
    H2140   H    0.31207   0.43343   0.40633   0.547
    H2141   H    0.12137   0.68793   0.40633   0.547
    H2142   H    0.12137   0.43343   0.90633   0.547
    H2143   H    0.56657   0.68793   0.90633   0.547
    H2144   H    0.31207   0.87863   0.90633   0.547
    H2145   H    0.76677   0.78803   0.26033   0.547
    H2146   H    0.02127   0.23323   0.26033   0.547
    H2147   H    0.21197   0.97873   0.26033   0.547
    H2148   H    0.87863   0.56657   0.09367   0.547
    H2149   H    0.43343   0.31207   0.09367   0.547
    H2150   H    0.68793   0.12137   0.09367   0.547
    H2151   H    0.23323   0.21197   0.73967   0.547
    H2152   H    0.97873   0.76677   0.73967   0.547
    H2153   H    0.78803   0.02127   0.73967   0.547
    H2154   H    0.78803   0.76677   0.23967   0.547
    H2155   H    0.23323   0.02127   0.23967   0.547
    H2156   H    0.97873   0.21197   0.23967   0.547
    H2157   H    0.43343   0.12137   0.59367   0.547
    H2158   H    0.68793   0.56657   0.59367   0.547
    H2159   H    0.87863   0.31207   0.59367   0.547
    N2160   N    0.03080   0.52180   0.41435   0.547
    N2161   N    0.47820   0.50900   0.41435   0.547
    N2162   N    0.96920   0.49100   0.08565   0.547
    N2163   N    0.52180   0.03080   0.08565   0.547
    N2164   N    0.50900   0.47820   0.08565   0.547
    N2165   N    0.50900   0.03080   0.58565   0.547
    N2166   N    0.96920   0.47820   0.58565   0.547
    N2167   N    0.52180   0.49100   0.58565   0.547
    N2168   N    0.03080   0.50900   0.91435   0.547
    N2169   N    0.47820   0.96920   0.91435   0.547
    N2170   N    0.49100   0.52180   0.91435   0.547
    N2171   N    0.15767   0.30253   0.74768   0.547
    N2172   N    0.69747   0.85513   0.74768   0.547
    N2173   N    0.14487   0.84233   0.74768   0.547
    N2174   N    0.63587   0.82433   0.41898   0.547
    N2175   N    0.18847   0.36413   0.41898   0.547
    N2176   N    0.17567   0.81153   0.41898   0.547
    N2177   N    0.17567   0.36413   0.91898   0.547
    N2178   N    0.63587   0.81153   0.91898   0.547
    N2179   N    0.18847   0.82433   0.91898   0.547
    N2180   N    0.69747   0.84233   0.24768   0.547
    N2181   N    0.14487   0.30253   0.24768   0.547
    N2182   N    0.15767   0.85513   0.24768   0.547
    N2183   N    0.82433   0.63587   0.08102   0.547
    N2184   N    0.36413   0.18847   0.08102   0.547
    N2185   N    0.81153   0.17567   0.08102   0.547
    N2186   N    0.30253   0.15767   0.75232   0.547
    N2187   N    0.85513   0.69747   0.75232   0.547
    N2188   N    0.84233   0.14487   0.75232   0.547
    N2189   N    0.84233   0.69747   0.25232   0.547
    N2190   N    0.30253   0.14487   0.25232   0.547
    N2191   N    0.85513   0.15767   0.25232   0.547
    N2192   N    0.36413   0.17567   0.58102   0.547
    N2193   N    0.81153   0.63587   0.58102   0.547
    N2194   N    0.82433   0.18847   0.58102   0.547
    H2195   H    0.03120   0.49370   0.40950   0.547
    H2196   H    0.50630   0.53750   0.40950   0.547
    H2197   H    0.96880   0.46250   0.09050   0.547
    H2198   H    0.49370   0.03120   0.09050   0.547
    H2199   H    0.53750   0.50630   0.09050   0.547
    H2200   H    0.53750   0.03120   0.59050   0.547
    H2201   H    0.96880   0.50630   0.59050   0.547
    H2202   H    0.49370   0.46250   0.59050   0.547
    H2203   H    0.03120   0.53750   0.90950   0.547
    H2204   H    0.50630   0.96880   0.90950   0.547
    H2205   H    0.46250   0.49370   0.90950   0.547
    H2206   H    0.12917   0.30213   0.74283   0.547
    H2207   H    0.69787   0.82703   0.74283   0.547
    H2208   H    0.17297   0.87083   0.74283   0.547
    H2209   H    0.63547   0.79583   0.42383   0.547
    H2210   H    0.16037   0.36453   0.42383   0.547
    H2211   H    0.20417   0.83963   0.42383   0.547
    H2212   H    0.20417   0.36453   0.92383   0.547
    H2213   H    0.63547   0.83963   0.92383   0.547
    H2214   H    0.16037   0.79583   0.92383   0.547
    H2215   H    0.69787   0.87083   0.24283   0.547
    H2216   H    0.17297   0.30213   0.24283   0.547
    H2217   H    0.12917   0.82703   0.24283   0.547
    H2218   H    0.79583   0.63547   0.07617   0.547
    H2219   H    0.36453   0.16037   0.07617   0.547
    H2220   H    0.83963   0.20417   0.07617   0.547
    H2221   H    0.30213   0.12917   0.75717   0.547
    H2222   H    0.82703   0.69787   0.75717   0.547
    H2223   H    0.87083   0.17297   0.75717   0.547
    H2224   H    0.87083   0.69787   0.25717   0.547
    H2225   H    0.30213   0.17297   0.25717   0.547
    H2226   H    0.82703   0.12917   0.25717   0.547
    H2227   H    0.36453   0.20417   0.57617   0.547
    H2228   H    0.83963   0.63547   0.57617   0.547
    H2229   H    0.79583   0.16037   0.57617   0.547
    C2230   C    0.08470   0.58490   0.41400   0.547
    C2231   C    0.41510   0.49980   0.41400   0.547
    C2232   C    0.91530   0.50020   0.08600   0.547
    C2233   C    0.58490   0.08470   0.08600   0.547
    C2234   C    0.49980   0.41510   0.08600   0.547
    C2235   C    0.49980   0.08470   0.58600   0.547
    C2236   C    0.91530   0.41510   0.58600   0.547
    C2237   C    0.58490   0.50020   0.58600   0.547
    C2238   C    0.08470   0.49980   0.91400   0.547
    C2239   C    0.41510   0.91530   0.91400   0.547
    C2240   C    0.50020   0.58490   0.91400   0.547
    C2241   C    0.16687   0.24863   0.74733   0.547
    C2242   C    0.75137   0.91823   0.74733   0.547
    C2243   C    0.08177   0.83313   0.74733   0.547
    C2244   C    0.58197   0.83353   0.41933   0.547
    C2245   C    0.25157   0.41803   0.41933   0.547
    C2246   C    0.16647   0.74843   0.41933   0.547
    C2247   C    0.16647   0.41803   0.91933   0.547
    C2248   C    0.58197   0.74843   0.91933   0.547
    C2249   C    0.25157   0.83353   0.91933   0.547
    C2250   C    0.75137   0.83313   0.24733   0.547
    C2251   C    0.08177   0.24863   0.24733   0.547
    C2252   C    0.16687   0.91823   0.24733   0.547
    C2253   C    0.83353   0.58197   0.08067   0.547
    C2254   C    0.41803   0.25157   0.08067   0.547
    C2255   C    0.74843   0.16647   0.08067   0.547
    C2256   C    0.24863   0.16687   0.75267   0.547
    C2257   C    0.91823   0.75137   0.75267   0.547
    C2258   C    0.83313   0.08177   0.75267   0.547
    C2259   C    0.83313   0.75137   0.25267   0.547
    C2260   C    0.24863   0.08177   0.25267   0.547
    C2261   C    0.91823   0.16687   0.25267   0.547
    C2262   C    0.41803   0.16647   0.58067   0.547
    C2263   C    0.74843   0.58197   0.58067   0.547
    C2264   C    0.83353   0.25157   0.58067   0.547
    N2265   N    0.98270   0.44450   0.45712   0.453
    N2266   N    0.55550   0.53820   0.45712   0.453
    N2267   N    0.01730   0.46180   0.04288   0.453
    N2268   N    0.44450   0.98270   0.04288   0.453
    N2269   N    0.53820   0.55550   0.04288   0.453
    N2270   N    0.53820   0.98270   0.54288   0.453
    N2271   N    0.01730   0.55550   0.54288   0.453
    N2272   N    0.44450   0.46180   0.54288   0.453
    N2273   N    0.98270   0.53820   0.95712   0.453
    N2274   N    0.55550   0.01730   0.95712   0.453
    N2275   N    0.46180   0.44450   0.95712   0.453
    N2276   N    0.12847   0.35063   0.79045   0.453
    N2277   N    0.64937   0.77783   0.79045   0.453
    N2278   N    0.22217   0.87153   0.79045   0.453
    N2279   N    0.68397   0.79513   0.37621   0.453
    N2280   N    0.11117   0.31603   0.37621   0.453
    N2281   N    0.20487   0.88883   0.37621   0.453
    N2282   N    0.20487   0.31603   0.87621   0.453
    N2283   N    0.68397   0.88883   0.87621   0.453
    N2284   N    0.11117   0.79513   0.87621   0.453
    N2285   N    0.64937   0.87153   0.29045   0.453
    N2286   N    0.22217   0.35063   0.29045   0.453
    N2287   N    0.12847   0.77783   0.29045   0.453
    N2288   N    0.79513   0.68397   0.12379   0.453
    N2289   N    0.31603   0.11117   0.12379   0.453
    N2290   N    0.88883   0.20487   0.12379   0.453
    N2291   N    0.35063   0.12847   0.70955   0.453
    N2292   N    0.77783   0.64937   0.70955   0.453
    N2293   N    0.87153   0.22217   0.70955   0.453
    N2294   N    0.87153   0.64937   0.20955   0.453
    N2295   N    0.35063   0.22217   0.20955   0.453
    N2296   N    0.77783   0.12847   0.20955   0.453
    N2297   N    0.31603   0.20487   0.62379   0.453
    N2298   N    0.88883   0.68397   0.62379   0.453
    N2299   N    0.79513   0.11117   0.62379   0.453
    H2300   H    0.98790   0.41160   0.45780   0.453
    H2301   H    0.58840   0.57630   0.45780   0.453
    H2302   H    0.01210   0.42370   0.04220   0.453
    H2303   H    0.41160   0.98790   0.04220   0.453
    H2304   H    0.57630   0.58840   0.04220   0.453
    H2305   H    0.57630   0.98790   0.54220   0.453
    H2306   H    0.01210   0.58840   0.54220   0.453
    H2307   H    0.41160   0.42370   0.54220   0.453
    H2308   H    0.98790   0.57630   0.95780   0.453
    H2309   H    0.58840   0.01210   0.95780   0.453
    H2310   H    0.42370   0.41160   0.95780   0.453
    H2311   H    0.09037   0.34543   0.79113   0.453
    H2312   H    0.65457   0.74493   0.79113   0.453
    H2313   H    0.25507   0.90963   0.79113   0.453
    H2314   H    0.67877   0.75703   0.37553   0.453
    H2315   H    0.07827   0.32123   0.37553   0.453
    H2316   H    0.24297   0.92173   0.37553   0.453
    H2317   H    0.24297   0.32123   0.87553   0.453
    H2318   H    0.67877   0.92173   0.87553   0.453
    H2319   H    0.07827   0.75703   0.87553   0.453
    H2320   H    0.65457   0.90963   0.29113   0.453
    H2321   H    0.25507   0.34543   0.29113   0.453
    H2322   H    0.09037   0.74493   0.29113   0.453
    H2323   H    0.75703   0.67877   0.12447   0.453
    H2324   H    0.32123   0.07827   0.12447   0.453
    H2325   H    0.92173   0.24297   0.12447   0.453
    H2326   H    0.34543   0.09037   0.70887   0.453
    H2327   H    0.74493   0.65457   0.70887   0.453
    H2328   H    0.90963   0.25507   0.70887   0.453
    H2329   H    0.90963   0.65457   0.20887   0.453
    H2330   H    0.34543   0.25507   0.20887   0.453
    H2331   H    0.74493   0.09037   0.20887   0.453
    H2332   H    0.32123   0.24297   0.62447   0.453
    H2333   H    0.92173   0.67877   0.62447   0.453
    H2334   H    0.75703   0.07827   0.62447   0.453
    N2335   N    0.90460   0.46290   0.45210   0.453
    N2336   N    0.53710   0.44170   0.45210   0.453
    N2337   N    0.09540   0.55830   0.04790   0.453
    N2338   N    0.46290   0.90460   0.04790   0.453
    N2339   N    0.44170   0.53710   0.04790   0.453
    N2340   N    0.44170   0.90460   0.54790   0.453
    N2341   N    0.09540   0.53710   0.54790   0.453
    N2342   N    0.46290   0.55830   0.54790   0.453
    N2343   N    0.90460   0.44170   0.95210   0.453
    N2344   N    0.53710   0.09540   0.95210   0.453
    N2345   N    0.55830   0.46290   0.95210   0.453
    N2346   N    0.22497   0.42873   0.78543   0.453
    N2347   N    0.57127   0.79623   0.78543   0.453
    N2348   N    0.20377   0.77503   0.78543   0.453
    N2349   N    0.76207   0.89163   0.38123   0.453
    N2350   N    0.12957   0.23793   0.38123   0.453
    N2351   N    0.10837   0.87043   0.38123   0.453
    N2352   N    0.10837   0.23793   0.88123   0.453
    N2353   N    0.76207   0.87043   0.88123   0.453
    N2354   N    0.12957   0.89163   0.88123   0.453
    N2355   N    0.57127   0.77503   0.28543   0.453
    N2356   N    0.20377   0.42873   0.28543   0.453
    N2357   N    0.22497   0.79623   0.28543   0.453
    N2358   N    0.89163   0.76207   0.11877   0.453
    N2359   N    0.23793   0.12957   0.11877   0.453
    N2360   N    0.87043   0.10837   0.11877   0.453
    N2361   N    0.42873   0.22497   0.71457   0.453
    N2362   N    0.79623   0.57127   0.71457   0.453
    N2363   N    0.77503   0.20377   0.71457   0.453
    N2364   N    0.77503   0.57127   0.21457   0.453
    N2365   N    0.42873   0.20377   0.21457   0.453
    N2366   N    0.79623   0.22497   0.21457   0.453
    N2367   N    0.23793   0.10837   0.61877   0.453
    N2368   N    0.87043   0.76207   0.61877   0.453
    N2369   N    0.89163   0.12957   0.61877   0.453
    H2370   H    0.88170   0.47930   0.45450   0.453
    H2371   H    0.52070   0.40240   0.45450   0.453
    H2372   H    0.11830   0.59760   0.04550   0.453
    H2373   H    0.47930   0.88170   0.04550   0.453
    H2374   H    0.40240   0.52070   0.04550   0.453
    H2375   H    0.40240   0.88170   0.54550   0.453
    H2376   H    0.11830   0.52070   0.54550   0.453
    H2377   H    0.47930   0.59760   0.54550   0.453
    H2378   H    0.88170   0.40240   0.95450   0.453
    H2379   H    0.52070   0.11830   0.95450   0.453
    H2380   H    0.59760   0.47930   0.95450   0.453
    H2381   H    0.26427   0.45163   0.78783   0.453
    H2382   H    0.54837   0.81263   0.78783   0.453
    H2383   H    0.18737   0.73573   0.78783   0.453
    H2384   H    0.78497   0.93093   0.37883   0.453
    H2385   H    0.14597   0.21503   0.37883   0.453
    H2386   H    0.06907   0.85403   0.37883   0.453
    H2387   H    0.06907   0.21503   0.87883   0.453
    H2388   H    0.78497   0.85403   0.87883   0.453
    H2389   H    0.14597   0.93093   0.87883   0.453
    H2390   H    0.54837   0.73573   0.28783   0.453
    H2391   H    0.18737   0.45163   0.28783   0.453
    H2392   H    0.26427   0.81263   0.28783   0.453
    H2393   H    0.93093   0.78497   0.12117   0.453
    H2394   H    0.21503   0.14597   0.12117   0.453
    H2395   H    0.85403   0.06907   0.12117   0.453
    H2396   H    0.45163   0.26427   0.71217   0.453
    H2397   H    0.81263   0.54837   0.71217   0.453
    H2398   H    0.73573   0.18737   0.71217   0.453
    H2399   H    0.73573   0.54837   0.21217   0.453
    H2400   H    0.45163   0.18737   0.21217   0.453
    H2401   H    0.81263   0.26427   0.21217   0.453
    H2402   H    0.21503   0.06907   0.62117   0.453
    H2403   H    0.85403   0.78497   0.62117   0.453
    H2404   H    0.93093   0.14597   0.62117   0.453
    C2405   C    0.92270   0.43690   0.46210   0.453
    C2406   C    0.56310   0.48580   0.46210   0.453
    C2407   C    0.07730   0.51420   0.03790   0.453
    C2408   C    0.43690   0.92270   0.03790   0.453
    C2409   C    0.48580   0.56310   0.03790   0.453
    C2410   C    0.48580   0.92270   0.53790   0.453
    C2411   C    0.07730   0.56310   0.53790   0.453
    C2412   C    0.43690   0.51420   0.53790   0.453
    C2413   C    0.92270   0.48580   0.96210   0.453
    C2414   C    0.56310   0.07730   0.96210   0.453
    C2415   C    0.51420   0.43690   0.96210   0.453
    C2416   C    0.18087   0.41063   0.79543   0.453
    C2417   C    0.58937   0.77023   0.79543   0.453
    C2418   C    0.22977   0.81913   0.79543   0.453
    C2419   C    0.74397   0.84753   0.37123   0.453
    C2420   C    0.10357   0.25603   0.37123   0.453
    C2421   C    0.15247   0.89643   0.37123   0.453
    C2422   C    0.15247   0.25603   0.87123   0.453
    C2423   C    0.74397   0.89643   0.87123   0.453
    C2424   C    0.10357   0.84753   0.87123   0.453
    C2425   C    0.58937   0.81913   0.29543   0.453
    C2426   C    0.22977   0.41063   0.29543   0.453
    C2427   C    0.18087   0.77023   0.29543   0.453
    C2428   C    0.84753   0.74397   0.12877   0.453
    C2429   C    0.25603   0.10357   0.12877   0.453
    C2430   C    0.89643   0.15247   0.12877   0.453
    C2431   C    0.41063   0.18087   0.70457   0.453
    C2432   C    0.77023   0.58937   0.70457   0.453
    C2433   C    0.81913   0.22977   0.70457   0.453
    C2434   C    0.81913   0.58937   0.20457   0.453
    C2435   C    0.41063   0.22977   0.20457   0.453
    C2436   C    0.77023   0.18087   0.20457   0.453
    C2437   C    0.25603   0.15247   0.62877   0.453
    C2438   C    0.89643   0.74397   0.62877   0.453
    C2439   C    0.84753   0.10357   0.62877   0.453
loop_
    _geom_bond_atom_site_label_1
    _geom_bond_atom_site_label_2
    _geom_bond_distance
    _geom_bond_site_symmetry_2
    _ccdc_geom_bond_type
    C1295  C1260     1.41245      .   S
    C1295  C1365     1.28209      .   S
    C1295  H1330     0.95170  1_554   S
    C1294  C1259     1.41245      .   S
    C1294  C1364     1.28209      .   S
    C1294  H1329     0.95170  1_554   S
    C1293  C1258     1.41245      .   S
    C1293  C1363     1.28209      .   S
    C1293  H1328     0.95170  1_554   S
    C1258  C1188     1.43713      .   S
    C1258  C1433     1.53367  1_554   S
    C1260  C1190     1.43713      .   S
    C1260  C1435     1.53367  1_554   S
    C1259  C1189     1.43713      .   S
    C1259  C1434     1.53367  1_554   S
    H1322  C1287     0.95170  1_554   S
    H1323  C1288     0.95170  1_554   S
    H1324  C1289     0.95170  1_554   S
    C1427  O307      1.16042      .   S
    C1427  O342      1.51592      .   S
    C1427  C1252     1.53367  1_554   S
    C1429  O309      1.16042      .   S
    C1429  O344      1.51592      .   S
    C1429  C1254     1.53367  1_554   S
    C1428  O308      1.16042      .   S
    C1428  O343      1.51592      .   S
    C1428  C1253     1.53367  1_554   S
    O308   Zn120     1.87734      .   S
    O309   Zn118     1.87734      .   S
    O307   Zn119     1.87734      .   S
    H1400  C1365     0.95056      .   S
    H1399  C1364     0.95056      .   S
    H1398  C1363     0.95056      .   S
    O342   Zn118     1.80628      .   S
    O343   Zn119     1.80628      .   S
    O344   Zn120     1.80628      .   S
    H1223  C1188     0.94932      .   S
    H1224  C1189     0.94932      .   S
    H1225  C1190     0.94932      .   S
    C1363  C1118     1.48748      .   S
    C1365  C1120     1.48748      .   S
    C1364  C1119     1.48748      .   S
    C1190  C1155     1.38515      .   S
    C1189  C1154     1.38515      .   S
    C1188  C1153     1.38515      .   S
    Zn118  O413      1.96104      .   S
    Zn119  O414      1.96104      .   S
    Zn120  O181      1.94120      .   S
    Zn120  O412      1.96104      .   S
    C1154  C1119     1.45249      .   S
    C1154  N664      1.47250      .   S
    C1153  C1118     1.45249      .   S
    C1153  N663      1.47250      .   S
    C1155  C1120     1.45249      .   S
    C1155  N665      1.47250      .   S
    C1119  C909      1.42151      .   S
    C1118  C908      1.42151      .   S
    C1120  C910      1.42151      .   S
    H630   N595      0.88291  1_545   S
    H629   N594      0.88291  1_655   S
    H628   N593      0.88291      .   S
    O181   Zn151     1.88816      .   S
    N594   C1084     1.46906      .   S
    N594   C874      1.43139      .   S
    N595   C1085     1.46906      .   S
    N595   C875      1.43139      .   S
    N593   C1083     1.46906      .   S
    N593   C873      1.43139      .   S
    N663   C1083     1.26439      .   S
    N663   H698      0.88080      .   S
    N664   C1084     1.26439      .   S
    N664   H699      0.88080      .   S
    N665   C1085     1.26439      .   S
    N665   H700      0.88080      .   S
    C909   C874      1.42467      .   S
    C909   C944      1.31172      .   S
    C910   C875      1.42467      .   S
    C910   C945      1.31172      .   S
    C908   C873      1.42467      .   S
    C908   C943      1.31172      .   S
    C1083  O278      1.13307      .   S
    C1084  O279      1.13307  1_455   S
    C1085  O280      1.13307  1_565   S
    C873   C803      1.41715      .   S
    C875   C805      1.41715      .   S
    C874   C804      1.41715      .   S
    H979   C944      0.94698      .   S
    H978   C943      0.94698      .   S
    H980   C945      0.94698      .   S
    O414   C1464     1.27106      .   S
    O413   C1463     1.27106      .   S
    O412   C1462     1.27106      .   S
    C943   C1013     1.43040      .   S
    C944   C1014     1.43040      .   S
    C945   C1015     1.43040      .   S
    O484   C2409     1.14833      .   S
    O483   C2408     1.14833      .   S
    O482   C2407     1.14833      .   S
    C803   H838      0.95051      .   S
    C803   C768      1.37472      .   S
    C804   H839      0.95051  1_455   S
    C804   C769      1.37472      .   S
    C805   H840      0.95051  1_565   S
    C805   C770      1.37472      .   S
    H1742  C1707     0.94598      .   S
    H1743  C1708     0.94598      .   S
    H1744  C1709     0.94598      .   S
    C1015  C770      1.44574      .   S
    C1015  H1050     0.94937      .   S
    C1014  C769      1.44574      .   S
    C1014  H1049     0.94937      .   S
    C1013  C768      1.44574      .   S
    C1013  H1048     0.94937      .   S
    Zn151  O378      1.92853      .   S
    Zn151  O377      1.92897      .   S
    Zn151  O379      1.93067      .   S
    C770   C735      1.47957      .   S
    C768   C733      1.47957      .   S
    C769   C734      1.47957      .   S
    C2409  N2269     1.49425      .   S
    C2409  N2339     1.46938      .   S
    C2408  N2268     1.49425      .   S
    C2408  N2338     1.46938      .   S
    C2407  N2267     1.49425      .   S
    C2407  N2337     1.46938      .   S
    C1464  O379      1.24881      .   S
    C1464  C1499     1.52151      .   S
    C1463  O378      1.24881      .   S
    C1463  C1498     1.52151      .   S
    C1462  O377      1.24881      .   S
    C1462  C1497     1.52151      .   S
    C1708  C1498     1.32211      .   S
    C1708  C1673     1.44525      .   S
    C1707  C1497     1.32211      .   S
    C1707  C1672     1.44525      .   S
    C1709  C1499     1.32211      .   S
    C1709  C1674     1.44525      .   S
    H2303  N2268     0.87878      .   S
    H2302  N2267     0.87878      .   S
    H2304  N2269     0.87878      .   S
    N2267  C1672     1.38928  1_455   S
    N2269  C1674     1.38928      .   S
    N2268  C1673     1.38928  1_565   S
    C733   O208      1.22516      .   S
    C733   O243      1.34273      .   S
    C734   O209      1.22516  1_455   S
    C734   O244      1.34273      .   S
    C735   O210      1.22516  1_565   S
    C735   O245      1.34273      .   S
    C1498  C1533     1.38417      .   S
    C1497  C1532     1.38417      .   S
    C1499  C1534     1.38417      .   S
    H2373  N2338     0.87926      .   S
    H2374  N2339     0.87926      .   S
    H2372  N2337     0.87926      .   S
    O209   Zn89      1.91203      .   S
    O208   Zn91      1.91203      .   S
    O210   Zn90      1.91203      .   S
    N2339  C2024     1.36686      .   S
    N2338  C2023     1.36686      .   S
    N2337  C2022     1.36686      .   S
    C1672  C1637     1.31386      .   S
    C1673  C1638     1.31386      .   S
    C1674  C1639     1.31386      .   S
    O243   Zn89      1.87392  1_565   S
    O244   Zn90      1.87392      .   S
    O245   Zn91      1.87392  1_455   S
    C1532  H1567     0.95075      .   S
    C1532  C1602     1.43854      .   S
    C1533  H1568     0.95075      .   S
    C1533  C1603     1.43854      .   S
    C1534  H1569     0.95075      .   S
    C1534  C1604     1.43854      .   S
    Zn91   O538      1.87455      .   S
    Zn90   O172      1.93287      .   S
    Zn90   O539      1.87455      .   S
    Zn89   O172      1.93287  1_655   S
    Zn89   O540      1.87455      .   S
    C1639  C1604     1.38180      .   S
    C1639  C1779     1.41515      .   S
    C1638  C1603     1.38180      .   S
    C1638  C1778     1.41515  1_545   S
    C1637  C1602     1.38180      .   S
    C1637  C1777     1.41515  1_655   S
    C2022  C1777     1.41521      .   S
    C2022  C1952     1.33862      .   S
    C2023  C1778     1.41521      .   S
    C2023  C1953     1.33862      .   S
    C2024  C1779     1.41521      .   S
    C2024  C1954     1.33862      .   S
    C1602  N2092     1.44860      .   S
    C1603  N2093     1.44860      .   S
    C1604  N2094     1.44860      .   S
    H1989  C1954     0.94802      .   S
    H1988  C1953     0.94802      .   S
    H1987  C1952     0.94802      .   S
    C1779  C1814     1.43562      .   S
    C1778  C1813     1.43562      .   S
    C1777  C1812     1.43562      .   S
    C1952  C1917     1.37475      .   S
    C1953  C1918     1.37475      .   S
    C1954  C1919     1.37475      .   S
    O539   C2079     1.19042      .   S
    O538   C2078     1.19042      .   S
    O540   C2080     1.19042      .   S
    O468   C2253     1.12166      .   S
    O469   C2254     1.12166      .   S
    O470   C2255     1.12166      .   S
    H2128  N2093     0.87778      .   S
    H2129  N2094     0.87778      .   S
    H2127  N2092     0.87778      .   S
    N2092  C2232     1.46454      .   S
    N2094  C2234     1.46454      .   S
    N2093  C2233     1.46454      .   S
    H1905  C1870     0.94808      .   S
    H1903  C1868     0.94808      .   S
    H1904  C1869     0.94808      .   S
    H2219  N2184     0.88301      .   S
    H2220  N2185     0.88301      .   S
    H2218  N2183     0.88301      .   S
    C1812  C1847     1.33681      .   S
    C1812  N2162     1.48041  1_455   S
    C1814  C1849     1.33681      .   S
    C1814  N2164     1.48041      .   S
    C1813  C1848     1.33681      .   S
    C1813  N2163     1.48041  1_565   S
    C1919  C1849     1.42566      .   S
    C1919  C2059     1.55459      .   S
    C1918  C1848     1.42566      .   S
    C1918  C2058     1.55459      .   S
    C1917  C1847     1.42566      .   S
    C1917  C2057     1.55459      .   S
    C2080  O575      1.33972      .   S
    C2080  C1940     1.55459      .   S
    C2079  O574      1.33972      .   S
    C2079  C1939     1.55459      .   S
    C2078  O573      1.33972      .   S
    C2078  C1938     1.55459      .   S
    Zn72   O575      1.90979  1_455   S
    Zn72   O574      1.90979      .   S
    Zn72   O573      1.90979  1_445   S
    C2255  N2185     1.44487      .   S
    C2255  N2115     1.46454      .   S
    C2253  N2183     1.44487      .   S
    C2253  N2113     1.46454      .   S
    C2254  N2184     1.44487      .   S
    C2254  N2114     1.46454      .   S
    O554   Zn79      1.90979      .   S
    O554   C2059     1.33972      .   S
    O553   Zn79      1.90979      .   S
    O553   C2058     1.33972      .   S
    O552   Zn79      1.90979      .   S
    O552   C2057     1.33972      .   S
    N2183  C1833     1.48041      .   S
    N2184  C1834     1.48041      .   S
    N2185  C1835     1.48041      .   S
    C1869  C1939     1.42566      .   S
    C1869  C1834     1.33681      .   S
    C1870  C1940     1.42566      .   S
    C1870  C1835     1.33681      .   S
    C1868  C1938     1.42566      .   S
    C1868  C1833     1.33681      .   S
    C1849  H1884     0.94808      .   S
    C1847  H1882     0.94808      .   S
    C1848  H1883     0.94808      .   S
    N2164  C2234     1.44487      .   S
    N2164  H2199     0.88301      .   S
    N2163  C2233     1.44487      .   S
    N2163  H2198     0.88301      .   S
    N2162  C2232     1.44487      .   S
    N2162  H2197     0.88301      .   S
    C2234  O449      1.12166      .   S
    C2233  O448      1.12166      .   S
    C2232  O447      1.12166      .   S
    C2059  O519      1.19042      .   S
    C2058  O518      1.19042      .   S
    C2057  O517      1.19042      .   S
    C1938  C1973     1.37475      .   S
    C1939  C1974     1.37475      .   S
    C1940  C1975     1.37475      .   S
    C1833  C1798     1.43562      .   S
    C1835  C1800     1.43562      .   S
    C1834  C1799     1.43562      .   S
    N2115  H2150     0.87778      .   S
    N2115  C1625     1.44860      .   S
    N2114  H2149     0.87778      .   S
    N2114  C1624     1.44860      .   S
    N2113  H2148     0.87778      .   S
    N2113  C1623     1.44860      .   S
    O519   Zn110     1.87455      .   S
    O517   Zn112     1.87455      .   S
    O518   Zn111     1.87455      .   S
    C1973  H2008     0.94802      .   S
    C1973  C2043     1.33862      .   S
    C1974  H2009     0.94802      .   S
    C1974  C2044     1.33862      .   S
    C1975  H2010     0.94802      .   S
    C1975  C2045     1.33862      .   S
    C1800  C2045     1.41521      .   S
    C1800  C1660     1.41515      .   S
    C1799  C2044     1.41521      .   S
    C1799  C1659     1.41515      .   S
    C1798  C2043     1.41521      .   S
    C1798  C1658     1.41515      .   S
    O179   Zn110     1.93287      .   S
    O179   Zn111     1.93287      .   S
    C1624  C1659     1.38180      .   S
    C1624  C1554     1.43854      .   S
    C1625  C1660     1.38180      .   S
    C1625  C1555     1.43854      .   S
    C1623  C1658     1.38180      .   S
    C1623  C1553     1.43854      .   S
    C2045  N2360     1.36686      .   S
    C2044  N2359     1.36686      .   S
    C2043  N2358     1.36686      .   S
    H1590  C1555     0.95075      .   S
    H1589  C1554     0.95075      .   S
    H1588  C1553     0.95075      .   S
    C1658  C1693     1.31386      .   S
    C1659  C1694     1.31386      .   S
    C1660  C1695     1.31386      .   S
    Zn110  O264      1.87392      .   S
    Zn110  O230      1.91203      .   S
    Zn112  O266      1.87392      .   S
    Zn112  O229      1.91203      .   S
    Zn111  O265      1.87392      .   S
    Zn111  O231      1.91203      .   S
    C1555  C1520     1.38417      .   S
    C1554  C1519     1.38417      .   S
    C1553  C1518     1.38417      .   S
    O265   C755      1.34273      .   S
    O266   C756      1.34273      .   S
    O264   C754      1.34273      .   S
    C1694  N2289     1.38928      .   S
    C1694  C1729     1.44525      .   S
    C1693  N2288     1.38928      .   S
    C1693  C1728     1.44525      .   S
    C1695  N2290     1.38928      .   S
    C1695  C1730     1.44525      .   S
    N2358  H2393     0.87926      .   S
    N2358  C2428     1.46938      .   S
    N2359  H2394     0.87926      .   S
    N2359  C2429     1.46938      .   S
    N2360  H2395     0.87926      .   S
    N2360  C2430     1.46938      .   S
    O231   C756      1.22516      .   S
    O229   C754      1.22516      .   S
    O230   C755      1.22516      .   S
    C1518  C1728     1.32211      .   S
    C1518  C1483     1.52151      .   S
    C1519  C1729     1.32211      .   S
    C1519  C1484     1.52151      .   S
    C1520  C1730     1.32211      .   S
    C1520  C1485     1.52151      .   S
    C756   C791      1.47957      .   S
    C755   C790      1.47957      .   S
    C754   C789      1.47957      .   S
    O400   C1485     1.24881      .   S
    O400   Zn162     1.93067      .   S
    O399   C1484     1.24881      .   S
    O399   Zn162     1.92853      .   S
    O398   C1483     1.24881      .   S
    O398   Zn162     1.92897      .   S
    N2290  H2325     0.87878      .   S
    N2290  C2430     1.49425      .   S
    N2288  H2323     0.87878      .   S
    N2288  C2428     1.49425      .   S
    N2289  H2324     0.87878      .   S
    N2289  C2429     1.49425      .   S
    C1730  H1765     0.94598      .   S
    C1729  H1764     0.94598      .   S
    C1728  H1763     0.94598      .   S
    C1484  O434      1.27106      .   S
    C1485  O435      1.27106      .   S
    C1483  O433      1.27106      .   S
    C2428  O503      1.14833      .   S
    C2429  O504      1.14833      .   S
    C2430  O505      1.14833      .   S
    H1071  C1036     0.94937      .   S
    H1070  C1035     0.94937      .   S
    H1069  C1034     0.94937      .   S
    C789   C1034     1.44574      .   S
    C789   C824      1.37472      .   S
    C790   C1035     1.44574      .   S
    C790   C825      1.37472      .   S
    C791   C1036     1.44574      .   S
    C791   C826      1.37472      .   S
    Zn162  O192      1.88816      .   S
    H859   C824      0.95051      .   S
    H860   C825      0.95051      .   S
    H861   C826      0.95051      .   S
    C1035  C965      1.43040      .   S
    C1036  C966      1.43040      .   S
    C1034  C964      1.43040      .   S
    C824   C894      1.41715      .   S
    C825   C895      1.41715      .   S
    C826   C896      1.41715      .   S
    C964   H999      0.94698      .   S
    C964   C929      1.31172      .   S
    C965   H1000     0.94698      .   S
    C965   C930      1.31172      .   S
    C966   H1001     0.94698      .   S
    C966   C931      1.31172      .   S
    O435   Zn140     1.96104      .   S
    O434   Zn139     1.96104      .   S
    O433   Zn141     1.96104      .   S
    H719   N684      0.88080  1_655   S
    H721   N686      0.88080  1_545   S
    H720   N685      0.88080      .   S
    C896   C931      1.42467      .   S
    C896   N616      1.43139      .   S
    C895   C930      1.42467      .   S
    C895   N615      1.43139      .   S
    C894   C929      1.42467      .   S
    C894   N614      1.43139      .   S
    O299   C1104     1.13307  1_655   S
    O301   C1106     1.13307  1_545   S
    O300   C1105     1.13307      .   S
    C1106  N686      1.26439      .   S
    C1106  N616      1.46906      .   S
    C1105  N685      1.26439      .   S
    C1105  N615      1.46906      .   S
    C1104  N684      1.26439      .   S
    C1104  N614      1.46906      .   S
    C931   C1141     1.42151      .   S
    C930   C1140     1.42151      .   S
    C929   C1139     1.42151      .   S
    N686   C1176     1.47250      .   S
    N685   C1175     1.47250      .   S
    N684   C1174     1.47250      .   S
    N614   H649      0.88291      .   S
    N616   H651      0.88291      .   S
    N615   H650      0.88291      .   S
    O192   Zn141     1.94120      .   S
    C1141  C1176     1.45249      .   S
    C1141  C1386     1.48748      .   S
    C1140  C1175     1.45249      .   S
    C1140  C1385     1.48748      .   S
    C1139  C1174     1.45249      .   S
    C1139  C1384     1.48748      .   S
    C1175  C1210     1.38515      .   S
    C1174  C1209     1.38515      .   S
    C1176  C1211     1.38515      .   S
    Zn141  O365      1.80628      .   S
    Zn141  O329      1.87734      .   S
    Zn140  O364      1.80628      .   S
    Zn140  O328      1.87734      .   S
    Zn139  O363      1.80628      .   S
    Zn139  O330      1.87734      .   S
    C1209  H1244     0.94932  1_455   S
    C1209  C1279     1.43713      .   S
    C1210  H1245     0.94932      .   S
    C1210  C1280     1.43713      .   S
    C1211  H1246     0.94932  1_565   S
    C1211  C1281     1.43713      .   S
    C1385  H1420     0.95056      .   S
    C1385  C1315     1.28209      .   S
    C1386  H1421     0.95056      .   S
    C1386  C1316     1.28209      .   S
    C1384  H1419     0.95056      .   S
    C1384  C1314     1.28209      .   S
    O365   C1450     1.51592      .   S
    O364   C1449     1.51592      .   S
    O363   C1448     1.51592      .   S
    O330   C1450     1.16042      .   S
    O329   C1449     1.16042      .   S
    O328   C1448     1.16042      .   S
    C1448  C1273     1.53367      .   S
    C1449  C1274     1.53367      .   S
    C1450  C1275     1.53367      .   S
    H1345  C1310     0.95170      .   S
    H1344  C1309     0.95170      .   S
    H1343  C1308     0.95170      .   S
    C1279  C1314     1.41245      .   S
    C1279  C1454     1.53367      .   S
    C1280  C1315     1.41245      .   S
    C1280  C1455     1.53367      .   S
    C1281  C1316     1.41245      .   S
    C1281  C1456     1.53367      .   S
    C1315  H1350     0.95170      .   S
    C1316  H1351     0.95170      .   S
    C1314  H1349     0.95170      .   S
    C1309  C1274     1.41245      .   S
    C1309  C1379     1.28209      .   S
    C1310  C1275     1.41245      .   S
    C1310  C1380     1.28209      .   S
    C1308  C1273     1.41245      .   S
    C1308  C1378     1.28209      .   S
    C1275  C1205     1.43713      .   S
    C1274  C1204     1.43713      .   S
    C1273  C1203     1.43713      .   S
    C1456  O336      1.16042  1_565   S
    C1456  O371      1.51592      .   S
    C1455  O335      1.16042      .   S
    C1455  O370      1.51592      .   S
    C1454  O334      1.16042  1_455   S
    C1454  O369      1.51592      .   S
    O336   Zn145     1.87734      .   S
    O335   Zn147     1.87734      .   S
    O334   Zn146     1.87734      .   S
    H1415  C1380     0.95056      .   S
    H1414  C1379     0.95056      .   S
    H1413  C1378     0.95056      .   S
    O371   Zn147     1.80628  1_455   S
    O369   Zn145     1.80628      .   S
    O370   Zn146     1.80628  1_565   S
    H1240  C1205     0.94932      .   S
    H1239  C1204     0.94932      .   S
    H1238  C1203     0.94932      .   S
    C1380  C1135     1.48748      .   S
    C1379  C1134     1.48748      .   S
    C1378  C1133     1.48748      .   S
    C1203  C1168     1.38515      .   S
    C1204  C1169     1.38515      .   S
    C1205  C1170     1.38515      .   S
    Zn145  O197      1.94120      .   S
    Zn146  O198      1.94120  1_545   S
    Zn147  O196      1.94120  1_655   S
    C1170  C1135     1.45249      .   S
    C1170  N680      1.47250      .   S
    C1168  C1133     1.45249      .   S
    C1168  N678      1.47250      .   S
    C1169  C1134     1.45249      .   S
    C1169  N679      1.47250      .   S
    C1133  C923      1.42151  1_545   S
    C1134  C924      1.42151  1_655   S
    C1135  C925      1.42151      .   S
    H643   N608      0.88291      .   S
    H644   N609      0.88291      .   S
    H645   N610      0.88291      .   S
    O198   Zn168     1.88816      .   S
    O197   Zn167     1.88816      .   S
    O196   Zn166     1.88816      .   S
    N609   C1099     1.46906  1_455   S
    N609   C889      1.43139      .   S
    N608   C1098     1.46906  1_565   S
    N608   C888      1.43139      .   S
    N610   C1100     1.46906      .   S
    N610   C890      1.43139      .   S
    N680   C1100     1.26439      .   S
    N680   H715      0.88080      .   S
    N679   C1099     1.26439      .   S
    N679   H714      0.88080      .   S
    N678   C1098     1.26439      .   S
    N678   H713      0.88080      .   S
    C925   C890      1.42467      .   S
    C925   C960      1.31172      .   S
    C924   C889      1.42467      .   S
    C924   C959      1.31172      .   S
    C923   C888      1.42467      .   S
    C923   C958      1.31172      .   S
    C1098  O293      1.13307      .   S
    C1099  O294      1.13307      .   S
    C1100  O295      1.13307      .   S
    C889   C819      1.41715      .   S
    C888   C818      1.41715      .   S
    C890   C820      1.41715      .   S
    H995   C960      0.94698      .   S
    H994   C959      0.94698      .   S
    H993   C958      0.94698      .   S
    O441   C1491     1.27106      .   S
    O439   C1489     1.27106      .   S
    O440   C1490     1.27106      .   S
    C958   C1028     1.43040      .   S
    C959   C1029     1.43040      .   S
    C960   C1030     1.43040      .   S
    O509   C2434     1.14833      .   S
    O510   C2435     1.14833      .   S
    O511   C2436     1.14833      .   S
    C818   H853      0.95051      .   S
    C818   C783      1.37472      .   S
    C820   H855      0.95051      .   S
    C820   C785      1.37472      .   S
    C819   H854      0.95051      .   S
    C819   C784      1.37472      .   S
    H1769  C1734     0.94598      .   S
    H1770  C1735     0.94598      .   S
    H1771  C1736     0.94598      .   S
    C1029  C784      1.44574      .   S
    C1029  H1064     0.94937      .   S
    C1028  C783      1.44574      .   S
    C1028  H1063     0.94937      .   S
    C1030  C785      1.44574      .   S
    C1030  H1065     0.94937      .   S
    C785   C750      1.47957      .   S
    C783   C748      1.47957      .   S
    C784   C749      1.47957      .   S
    C2436  N2296     1.49425      .   S
    C2436  N2366     1.46938      .   S
    C2435  N2295     1.49425      .   S
    C2435  N2365     1.46938      .   S
    C2434  N2294     1.49425      .   S
    C2434  N2364     1.46938      .   S
    C1490  O405      1.24881      .   S
    C1490  C1525     1.52151      .   S
    C1491  O406      1.24881      .   S
    C1491  C1526     1.52151      .   S
    C1489  O404      1.24881      .   S
    C1489  C1524     1.52151      .   S
    C1734  C1524     1.32211      .   S
    C1734  C1699     1.44525      .   S
    C1735  C1525     1.32211      .   S
    C1735  C1700     1.44525      .   S
    C1736  C1526     1.32211      .   S
    C1736  C1701     1.44525      .   S
    H2331  N2296     0.87878      .   S
    H2330  N2295     0.87878      .   S
    H2329  N2294     0.87878      .   S
    N2296  C1701     1.38928      .   S
    N2295  C1700     1.38928      .   S
    N2294  C1699     1.38928      .   S
    C749   O224      1.22516      .   S
    C749   O259      1.34273      .   S
    C750   O225      1.22516      .   S
    C750   O260      1.34273      .   S
    C748   O223      1.22516      .   S
    C748   O258      1.34273      .   S
    C1524  C1559     1.38417      .   S
    C1526  C1561     1.38417      .   S
    C1525  C1560     1.38417      .   S
    H2400  N2365     0.87926      .   S
    H2399  N2364     0.87926      .   S
    H2401  N2366     0.87926      .   S
    O225   Zn105     1.91203      .   S
    O224   Zn104     1.91203      .   S
    O223   Zn106     1.91203      .   S
    N2366  C2051     1.36686      .   S
    N2364  C2049     1.36686      .   S
    N2365  C2050     1.36686      .   S
    C1701  C1666     1.31386      .   S
    C1700  C1665     1.31386      .   S
    C1699  C1664     1.31386      .   S
    O260   Zn106     1.87392      .   S
    O259   Zn105     1.87392      .   S
    O258   Zn104     1.87392      .   S
    C1559  H1594     0.95075      .   S
    C1559  C1629     1.43854      .   S
    C1561  H1596     0.95075      .   S
    C1561  C1631     1.43854      .   S
    C1560  H1595     0.95075      .   S
    C1560  C1630     1.43854      .   S
    Zn106  O177      1.93287      .   S
    Zn106  O535      1.87455      .   S
    Zn105  O536      1.87455      .   S
    Zn104  O177      1.93287      .   S
    Zn104  O537      1.87455      .   S
    C1666  C1631     1.38180      .   S
    C1666  C1806     1.41515      .   S
    C1664  C1629     1.38180      .   S
    C1664  C1804     1.41515      .   S
    C1665  C1630     1.38180      .   S
    C1665  C1805     1.41515      .   S
    C2050  C1805     1.41521      .   S
    C2050  C1980     1.33862      .   S
    C2049  C1804     1.41521      .   S
    C2049  C1979     1.33862      .   S
    C2051  C1806     1.41521      .   S
    C2051  C1981     1.33862      .   S
    C1630  N2120     1.44860      .   S
    C1629  N2119     1.44860      .   S
    C1631  N2121     1.44860      .   S
    H2014  C1979     0.94802      .   S
    H2015  C1980     0.94802      .   S
    H2016  C1981     0.94802      .   S
    C1805  C1840     1.43562      .   S
    C1806  C1841     1.43562      .   S
    C1804  C1839     1.43562      .   S
    C1981  C1946     1.37475      .   S
    C1980  C1945     1.37475      .   S
    C1979  C1944     1.37475      .   S
    O537   C2077     1.19042      .   S
    O536   C2076     1.19042      .   S
    O535   C2075     1.19042      .   S
    O467   C2252     1.12166      .   S
    O466   C2251     1.12166      .   S
    O465   C2250     1.12166      .   S
    H2156  N2121     0.87778      .   S
    H2155  N2120     0.87778      .   S
    H2154  N2119     0.87778      .   S
    N2120  C2260     1.46454      .   S
    N2119  C2259     1.46454      .   S
    N2121  C2261     1.46454      .   S
    H1902  C1867     0.94808      .   S
    H1901  C1866     0.94808      .   S
    H1900  C1865     0.94808      .   S
    H2217  N2182     0.88301      .   S
    H2216  N2181     0.88301      .   S
    H2215  N2180     0.88301      .   S
    C1841  C1876     1.33681      .   S
    C1841  N2191     1.48041      .   S
    C1839  C1874     1.33681      .   S
    C1839  N2189     1.48041      .   S
    C1840  C1875     1.33681      .   S
    C1840  N2190     1.48041      .   S
    C1945  C1875     1.42566      .   S
    C1945  C2085     1.55459      .   S
    C1946  C1876     1.42566      .   S
    C1946  C2086     1.55459      .   S
    C1944  C1874     1.42566      .   S
    C1944  C2084     1.55459      .   S
    C2077  O572      1.33972      .   S
    C2077  C1937     1.55459      .   S
    C2076  O571      1.33972      .   S
    C2076  C1936     1.55459      .   S
    C2075  O570      1.33972      .   S
    C2075  C1935     1.55459      .   S
    Zn77   O572      1.90979      .   S
    Zn77   O571      1.90979      .   S
    Zn77   O570      1.90979      .   S
    C2252  N2182     1.44487      .   S
    C2252  N2112     1.46454      .   S
    C2251  N2181     1.44487      .   S
    C2251  N2111     1.46454      .   S
    C2250  N2180     1.44487      .   S
    C2250  N2110     1.46454      .   S
    O579   Zn74      1.90979      .   S
    O579   C2084     1.33972      .   S
    O580   Zn74      1.90979      .   S
    O580   C2085     1.33972      .   S
    O581   Zn74      1.90979      .   S
    O581   C2086     1.33972      .   S
    N2181  C1831     1.48041      .   S
    N2182  C1832     1.48041      .   S
    N2180  C1830     1.48041      .   S
    C1865  C1935     1.42566      .   S
    C1865  C1830     1.33681      .   S
    C1867  C1937     1.42566      .   S
    C1867  C1832     1.33681      .   S
    C1866  C1936     1.42566      .   S
    C1866  C1831     1.33681      .   S
    C1874  H1909     0.94808      .   S
    C1876  H1911     0.94808      .   S
    C1875  H1910     0.94808      .   S
    N2189  C2259     1.44487      .   S
    N2189  H2224     0.88301      .   S
    N2190  C2260     1.44487      .   S
    N2190  H2225     0.88301      .   S
    N2191  C2261     1.44487      .   S
    N2191  H2226     0.88301      .   S
    C2261  O476      1.12166      .   S
    C2259  O474      1.12166      .   S
    C2260  O475      1.12166      .   S
    C2084  O544      1.19042      .   S
    C2085  O545      1.19042      .   S
    C2086  O546      1.19042      .   S
    C1935  C1970     1.37475      .   S
    C1937  C1972     1.37475      .   S
    C1936  C1971     1.37475      .   S
    C1832  C1797     1.43562      .   S
    C1831  C1796     1.43562      .   S
    C1830  C1795     1.43562      .   S
    N2111  H2146     0.87778      .   S
    N2111  C1621     1.44860      .   S
    N2110  H2145     0.87778      .   S
    N2110  C1620     1.44860      .   S
    N2112  H2147     0.87778      .   S
    N2112  C1622     1.44860      .   S
    O544   Zn97      1.87455      .   S
    O546   Zn95      1.87455      .   S
    O545   Zn96      1.87455      .   S
    C1970  H2005     0.94802      .   S
    C1970  C2040     1.33862      .   S
    C1971  H2006     0.94802      .   S
    C1971  C2041     1.33862      .   S
    C1972  H2007     0.94802      .   S
    C1972  C2042     1.33862      .   S
    C1796  C2041     1.41521      .   S
    C1796  C1656     1.41515      .   S
    C1795  C2040     1.41521      .   S
    C1795  C1655     1.41515      .   S
    C1797  C2042     1.41521      .   S
    C1797  C1657     1.41515      .   S
    O174   Zn95      1.93287      .   S
    O174   Zn97      1.93287      .   S
    C1621  C1656     1.38180      .   S
    C1621  C1551     1.43854      .   S
    C1622  C1657     1.38180      .   S
    C1622  C1552     1.43854      .   S
    C1620  C1655     1.38180      .   S
    C1620  C1550     1.43854      .   S
    C2041  N2356     1.36686      .   S
    C2040  N2355     1.36686      .   S
    C2042  N2357     1.36686      .   S
    H1587  C1552     0.95075      .   S
    H1585  C1550     0.95075      .   S
    H1586  C1551     0.95075      .   S
    C1656  C1691     1.31386      .   S
    C1655  C1690     1.31386      .   S
    C1657  C1692     1.31386      .   S
    Zn96   O250      1.87392      .   S
    Zn96   O216      1.91203      .   S
    Zn95   O249      1.87392      .   S
    Zn95   O215      1.91203      .   S
    Zn97   O251      1.87392      .   S
    Zn97   O214      1.91203      .   S
    C1550  C1515     1.38417      .   S
    C1551  C1516     1.38417      .   S
    C1552  C1517     1.38417      .   S
    O249   C739      1.34273      .   S
    O250   C740      1.34273      .   S
    O251   C741      1.34273      .   S
    C1692  N2287     1.38928      .   S
    C1692  C1727     1.44525      .   S
    C1691  N2286     1.38928      .   S
    C1691  C1726     1.44525      .   S
    C1690  N2285     1.38928      .   S
    C1690  C1725     1.44525      .   S
    N2355  H2390     0.87926      .   S
    N2355  C2425     1.46938      .   S
    N2357  H2392     0.87926      .   S
    N2357  C2427     1.46938      .   S
    N2356  H2391     0.87926      .   S
    N2356  C2426     1.46938      .   S
    O214   C739      1.22516      .   S
    O215   C740      1.22516      .   S
    O216   C741      1.22516      .   S
    C1517  C1727     1.32211      .   S
    C1517  C1482     1.52151      .   S
    C1515  C1725     1.32211      .   S
    C1515  C1480     1.52151      .   S
    C1516  C1726     1.32211      .   S
    C1516  C1481     1.52151      .   S
    C740   C775      1.47957      .   S
    C741   C776      1.47957      .   S
    C739   C774      1.47957      .   S
    O395   C1480     1.24881      .   S
    O396   C1481     1.24881      .   S
    O397   C1482     1.24881      .   S
    N2285  H2320     0.87878      .   S
    N2285  C2425     1.49425      .   S
    N2286  H2321     0.87878      .   S
    N2286  C2426     1.49425      .   S
    N2287  H2322     0.87878      .   S
    N2287  C2427     1.49425      .   S
    C1727  H1762     0.94598      .   S
    C1726  H1761     0.94598      .   S
    C1725  H1760     0.94598      .   S
    C1481  O431      1.27106      .   S
    C1480  O430      1.27106      .   S
    C1482  O432      1.27106      .   S
    C2425  O500      1.14833      .   S
    C2427  O502      1.14833      .   S
    C2426  O501      1.14833      .   S
    H1054  C1019     0.94937      .   S
    H1055  C1020     0.94937      .   S
    H1056  C1021     0.94937      .   S
    C776   C1021     1.44574      .   S
    C776   C811      1.37472      .   S
    C775   C1020     1.44574      .   S
    C775   C810      1.37472      .   S
    C774   C1019     1.44574      .   S
    C774   C809      1.37472      .   S
    Zn161  O191      1.88816      .   S
    Zn160  O190      1.88816      .   S
    Zn159  O189      1.88816      .   S
    C1020  C950      1.43040      .   S
    C1019  C949      1.43040      .   S
    C1021  C951      1.43040      .   S
    H846   C811      0.95051      .   S
    H845   C810      0.95051      .   S
    H844   C809      0.95051      .   S
    C811   C881      1.41715      .   S
    C810   C880      1.41715      .   S
    C809   C879      1.41715      .   S
    C951   H986      0.94698      .   S
    C951   C916      1.31172      .   S
    C950   H985      0.94698      .   S
    C950   C915      1.31172      .   S
    C949   H984      0.94698      .   S
    C949   C914      1.31172      .   S
    H706   N671      0.88080      .   S
    H704   N669      0.88080      .   S
    H705   N670      0.88080      .   S
    C879   C914      1.42467      .   S
    C879   N599      1.43139      .   S
    C880   C915      1.42467      .   S
    C880   N600      1.43139      .   S
    C881   C916      1.42467      .   S
    C881   N601      1.43139      .   S
    O284   C1089     1.13307      .   S
    O286   C1091     1.13307      .   S
    O285   C1090     1.13307      .   S
    C1091  N671      1.26439      .   S
    C1091  N601      1.46906      .   S
    C1090  N670      1.26439      .   S
    C1090  N600      1.46906  1_565   S
    C1089  N669      1.26439      .   S
    C1089  N599      1.46906  1_455   S
    C915   C1125     1.42151  1_545   S
    C914   C1124     1.42151  1_655   S
    C916   C1126     1.42151      .   S
    N671   C1161     1.47250      .   S
    N670   C1160     1.47250      .   S
    N669   C1159     1.47250      .   S
    N599   H634      0.88291      .   S
    N600   H635      0.88291      .   S
    N601   H636      0.88291      .   S
    O190   Zn136     1.94120      .   S
    O189   Zn138     1.94120  1_545   S
    O191   Zn137     1.94120  1_655   S
    C1124  C1159     1.45249      .   S
    C1124  C1369     1.48748      .   S
    C1125  C1160     1.45249      .   S
    C1125  C1370     1.48748      .   S
    C1126  C1161     1.45249      .   S
    C1126  C1371     1.48748      .   S
    C1161  C1196     1.38515      .   S
    C1160  C1195     1.38515      .   S
    C1159  C1194     1.38515      .   S
    Zn137  O361      1.80628  1_455   S
    Zn137  O325      1.87734      .   S
    Zn136  O360      1.80628      .   S
    Zn136  O327      1.87734      .   S
    Zn138  O362      1.80628  1_565   S
    Zn138  O326      1.87734      .   S
    C1195  H1230     0.94932      .   S
    C1195  C1265     1.43713      .   S
    C1196  H1231     0.94932      .   S
    C1196  C1266     1.43713      .   S
    C1194  H1229     0.94932      .   S
    C1194  C1264     1.43713      .   S
    C1371  H1406     0.95056      .   S
    C1371  C1301     1.28209      .   S
    C1370  H1405     0.95056      .   S
    C1370  C1300     1.28209      .   S
    C1369  H1404     0.95056      .   S
    C1369  C1299     1.28209      .   S
    O360   C1445     1.51592      .   S
    O361   C1446     1.51592      .   S
    O362   C1447     1.51592      .   S
    O325   C1445     1.16042  1_565   S
    O326   C1446     1.16042      .   S
    O327   C1447     1.16042  1_455   S
    C1447  C1272     1.53367      .   S
    C1446  C1271     1.53367      .   S
    C1445  C1270     1.53367      .   S
    H1340  C1305     0.95170      .   S
    H1341  C1306     0.95170      .   S
    H1342  C1307     0.95170      .   S
    C1264  C1299     1.41245      .   S
    C1264  C1439     1.53367      .   S
    C1265  C1300     1.41245      .   S
    C1265  C1440     1.53367      .   S
    C1266  C1301     1.41245      .   S
    C1266  C1441     1.53367      .   S
    C1299  H1334     0.95170      .   S
    C1300  H1335     0.95170      .   S
    C1301  H1336     0.95170      .   S
    C1306  C1271     1.41245      .   S
    C1306  C1376     1.28209      .   S
    C1305  C1270     1.41245      .   S
    C1305  C1375     1.28209      .   S
    C1307  C1272     1.41245      .   S
    C1307  C1377     1.28209      .   S
    C1272  C1202     1.43713      .   S
    C1270  C1200     1.43713      .   S
    C1271  C1201     1.43713      .   S
    C1440  O320      1.16042      .   S
    C1440  O355      1.51592      .   S
    C1439  O319      1.16042      .   S
    C1439  O354      1.51592      .   S
    C1441  O321      1.16042      .   S
    C1441  O356      1.51592      .   S
    O321   Zn130     1.87734      .   S
    O319   Zn131     1.87734      .   S
    O320   Zn132     1.87734      .   S
    H1410  C1375     0.95056      .   S
    H1412  C1377     0.95056      .   S
    H1411  C1376     0.95056      .   S
    O354   Zn130     1.80628      .   S
    O356   Zn132     1.80628      .   S
    O355   Zn131     1.80628      .   S
    H1235  C1200     0.94932  1_565   S
    H1236  C1201     0.94932      .   S
    H1237  C1202     0.94932  1_455   S
    C1375  C1130     1.48748      .   S
    C1376  C1131     1.48748      .   S
    C1377  C1132     1.48748      .   S
    C1201  C1166     1.38515      .   S
    C1202  C1167     1.38515      .   S
    C1200  C1165     1.38515      .   S
    Zn130  O425      1.96104      .   S
    Zn131  O426      1.96104      .   S
    Zn132  O187      1.94120      .   S
    Zn132  O424      1.96104      .   S
    C1167  C1132     1.45249      .   S
    C1167  N677      1.47250      .   S
    C1166  C1131     1.45249      .   S
    C1166  N676      1.47250      .   S
    C1165  C1130     1.45249      .   S
    C1165  N675      1.47250      .   S
    C1130  C920      1.42151      .   S
    C1131  C921      1.42151      .   S
    C1132  C922      1.42151      .   S
    H641   N606      0.88291      .   S
    H640   N605      0.88291      .   S
    H642   N607      0.88291      .   S
    O187   Zn157     1.88816      .   S
    N606   C1096     1.46906      .   S
    N606   C886      1.43139      .   S
    N607   C1097     1.46906      .   S
    N607   C887      1.43139      .   S
    N605   C1095     1.46906      .   S
    N605   C885      1.43139      .   S
    N676   C1096     1.26439      .   S
    N676   H711      0.88080      .   S
    N675   C1095     1.26439      .   S
    N675   H710      0.88080  1_545   S
    N677   C1097     1.26439      .   S
    N677   H712      0.88080  1_655   S
    C921   C886      1.42467      .   S
    C921   C956      1.31172      .   S
    C920   C885      1.42467      .   S
    C920   C955      1.31172      .   S
    C922   C887      1.42467      .   S
    C922   C957      1.31172      .   S
    C1097  O292      1.13307  1_655   S
    C1095  O290      1.13307  1_545   S
    C1096  O291      1.13307      .   S
    C887   C817      1.41715      .   S
    C886   C816      1.41715      .   S
    C885   C815      1.41715      .   S
    H990   C955      0.94698      .   S
    H992   C957      0.94698      .   S
    H991   C956      0.94698      .   S
    O426   C1476     1.27106      .   S
    O425   C1475     1.27106      .   S
    O424   C1474     1.27106      .   S
    C955   C1025     1.43040      .   S
    C957   C1027     1.43040      .   S
    C956   C1026     1.43040      .   S
    O496   C2421     1.14833      .   S
    O495   C2420     1.14833      .   S
    O494   C2419     1.14833      .   S
    C817   H852      0.95051      .   S
    C817   C782      1.37472      .   S
    C816   H851      0.95051      .   S
    C816   C781      1.37472      .   S
    C815   H850      0.95051      .   S
    C815   C780      1.37472      .   S
    H1755  C1720     0.94598      .   S
    H1754  C1719     0.94598      .   S
    H1756  C1721     0.94598      .   S
    C1027  C782      1.44574      .   S
    C1027  H1062     0.94937      .   S
    C1026  C781      1.44574      .   S
    C1026  H1061     0.94937      .   S
    C1025  C780      1.44574      .   S
    C1025  H1060     0.94937      .   S
    Zn157  O390      1.92853      .   S
    Zn157  O389      1.92897      .   S
    Zn157  O391      1.93067      .   S
    C781   C746      1.47957      .   S
    C782   C747      1.47957      .   S
    C780   C745      1.47957      .   S
    C2420  N2280     1.49425      .   S
    C2420  N2350     1.46938      .   S
    C2421  N2281     1.49425      .   S
    C2421  N2351     1.46938      .   S
    C2419  N2279     1.49425      .   S
    C2419  N2349     1.46938      .   S
    C1474  O389      1.24881      .   S
    C1474  C1509     1.52151      .   S
    C1475  O390      1.24881      .   S
    C1475  C1510     1.52151      .   S
    C1476  O391      1.24881      .   S
    C1476  C1511     1.52151      .   S
    C1719  C1509     1.32211      .   S
    C1719  C1684     1.44525      .   S
    C1721  C1511     1.32211      .   S
    C1721  C1686     1.44525      .   S
    C1720  C1510     1.32211      .   S
    C1720  C1685     1.44525      .   S
    H2314  N2279     0.87878      .   S
    H2315  N2280     0.87878      .   S
    H2316  N2281     0.87878      .   S
    N2281  C1686     1.38928      .   S
    N2280  C1685     1.38928      .   S
    N2279  C1684     1.38928      .   S
    C745   O220      1.22516      .   S
    C745   O255      1.34273      .   S
    C747   O222      1.22516      .   S
    C747   O257      1.34273      .   S
    C746   O221      1.22516      .   S
    C746   O256      1.34273      .   S
    C1511  C1546     1.38417      .   S
    C1510  C1545     1.38417      .   S
    C1509  C1544     1.38417      .   S
    H2385  N2350     0.87926      .   S
    H2386  N2351     0.87926      .   S
    H2384  N2349     0.87926      .   S
    O220   Zn103     1.91203      .   S
    O222   Zn102     1.91203      .   S
    O221   Zn101     1.91203      .   S
    N2350  C2035     1.36686      .   S
    N2351  C2036     1.36686      .   S
    N2349  C2034     1.36686      .   S
    C1685  C1650     1.31386      .   S
    C1684  C1649     1.31386      .   S
    C1686  C1651     1.31386      .   S
    O255   Zn101     1.87392      .   S
    O256   Zn102     1.87392      .   S
    O257   Zn103     1.87392      .   S
    C1545  H1580     0.95075      .   S
    C1545  C1615     1.43854      .   S
    C1544  H1579     0.95075      .   S
    C1544  C1614     1.43854      .   S
    C1546  H1581     0.95075      .   S
    C1546  C1616     1.43854      .   S
    Zn101  O176      1.93287      .   S
    Zn101  O516      1.87455      .   S
    Zn102  O515      1.87455      .   S
    Zn103  O176      1.93287      .   S
    Zn103  O15       1.87455      .   S
    C1650  C1615     1.38180      .   S
    C1650  C1790     1.41515      .   S
    C1649  C1614     1.38180      .   S
    C1649  C1789     1.41515      .   S
    C1651  C1616     1.38180      .   S
    C1651  C1791     1.41515      .   S
    C2035  C1790     1.41521      .   S
    C2035  C1965     1.33862      .   S
    C2034  C1789     1.41521      .   S
    C2034  C1964     1.33862      .   S
    C2036  C1791     1.41521      .   S
    C2036  C1966     1.33862      .   S
    C1616  N2106     1.44860      .   S
    C1615  N2105     1.44860      .   S
    C1614  N2104     1.44860      .   S
    H2001  C1966     0.94802      .   S
    H2000  C1965     0.94802      .   S
    H1999  C1964     0.94802      .   S
    C1791  C1826     1.43562      .   S
    C1790  C1825     1.43562      .   S
    C1789  C1824     1.43562      .   S
    C1964  C1929     1.37475      .   S
    C1966  C1931     1.37475      .   S
    C1965  C1930     1.37475      .   S
    O15    C59       1.19042      .   S
    O516   C2056     1.19042      .   S
    O515   C2055     1.19042      .   S
    O13    C64       1.12166      .   S
    O445   C2230     1.12166      .   S
    O446   C2231     1.12166      .   S
    H2141  N2106     0.87778      .   S
    H2139  N2104     0.87778      .   S
    H2140  N2105     0.87778      .   S
    N2104  C2244     1.46454      .   S
    N2105  C2245     1.46454      .   S
    N2106  C2246     1.46454      .   S
    H54    C53       0.94808      .   S
    H1881  C1846     0.94808      .   S
    H1880  C1845     0.94808      .   S
    H2196  N2161     0.88301      .   S
    H63    N62       0.88301      .   S
    H2195  N2160     0.88301      .   S
    C1826  C1861     1.33681      .   S
    C1826  N2176     1.48041      .   S
    C1824  C1859     1.33681      .   S
    C1824  N2174     1.48041      .   S
    C1825  C1860     1.33681      .   S
    C1825  N2175     1.48041      .   S
    C1931  C1861     1.42566      .   S
    C1931  C2071     1.55459      .   S
    C1929  C1859     1.42566      .   S
    C1929  C2069     1.55459      .   S
    C1930  C1860     1.42566      .   S
    C1930  C2070     1.55459      .   S
    C59    O16       1.33972      .   S
    C59    C55       1.55459      .   S
    C2055  O550      1.33972      .   S
    C2055  C1915     1.55459      .   S
    C2056  O551      1.33972      .   S
    C2056  C1916     1.55459      .   S
    Zn76   O16       1.90979      .   S
    Zn76   O551      1.90979      .   S
    Zn76   O550      1.90979      .   S
    C64    N62       1.44487      .   S
    C64    N60       1.46454      .   S
    C2230  N2160     1.44487      .   S
    C2230  N2090     1.46454      .   S
    C2231  N2161     1.44487      .   S
    C2231  N2091     1.46454      .   S
    O566   Zn71      1.90979  1_565   S
    O566   C2071     1.33972      .   S
    O565   Zn71      1.90979      .   S
    O565   C2070     1.33972      .   S
    O564   Zn71      1.90979  1_665   S
    O564   C2069     1.33972      .   S
    N2161  C1811     1.48041      .   S
    N2160  C1810     1.48041  1_455   S
    N62    C52       1.48041  1_565   S
    C53    C55       1.42566      .   S
    C53    C52       1.33681      .   S
    C1845  C1915     1.42566      .   S
    C1845  C1810     1.33681      .   S
    C1846  C1916     1.42566      .   S
    C1846  C1811     1.33681      .   S
    C1859  H1894     0.94808      .   S
    C1860  H1895     0.94808      .   S
    C1861  H1896     0.94808      .   S
    N2174  C2244     1.44487      .   S
    N2174  H2209     0.88301      .   S
    N2175  C2245     1.44487      .   S
    N2175  H2210     0.88301      .   S
    N2176  C2246     1.44487      .   S
    N2176  H2211     0.88301      .   S
    C2246  O461      1.12166      .   S
    C2245  O460      1.12166      .   S
    C2244  O459      1.12166      .   S
    C2071  O531      1.19042      .   S
    C2070  O530      1.19042      .   S
    C2069  O529      1.19042      .   S
    C55    C56       1.37475      .   S
    C1916  C1951     1.37475      .   S
    C1915  C1950     1.37475      .   S
    C52    C51       1.43562      .   S
    C1810  C1775     1.43562      .   S
    C1811  C1776     1.43562      .   S
    N2090  H2125     0.87778      .   S
    N2090  C1600     1.44860      .   S
    N2091  H2126     0.87778      .   S
    N2091  C1601     1.44860      .   S
    N60    H61       0.87778      .   S
    N60    C46       1.44860      .   S
    O530   Zn87      1.87455      .   S
    O529   Zn88      1.87455      .   S
    O531   Zn86      1.87455      .   S
    C1951  H1986     0.94802      .   S
    C1951  C2021     1.33862      .   S
    C1950  H1985     0.94802      .   S
    C1950  C2020     1.33862      .   S
    C56    H57       0.94802      .   S
    C56    C58       1.33862      .   S
    C1775  C2020     1.41521      .   S
    C1775  C1635     1.41515  1_655   S
    C1776  C2021     1.41521      .   S
    C1776  C1636     1.41515      .   S
    C51    C58       1.41521      .   S
    C51    C47       1.41515  1_545   S
    O171   Zn86      1.93287  1_545   S
    O171   Zn87      1.93287      .   S
    C46    C47       1.38180      .   S
    C46    C44       1.43854      .   S
    C1600  C1635     1.38180      .   S
    C1600  C1530     1.43854      .   S
    C1601  C1636     1.38180      .   S
    C1601  C1531     1.43854      .   S
    C2021  N2336     1.36686      .   S
    C58    N67       1.36686      .   S
    C2020  N2335     1.36686      .   S
    H45    C44       0.95075      .   S
    H1566  C1531     0.95075      .   S
    H1565  C1530     0.95075      .   S
    C1635  C1670     1.31386      .   S
    C47    C48       1.31386      .   S
    C1636  C1671     1.31386      .   S
    Zn88   O242      1.87392  1_565   S
    Zn88   O205      1.91203      .   S
    Zn86   O240      1.87392  1_455   S
    Zn86   O206      1.91203      .   S
    Zn87   O241      1.87392      .   S
    Zn87   O207      1.91203      .   S
    C1530  C1495     1.38417      .   S
    C1531  C1496     1.38417      .   S
    C44    C43       1.38417      .   S
    O242   C732      1.34273      .   S
    O241   C731      1.34273      .   S
    O240   C730      1.34273      .   S
    C1670  N2265     1.38928  1_455   S
    C1670  C1705     1.44525      .   S
    C1671  N2266     1.38928      .   S
    C1671  C1706     1.44525      .   S
    C48    N65       1.38928  1_565   S
    C48    C49       1.44525      .   S
    N2335  H2370     0.87926      .   S
    N2335  C2405     1.46938      .   S
    N2336  H2371     0.87926      .   S
    N2336  C2406     1.46938      .   S
    N67    H68       0.87926      .   S
    N67    C69       1.46938      .   S
    O206   C731      1.22516  1_565   S
    O207   C732      1.22516  1_455   S
    O205   C730      1.22516      .   S
    C1496  C1706     1.32211      .   S
    C1496  C1461     1.52151      .   S
    C43    C49       1.32211      .   S
    C43    C42       1.52151      .   S
    C1495  C1705     1.32211      .   S
    C1495  C1460     1.52151      .   S
    C730   C765      1.47957      .   S
    C732   C767      1.47957      .   S
    C731   C766      1.47957      .   S
    O376   C1461     1.24881      .   S
    O376   Zn3       1.93067      .   S
    O11    C42       1.24881      .   S
    O11    Zn3       1.92897      .   S
    O375   C1460     1.24881      .   S
    O375   Zn3       1.92853      .   S
    N65    H66       0.87878      .   S
    N65    C69       1.49425      .   S
    N2265  H2300     0.87878      .   S
    N2265  C2405     1.49425      .   S
    N2266  H2301     0.87878      .   S
    N2266  C2406     1.49425      .   S
    C49    H50       0.94598      .   S
    C1706  H1741     0.94598      .   S
    C1705  H1740     0.94598      .   S
    C1460  O410      1.27106      .   S
    C42    O12       1.27106      .   S
    C1461  O411      1.27106      .   S
    C69    O14       1.14833      .   S
    C2405  O480      1.14833      .   S
    C2406  O481      1.14833      .   S
    H1047  C1012     0.94937      .   S
    H1046  C1011     0.94937      .   S
    H1045  C1010     0.94937      .   S
    C765   C1010     1.44574      .   S
    C765   C800      1.37472      .   S
    C767   C1012     1.44574      .   S
    C767   C802      1.37472      .   S
    C766   C1011     1.44574      .   S
    C766   C801      1.37472      .   S
    Zn3    O5        1.88816      .   S
    H836   C801      0.95051  1_565   S
    H835   C800      0.95051      .   S
    C1012  C942      1.43040      .   S
    C1010  C940      1.43040      .   S
    C1011  C941      1.43040      .   S
    H837   C802      0.95051  1_455   S
    C800   C870      1.41715      .   S
    C802   C872      1.41715      .   S
    C801   C871      1.41715      .   S
    C942   H977      0.94698      .   S
    C942   C907      1.31172      .   S
    C940   H975      0.94698      .   S
    C940   C905      1.31172      .   S
    C941   H976      0.94698      .   S
    C941   C906      1.31172      .   S
    O12    Zn117     1.96104      .   S
    O410   Zn2       1.96104      .   S
    O411   Zn116     1.96104      .   S
    H695   N660      0.88080      .   S
    H696   N661      0.88080      .   S
    H697   N662      0.88080      .   S
    C870   C905      1.42467      .   S
    C870   N590      1.43139      .   S
    C871   C906      1.42467      .   S
    C871   N591      1.43139      .   S
    C872   C907      1.42467      .   S
    C872   N592      1.43139      .   S
    O275   C1080     1.13307      .   S
    O276   C1081     1.13307  1_565   S
    O277   C1082     1.13307  1_455   S
    C1082  N662      1.26439      .   S
    C1082  N592      1.46906      .   S
    C1081  N661      1.26439      .   S
    C1081  N591      1.46906      .   S
    C1080  N660      1.26439      .   S
    C1080  N590      1.46906      .   S
    C907   C1117     1.42151      .   S
    C905   C1115     1.42151      .   S
    C906   C1116     1.42151      .   S
    N660   C1150     1.47250      .   S
    N662   C1152     1.47250      .   S
    N661   C1151     1.47250      .   S
    N592   H627      0.88291  1_655   S
    N591   H626      0.88291  1_545   S
    N590   H625      0.88291      .   S
    O5     Zn117     1.94120      .   S
    C1117  C1152     1.45249      .   S
    C1117  C1362     1.48748      .   S
    C1116  C1151     1.45249      .   S
    C1116  C1361     1.48748      .   S
    C1115  C1150     1.45249      .   S
    C1115  C1360     1.48748      .   S
    C1152  C1187     1.38515      .   S
    C1150  C1185     1.38515      .   S
    C1151  C1186     1.38515      .   S
    Zn2    O10       1.80628      .   S
    Zn2    O306      1.87734      .   S
    Zn117  O341      1.80628      .   S
    Zn117  O305      1.87734      .   S
    Zn116  O340      1.80628      .   S
    Zn116  O9        1.87734      .   S
    C1185  H1220     0.94932      .   S
    C1185  C1255     1.43713      .   S
    C1186  H1221     0.94932      .   S
    C1186  C1256     1.43713      .   S
    C1187  H1222     0.94932      .   S
    C1187  C1257     1.43713      .   S
    C1361  H1396     0.95056      .   S
    C1361  C1291     1.28209      .   S
    C1362  H1397     0.95056      .   S
    C1362  C1292     1.28209      .   S
    C1360  H1395     0.95056      .   S
    C1360  C1290     1.28209      .   S
    O10    C41       1.51592      .   S
    O340   C1425     1.51592      .   S
    O341   C1426     1.51592      .   S
    O9     C41       1.16042      .   S
    O305   C1425     1.16042      .   S
    O306   C1426     1.16042      .   S
    C41    C36       1.53367      .   S
    C1425  C1250     1.53367      .   S
    C1426  C1251     1.53367      .   S
    H1321  C1286     0.95170      .   S
    H1320  C1285     0.95170      .   S
    H38    C37       0.95170      .   S
    C1257  C1292     1.41245      .   S
    C1257  C1432     1.53367      .   S
    C1256  C1291     1.41245      .   S
    C1256  C1431     1.53367      .   S
    C1255  C1290     1.41245      .   S
    C1255  C1430     1.53367      .   S
    C1292  H1327     0.95170      .   S
    C1291  H1326     0.95170      .   S
    C1290  H1325     0.95170      .   S
    C1286  C1251     1.41245      .   S
    C1286  C1356     1.28209      .   S
    C1285  C1250     1.41245      .   S
    C1285  C1355     1.28209      .   S
    C37    C36       1.41245      .   S
    C37    C39       1.28209      .   S
    C36    C34       1.43713      .   S
    C1250  C1180     1.43713      .   S
    C1251  C1181     1.43713      .   S
    C1432  O312      1.16042      .   S
    C1432  O347      1.51592      .   S
    C1431  O311      1.16042      .   S
    C1431  O346      1.51592      .   S
    C1430  O310      1.16042      .   S
    C1430  O345      1.51592      .   S
    O311   Zn123     1.87734      .   S
    O312   Zn121     1.87734      .   S
    O310   Zn122     1.87734      .   S
    H40    C39       0.95056      .   S
    H1390  C1355     0.95056      .   S
    H1391  C1356     0.95056      .   S
    O345   Zn121     1.80628      .   S
    O346   Zn122     1.80628      .   S
    O347   Zn123     1.80628      .   S
    H35    C34       0.94932      .   S
    H1215  C1180     0.94932      .   S
    H1216  C1181     0.94932      .   S
    C39    C32       1.48748      .   S
    C1355  C1110     1.48748      .   S
    C1356  C1111     1.48748      .   S
    C34    C33       1.38515      .   S
    C1180  C1145     1.38515      .   S
    C1181  C1146     1.38515      .   S
    Zn122  O417      1.96104      .   S
    Zn121  O416      1.96104      .   S
    Zn123  O182      1.94120      .   S
    Zn123  O415      1.96104      .   S
    C33    C32       1.45249      .   S
    C33    N19       1.47250      .   S
    C1145  C1110     1.45249      .   S
    C1145  N655      1.47250      .   S
    C1146  C1111     1.45249      .   S
    C1146  N656      1.47250      .   S
    C32    C26       1.42151      .   S
    C1110  C900      1.42151      .   S
    C1111  C901      1.42151      .   S
    H620   N585      0.88291  1_545   S
    H621   N586      0.88291  1_655   S
    H18    N17       0.88291      .   S
    O182   Zn152     1.88816      .   S
    N585   C1075     1.46906      .   S
    N585   C865      1.43139      .   S
    N17    C31       1.46906      .   S
    N17    C25       1.43139      .   S
    N586   C1076     1.46906      .   S
    N586   C866      1.43139      .   S
    N19    C31       1.26439      .   S
    N19    H20       0.88080      .   S
    N655   C1075     1.26439      .   S
    N655   H690      0.88080      .   S
    N656   C1076     1.26439      .   S
    N656   H691      0.88080      .   S
    C26    C25       1.42467      .   S
    C26    C27       1.31172      .   S
    C900   C865      1.42467      .   S
    C900   C935      1.31172      .   S
    C901   C866      1.42467      .   S
    C901   C936      1.31172      .   S
    C31    O8        1.13307      .   S
    C1076  O271      1.13307  1_455   S
    C1075  O270      1.13307  1_565   S
    C865   C795      1.41715      .   S
    C866   C796      1.41715      .   S
    C25    C23       1.41715      .   S
    H28    C27       0.94698      .   S
    H971   C936      0.94698      .   S
    H970   C935      0.94698      .   S
    O415   C1465     1.27106      .   S
    O416   C1466     1.27106      .   S
    O417   C1467     1.27106      .   S
    C936   C1006     1.43040      .   S
    C935   C1005     1.43040      .   S
    C27    C29       1.43040      .   S
    O485   C2410     1.14833      .   S
    O486   C2411     1.14833      .   S
    O487   C2412     1.14833      .   S
    C23    H24       0.95051      .   S
    C23    C22       1.37472      .   S
    C795   H830      0.95051  1_565   S
    C795   C760      1.37472      .   S
    C796   H831      0.95051  1_455   S
    C796   C761      1.37472      .   S
    H1747  C1712     0.94598      .   S
    H1745  C1710     0.94598      .   S
    H1746  C1711     0.94598      .   S
    C1006  C761      1.44574      .   S
    C1006  H1041     0.94937      .   S
    C1005  C760      1.44574      .   S
    C1005  H1040     0.94937      .   S
    C29    C22       1.44574      .   S
    C29    H30       0.94937      .   S
    Zn152  O382      1.93067      .   S
    Zn152  O381      1.92853      .   S
    Zn152  O380      1.92897      .   S
    C761   C726      1.47957      .   S
    C22    C21       1.47957      .   S
    C760   C725      1.47957      .   S
    C2410  N2270     1.49425      .   S
    C2410  N2340     1.46938      .   S
    C2411  N2271     1.49425      .   S
    C2411  N2341     1.46938      .   S
    C2412  N2272     1.49425      .   S
    C2412  N2342     1.46938      .   S
    C1465  O380      1.24881      .   S
    C1465  C1500     1.52151      .   S
    C1466  O381      1.24881      .   S
    C1466  C1501     1.52151      .   S
    C1467  O382      1.24881      .   S
    C1467  C1502     1.52151      .   S
    C1710  C1500     1.32211      .   S
    C1710  C1675     1.44525      .   S
    C1711  C1501     1.32211      .   S
    C1711  C1676     1.44525      .   S
    C1712  C1502     1.32211      .   S
    C1712  C1677     1.44525      .   S
    H2306  N2271     0.87878      .   S
    H2305  N2270     0.87878      .   S
    H2307  N2272     0.87878      .   S
    N2271  C1676     1.38928  1_455   S
    N2270  C1675     1.38928  1_565   S
    N2272  C1677     1.38928      .   S
    C725   O200      1.22516  1_565   S
    C725   O235      1.34273      .   S
    C726   O201      1.22516  1_455   S
    C726   O236      1.34273      .   S
    C21    O6        1.22516      .   S
    C21    O7        1.34273      .   S
    C1501  C1536     1.38417      .   S
    C1500  C1535     1.38417      .   S
    C1502  C1537     1.38417      .   S
    H2376  N2341     0.87926      .   S
    H2375  N2340     0.87926      .   S
    H2377  N2342     0.87926      .   S
    O6     Zn82      1.91203      .   S
    O201   Zn81      1.91203      .   S
    O200   Zn1       1.91203      .   S
    N2341  C2026     1.36686      .   S
    N2342  C2027     1.36686      .   S
    N2340  C2025     1.36686      .   S
    C1676  C1641     1.31386      .   S
    C1677  C1642     1.31386      .   S
    C1675  C1640     1.31386      .   S
    O7     Zn1       1.87392  1_455   S
    O235   Zn81      1.87392      .   S
    O236   Zn82      1.87392  1_565   S
    C1535  H1570     0.95075      .   S
    C1535  C1605     1.43854      .   S
    C1536  H1571     0.95075      .   S
    C1536  C1606     1.43854      .   S
    C1537  H1572     0.95075      .   S
    C1537  C1607     1.43854      .   S
    Zn1    O4        1.93287  1_655   S
    Zn1    O549      1.87455      .   S
    Zn82   O4        1.93287      .   S
    Zn82   O547      1.87455      .   S
    Zn81   O548      1.87455      .   S
    C1642  C1607     1.38180      .   S
    C1642  C1782     1.41515      .   S
    C1641  C1606     1.38180      .   S
    C1641  C1781     1.41515  1_655   S
    C1640  C1605     1.38180      .   S
    C1640  C1780     1.41515  1_545   S
    C2025  C1780     1.41521      .   S
    C2025  C1955     1.33862      .   S
    C2026  C1781     1.41521      .   S
    C2026  C1956     1.33862      .   S
    C2027  C1782     1.41521      .   S
    C2027  C1957     1.33862      .   S
    C1605  N2095     1.44860      .   S
    C1606  N2096     1.44860      .   S
    C1607  N2097     1.44860      .   S
    H1990  C1955     0.94802      .   S
    H1991  C1956     0.94802      .   S
    H1992  C1957     0.94802      .   S
    C1782  C1817     1.43562      .   S
    C1781  C1816     1.43562      .   S
    C1780  C1815     1.43562      .   S
    C1957  C1922     1.37475      .   S
    C1956  C1921     1.37475      .   S
    C1955  C1920     1.37475      .   S
    O549   C2089     1.19042      .   S
    O548   C2088     1.19042      .   S
    O547   C2087     1.19042      .   S
    O477   C2262     1.12166      .   S
    O478   C2263     1.12166      .   S
    O479   C2264     1.12166      .   S
    H2130  N2095     0.87778      .   S
    H2131  N2096     0.87778      .   S
    H2132  N2097     0.87778      .   S
    N2097  C2237     1.46454      .   S
    N2096  C2236     1.46454      .   S
    N2095  C2235     1.46454      .   S
    H1914  C1879     0.94808      .   S
    H1913  C1878     0.94808      .   S
    H1912  C1877     0.94808      .   S
    H2229  N2194     0.88301      .   S
    H2228  N2193     0.88301      .   S
    H2227  N2192     0.88301      .   S
    C1817  C1852     1.33681      .   S
    C1817  N2167     1.48041      .   S
    C1815  C1850     1.33681      .   S
    C1815  N2165     1.48041  1_565   S
    C1816  C1851     1.33681      .   S
    C1816  N2166     1.48041  1_455   S
    C1920  C1850     1.42566      .   S
    C1920  C2060     1.55459      .   S
    C1921  C1851     1.42566      .   S
    C1921  C2061     1.55459      .   S
    C1922  C1852     1.42566      .   S
    C1922  C2062     1.55459      .   S
    C2089  O584      1.33972      .   S
    C2089  C1949     1.55459      .   S
    C2088  O583      1.33972      .   S
    C2088  C1948     1.55459      .   S
    C2087  O582      1.33972      .   S
    C2087  C1947     1.55459      .   S
    Zn0    O584      1.90979  1_455   S
    Zn0    O583      1.90979  1_445   S
    Zn0    O582      1.90979      .   S
    C2264  N2194     1.44487      .   S
    C2264  N2124     1.46454      .   S
    C2262  N2192     1.44487      .   S
    C2262  N2122     1.46454      .   S
    C2263  N2193     1.44487      .   S
    C2263  N2123     1.46454      .   S
    O556   Zn78      1.90979      .   S
    O556   C2061     1.33972      .   S
    O555   Zn78      1.90979      .   S
    O555   C2060     1.33972      .   S
    O557   Zn78      1.90979      .   S
    O557   C2062     1.33972      .   S
    N2194  C1844     1.48041      .   S
    N2193  C1843     1.48041      .   S
    N2192  C1842     1.48041      .   S
    C1879  C1949     1.42566      .   S
    C1879  C1844     1.33681      .   S
    C1878  C1948     1.42566      .   S
    C1878  C1843     1.33681      .   S
    C1877  C1947     1.42566      .   S
    C1877  C1842     1.33681      .   S
    C1852  H1887     0.94808      .   S
    C1851  H1886     0.94808      .   S
    C1850  H1885     0.94808      .   S
    N2167  C2237     1.44487      .   S
    N2167  H2202     0.88301      .   S
    N2165  C2235     1.44487      .   S
    N2165  H2200     0.88301      .   S
    N2166  C2236     1.44487      .   S
    N2166  H2201     0.88301      .   S
    C2237  O452      1.12166      .   S
    C2235  O450      1.12166      .   S
    C2236  O451      1.12166      .   S
    C2062  O522      1.19042      .   S
    C2061  O521      1.19042      .   S
    C2060  O520      1.19042      .   S
    C1948  C1983     1.37475      .   S
    C1949  C1984     1.37475      .   S
    C1947  C1982     1.37475      .   S
    C1842  C1807     1.43562      .   S
    C1844  C1809     1.43562      .   S
    C1843  C1808     1.43562      .   S
    N2124  H2159     0.87778      .   S
    N2124  C1634     1.44860      .   S
    N2123  H2158     0.87778      .   S
    N2123  C1633     1.44860      .   S
    N2122  H2157     0.87778      .   S
    N2122  C1632     1.44860      .   S
    O522   Zn107     1.87455      .   S
    O521   Zn108     1.87455      .   S
    O520   Zn109     1.87455      .   S
    C1982  H2017     0.94802      .   S
    C1982  C2052     1.33862      .   S
    C1983  H2018     0.94802      .   S
    C1983  C2053     1.33862      .   S
    C1984  H2019     0.94802      .   S
    C1984  C2054     1.33862      .   S
    C1809  C2054     1.41521      .   S
    C1809  C1669     1.41515      .   S
    C1807  C2052     1.41521      .   S
    C1807  C1667     1.41515      .   S
    C1808  C2053     1.41521      .   S
    C1808  C1668     1.41515      .   S
    O178   Zn107     1.93287      .   S
    O178   Zn109     1.93287      .   S
    C1632  C1667     1.38180      .   S
    C1632  C1562     1.43854      .   S
    C1633  C1668     1.38180      .   S
    C1633  C1563     1.43854      .   S
    C1634  C1669     1.38180      .   S
    C1634  C1564     1.43854      .   S
    C2054  N2369     1.36686      .   S
    C2053  N2368     1.36686      .   S
    C2052  N2367     1.36686      .   S
    H1597  C1562     0.95075      .   S
    H1598  C1563     0.95075      .   S
    H1599  C1564     0.95075      .   S
    C1669  C1704     1.31386      .   S
    C1668  C1703     1.31386      .   S
    C1667  C1702     1.31386      .   S
    Zn108  O262      1.87392      .   S
    Zn108  O228      1.91203      .   S
    Zn107  O261      1.87392      .   S
    Zn107  O227      1.91203      .   S
    Zn109  O263      1.87392      .   S
    Zn109  O226      1.91203      .   S
    C1564  C1529     1.38417      .   S
    C1562  C1527     1.38417      .   S
    C1563  C1528     1.38417      .   S
    O261   C751      1.34273      .   S
    O262   C752      1.34273      .   S
    O263   C753      1.34273      .   S
    C1703  N2298     1.38928      .   S
    C1703  C1738     1.44525      .   S
    C1702  N2297     1.38928      .   S
    C1702  C1737     1.44525      .   S
    C1704  N2299     1.38928      .   S
    C1704  C1739     1.44525      .   S
    N2367  H2402     0.87926      .   S
    N2367  C2437     1.46938      .   S
    N2368  H2403     0.87926      .   S
    N2368  C2438     1.46938      .   S
    N2369  H2404     0.87926      .   S
    N2369  C2439     1.46938      .   S
    O228   C753      1.22516      .   S
    O227   C752      1.22516      .   S
    O226   C751      1.22516      .   S
    C1527  C1737     1.32211      .   S
    C1527  C1492     1.52151      .   S
    C1528  C1738     1.32211      .   S
    C1528  C1493     1.52151      .   S
    C1529  C1739     1.32211      .   S
    C1529  C1494     1.52151      .   S
    C752   C787      1.47957      .   S
    C751   C786      1.47957      .   S
    C753   C788      1.47957      .   S
    O407   C1492     1.24881      .   S
    O407   Zn169     1.92897      .   S
    O408   C1493     1.24881      .   S
    O408   Zn169     1.92853      .   S
    O409   C1494     1.24881      .   S
    O409   Zn169     1.93067      .   S
    N2299  H2334     0.87878      .   S
    N2299  C2439     1.49425      .   S
    N2298  H2333     0.87878      .   S
    N2298  C2438     1.49425      .   S
    N2297  H2332     0.87878      .   S
    N2297  C2437     1.49425      .   S
    C1737  H1772     0.94598      .   S
    C1738  H1773     0.94598      .   S
    C1739  H1774     0.94598      .   S
    C1494  O444      1.27106      .   S
    C1493  O443      1.27106      .   S
    C1492  O442      1.27106      .   S
    C2439  O514      1.14833      .   S
    C2438  O513      1.14833      .   S
    C2437  O512      1.14833      .   S
    H1066  C1031     0.94937      .   S
    H1067  C1032     0.94937      .   S
    H1068  C1033     0.94937      .   S
    C786   C1031     1.44574      .   S
    C786   C821      1.37472      .   S
    C787   C1032     1.44574      .   S
    C787   C822      1.37472      .   S
    C788   C1033     1.44574      .   S
    C788   C823      1.37472      .   S
    Zn169  O199      1.88816      .   S
    C1033  C963      1.43040      .   S
    C1031  C961      1.43040      .   S
    C1032  C962      1.43040      .   S
    H856   C821      0.95051      .   S
    H857   C822      0.95051      .   S
    H858   C823      0.95051      .   S
    C821   C891      1.41715      .   S
    C822   C892      1.41715      .   S
    C823   C893      1.41715      .   S
    C963   H998      0.94698      .   S
    C963   C928      1.31172      .   S
    C962   H997      0.94698      .   S
    C962   C927      1.31172      .   S
    C961   H996      0.94698      .   S
    C961   C926      1.31172      .   S
    O442   Zn150     1.96104      .   S
    O443   Zn148     1.96104      .   S
    O444   Zn149     1.96104      .   S
    H716   N681      0.88080  1_545   S
    H718   N683      0.88080  1_655   S
    H717   N682      0.88080      .   S
    C892   C927      1.42467      .   S
    C892   N612      1.43139      .   S
    C893   C928      1.42467      .   S
    C893   N613      1.43139      .   S
    C891   C926      1.42467      .   S
    C891   N611      1.43139      .   S
    O298   C1103     1.13307  1_655   S
    O297   C1102     1.13307      .   S
    O296   C1101     1.13307  1_545   S
    C1101  N681      1.26439      .   S
    C1101  N611      1.46906      .   S
    C1103  N683      1.26439      .   S
    C1103  N613      1.46906      .   S
    C1102  N682      1.26439      .   S
    C1102  N612      1.46906      .   S
    C928   C1138     1.42151      .   S
    C926   C1136     1.42151      .   S
    C927   C1137     1.42151      .   S
    N681   C1171     1.47250      .   S
    N683   C1173     1.47250      .   S
    N682   C1172     1.47250      .   S
    N613   H648      0.88291      .   S
    N612   H647      0.88291      .   S
    N611   H646      0.88291      .   S
    O199   Zn150     1.94120      .   S
    C1138  C1173     1.45249      .   S
    C1138  C1383     1.48748      .   S
    C1137  C1172     1.45249      .   S
    C1137  C1382     1.48748      .   S
    C1136  C1171     1.45249      .   S
    C1136  C1381     1.48748      .   S
    C1171  C1206     1.38515      .   S
    C1172  C1207     1.38515      .   S
    C1173  C1208     1.38515      .   S
    Zn148  O372      1.80628      .   S
    Zn148  O339      1.87734      .   S
    Zn149  O373      1.80628      .   S
    Zn149  O337      1.87734      .   S
    Zn150  O374      1.80628      .   S
    Zn150  O338      1.87734      .   S
    C1208  H1243     0.94932  1_455   S
    C1208  C1278     1.43713      .   S
    C1207  H1242     0.94932      .   S
    C1207  C1277     1.43713      .   S
    C1206  H1241     0.94932  1_565   S
    C1206  C1276     1.43713      .   S
    C1383  H1418     0.95056      .   S
    C1383  C1313     1.28209      .   S
    C1382  H1417     0.95056      .   S
    C1382  C1312     1.28209      .   S
    C1381  H1416     0.95056      .   S
    C1381  C1311     1.28209      .   S
    O374   C1459     1.51592      .   S
    O372   C1457     1.51592      .   S
    O373   C1458     1.51592      .   S
    O338   C1458     1.16042      .   S
    O339   C1459     1.16042      .   S
    O337   C1457     1.16042      .   S
    C1458  C1283     1.53367      .   S
    C1459  C1284     1.53367      .   S
    C1457  C1282     1.53367      .   S
    H1354  C1319     0.95170      .   S
    H1353  C1318     0.95170      .   S
    H1352  C1317     0.95170      .   S
    C1276  C1311     1.41245      .   S
    C1276  C1451     1.53367      .   S
    C1278  C1313     1.41245      .   S
    C1278  C1453     1.53367      .   S
    C1277  C1312     1.41245      .   S
    C1277  C1452     1.53367      .   S
    C1313  H1348     0.95170      .   S
    C1312  H1347     0.95170      .   S
    C1311  H1346     0.95170      .   S
    C1319  C1284     1.41245      .   S
    C1319  C1389     1.28209      .   S
    C1317  C1282     1.41245      .   S
    C1317  C1387     1.28209      .   S
    C1318  C1283     1.41245      .   S
    C1318  C1388     1.28209      .   S
    C1284  C1214     1.43713      .   S
    C1282  C1212     1.43713      .   S
    C1283  C1213     1.43713      .   S
    C1453  O333      1.16042  1_455   S
    C1453  O368      1.51592      .   S
    C1451  O331      1.16042  1_565   S
    C1451  O366      1.51592      .   S
    C1452  O332      1.16042      .   S
    C1452  O367      1.51592      .   S
    O331   Zn143     1.87734      .   S
    O332   Zn144     1.87734      .   S
    O333   Zn142     1.87734      .   S
    H1424  C1389     0.95056      .   S
    H1422  C1387     0.95056      .   S
    H1423  C1388     0.95056      .   S
    O366   Zn142     1.80628      .   S
    O367   Zn143     1.80628  1_455   S
    O368   Zn144     1.80628  1_565   S
    H1249  C1214     0.94932      .   S
    H1248  C1213     0.94932      .   S
    H1247  C1212     0.94932      .   S
    C1389  C1144     1.48748      .   S
    C1388  C1143     1.48748      .   S
    C1387  C1142     1.48748      .   S
    C1212  C1177     1.38515      .   S
    C1213  C1178     1.38515      .   S
    C1214  C1179     1.38515      .   S
    Zn144  O193      1.94120  1_545   S
    Zn143  O195      1.94120  1_655   S
    Zn142  O194      1.94120      .   S
    C1179  C1144     1.45249      .   S
    C1179  N689      1.47250      .   S
    C1177  C1142     1.45249      .   S
    C1177  N687      1.47250      .   S
    C1178  C1143     1.45249      .   S
    C1178  N688      1.47250      .   S
    C1142  C932      1.42151  1_655   S
    C1143  C933      1.42151  1_545   S
    C1144  C934      1.42151      .   S
    H654   N619      0.88291      .   S
    H653   N618      0.88291      .   S
    H652   N617      0.88291      .   S
    O193   Zn163     1.88816      .   S
    O194   Zn164     1.88816      .   S
    O195   Zn165     1.88816      .   S
    N619   C1109     1.46906      .   S
    N619   C899      1.43139      .   S
    N618   C1108     1.46906  1_565   S
    N618   C898      1.43139      .   S
    N617   C1107     1.46906  1_455   S
    N617   C897      1.43139      .   S
    N688   C1108     1.26439      .   S
    N688   H723      0.88080      .   S
    N687   C1107     1.26439      .   S
    N687   H722      0.88080      .   S
    N689   C1109     1.26439      .   S
    N689   H724      0.88080      .   S
    C932   C897      1.42467      .   S
    C932   C967      1.31172      .   S
    C933   C898      1.42467      .   S
    C933   C968      1.31172      .   S
    C934   C899      1.42467      .   S
    C934   C969      1.31172      .   S
    C1109  O304      1.13307      .   S
    C1107  O302      1.13307      .   S
    C1108  O303      1.13307      .   S
    C899   C829      1.41715      .   S
    C898   C828      1.41715      .   S
    C897   C827      1.41715      .   S
    H1004  C969      0.94698      .   S
    H1003  C968      0.94698      .   S
    H1002  C967      0.94698      .   S
    O437   C1487     1.27106      .   S
    O436   C1486     1.27106      .   S
    O438   C1488     1.27106      .   S
    C967   C1037     1.43040      .   S
    C968   C1038     1.43040      .   S
    C969   C1039     1.43040      .   S
    O508   C2433     1.14833      .   S
    O507   C2432     1.14833      .   S
    O506   C2431     1.14833      .   S
    C827   H862      0.95051      .   S
    C827   C792      1.37472      .   S
    C829   H864      0.95051      .   S
    C829   C794      1.37472      .   S
    C828   H863      0.95051      .   S
    C828   C793      1.37472      .   S
    H1768  C1733     0.94598      .   S
    H1767  C1732     0.94598      .   S
    H1766  C1731     0.94598      .   S
    C1039  C794      1.44574      .   S
    C1039  H1074     0.94937      .   S
    C1038  C793      1.44574      .   S
    C1038  H1073     0.94937      .   S
    C1037  C792      1.44574      .   S
    C1037  H1072     0.94937      .   S
    C793   C758      1.47957      .   S
    C794   C759      1.47957      .   S
    C792   C757      1.47957      .   S
    C2432  N2292     1.49425      .   S
    C2432  N2362     1.46938      .   S
    C2431  N2291     1.49425      .   S
    C2431  N2361     1.46938      .   S
    C2433  N2293     1.49425      .   S
    C2433  N2363     1.46938      .   S
    C1487  O402      1.24881      .   S
    C1487  C1522     1.52151      .   S
    C1486  O401      1.24881      .   S
    C1486  C1521     1.52151      .   S
    C1488  O403      1.24881      .   S
    C1488  C1523     1.52151      .   S
    C1731  C1521     1.32211      .   S
    C1731  C1696     1.44525      .   S
    C1732  C1522     1.32211      .   S
    C1732  C1697     1.44525      .   S
    C1733  C1523     1.32211      .   S
    C1733  C1698     1.44525      .   S
    H2326  N2291     0.87878      .   S
    H2327  N2292     0.87878      .   S
    H2328  N2293     0.87878      .   S
    N2292  C1697     1.38928      .   S
    N2291  C1696     1.38928      .   S
    N2293  C1698     1.38928      .   S
    C759   O234      1.22516      .   S
    C759   O269      1.34273      .   S
    C757   O232      1.22516      .   S
    C757   O267      1.34273      .   S
    C758   O233      1.22516      .   S
    C758   O268      1.34273      .   S
    C1522  C1557     1.38417      .   S
    C1523  C1558     1.38417      .   S
    C1521  C1556     1.38417      .   S
    H2396  N2361     0.87926      .   S
    H2398  N2363     0.87926      .   S
    H2397  N2362     0.87926      .   S
    O233   Zn113     1.91203      .   S
    O234   Zn114     1.91203      .   S
    O232   Zn115     1.91203      .   S
    N2361  C2046     1.36686      .   S
    N2362  C2047     1.36686      .   S
    N2363  C2048     1.36686      .   S
    C1697  C1662     1.31386      .   S
    C1696  C1661     1.31386      .   S
    C1698  C1663     1.31386      .   S
    O267   Zn113     1.87392      .   S
    O269   Zn115     1.87392      .   S
    O268   Zn114     1.87392      .   S
    C1556  H1591     0.95075      .   S
    C1556  C1626     1.43854      .   S
    C1558  H1593     0.95075      .   S
    C1558  C1628     1.43854      .   S
    C1557  H1592     0.95075      .   S
    C1557  C1627     1.43854      .   S
    Zn113  O180      1.93287      .   S
    Zn113  O528      1.87455      .   S
    Zn115  O526      1.87455      .   S
    Zn114  O180      1.93287      .   S
    Zn114  O527      1.87455      .   S
    C1662  C1627     1.38180      .   S
    C1662  C1802     1.41515      .   S
    C1661  C1626     1.38180      .   S
    C1661  C1801     1.41515      .   S
    C1663  C1628     1.38180      .   S
    C1663  C1803     1.41515      .   S
    C2046  C1801     1.41521      .   S
    C2046  C1976     1.33862      .   S
    C2048  C1803     1.41521      .   S
    C2048  C1978     1.33862      .   S
    C2047  C1802     1.41521      .   S
    C2047  C1977     1.33862      .   S
    C1628  N2118     1.44860      .   S
    C1627  N2117     1.44860      .   S
    C1626  N2116     1.44860      .   S
    H2011  C1976     0.94802      .   S
    H2013  C1978     0.94802      .   S
    H2012  C1977     0.94802      .   S
    C1802  C1837     1.43562      .   S
    C1801  C1836     1.43562      .   S
    C1803  C1838     1.43562      .   S
    C1978  C1943     1.37475      .   S
    C1977  C1942     1.37475      .   S
    C1976  C1941     1.37475      .   S
    O526   C2066     1.19042      .   S
    O528   C2068     1.19042      .   S
    O527   C2067     1.19042      .   S
    O457   C2242     1.12166      .   S
    O456   C2241     1.12166      .   S
    O458   C2243     1.12166      .   S
    H2151  N2116     0.87778      .   S
    H2152  N2117     0.87778      .   S
    H2153  N2118     0.87778      .   S
    N2117  C2257     1.46454      .   S
    N2116  C2256     1.46454      .   S
    N2118  C2258     1.46454      .   S
    H1891  C1856     0.94808      .   S
    H1892  C1857     0.94808      .   S
    H1893  C1858     0.94808      .   S
    H2206  N2171     0.88301      .   S
    H2207  N2172     0.88301      .   S
    H2208  N2173     0.88301      .   S
    C1838  C1873     1.33681      .   S
    C1838  N2188     1.48041      .   S
    C1836  C1871     1.33681      .   S
    C1836  N2186     1.48041      .   S
    C1837  C1872     1.33681      .   S
    C1837  N2187     1.48041      .   S
    C1943  C1873     1.42566      .   S
    C1943  C2083     1.55459      .   S
    C1942  C1872     1.42566      .   S
    C1942  C2082     1.55459      .   S
    C1941  C1871     1.42566      .   S
    C1941  C2081     1.55459      .   S
    C2066  O561      1.33972      .   S
    C2066  C1926     1.55459      .   S
    C2067  O562      1.33972      .   S
    C2067  C1927     1.55459      .   S
    C2068  O563      1.33972      .   S
    C2068  C1928     1.55459      .   S
    Zn80   O561      1.90979      .   S
    Zn80   O562      1.90979      .   S
    Zn80   O563      1.90979      .   S
    C2242  N2172     1.44487      .   S
    C2242  N2102     1.46454      .   S
    C2241  N2171     1.44487      .   S
    C2241  N2101     1.46454      .   S
    C2243  N2173     1.44487      .   S
    C2243  N2103     1.46454      .   S
    O576   Zn75      1.90979      .   S
    O576   C2081     1.33972      .   S
    O577   Zn75      1.90979      .   S
    O577   C2082     1.33972      .   S
    O578   Zn75      1.90979      .   S
    O578   C2083     1.33972      .   S
    N2171  C1821     1.48041      .   S
    N2172  C1822     1.48041      .   S
    N2173  C1823     1.48041      .   S
    C1858  C1928     1.42566      .   S
    C1858  C1823     1.33681      .   S
    C1856  C1926     1.42566      .   S
    C1856  C1821     1.33681      .   S
    C1857  C1927     1.42566      .   S
    C1857  C1822     1.33681      .   S
    C1871  H1906     0.94808      .   S
    C1872  H1907     0.94808      .   S
    C1873  H1908     0.94808      .   S
    N2187  C2257     1.44487      .   S
    N2187  H2222     0.88301      .   S
    N2188  C2258     1.44487      .   S
    N2188  H2223     0.88301      .   S
    N2186  C2256     1.44487      .   S
    N2186  H2221     0.88301      .   S
    C2257  O472      1.12166      .   S
    C2256  O471      1.12166      .   S
    C2258  O473      1.12166      .   S
    C2081  O541      1.19042      .   S
    C2083  O543      1.19042      .   S
    C2082  O542      1.19042      .   S
    C1926  C1961     1.37475      .   S
    C1928  C1963     1.37475      .   S
    C1927  C1962     1.37475      .   S
    C1822  C1787     1.43562      .   S
    C1821  C1786     1.43562      .   S
    C1823  C1788     1.43562      .   S
    N2101  H2136     0.87778      .   S
    N2101  C1611     1.44860      .   S
    N2102  H2137     0.87778      .   S
    N2102  C1612     1.44860      .   S
    N2103  H2138     0.87778      .   S
    N2103  C1613     1.44860      .   S
    O541   Zn100     1.87455      .   S
    O542   Zn99      1.87455      .   S
    O543   Zn98      1.87455      .   S
    C1961  H1996     0.94802      .   S
    C1961  C2031     1.33862      .   S
    C1962  H1997     0.94802      .   S
    C1962  C2032     1.33862      .   S
    C1963  H1998     0.94802      .   S
    C1963  C2033     1.33862      .   S
    C1788  C2033     1.41521      .   S
    C1788  C1648     1.41515      .   S
    C1786  C2031     1.41521      .   S
    C1786  C1646     1.41515      .   S
    C1787  C2032     1.41521      .   S
    C1787  C1647     1.41515      .   S
    O175   Zn99      1.93287      .   S
    O175   Zn98      1.93287      .   S
    C1613  C1648     1.38180      .   S
    C1613  C1543     1.43854      .   S
    C1611  C1646     1.38180      .   S
    C1611  C1541     1.43854      .   S
    C1612  C1647     1.38180      .   S
    C1612  C1542     1.43854      .   S
    C2032  N2347     1.36686      .   S
    C2033  N2348     1.36686      .   S
    C2031  N2346     1.36686      .   S
    H1578  C1543     0.95075      .   S
    H1577  C1542     0.95075      .   S
    H1576  C1541     0.95075      .   S
    C1648  C1683     1.31386      .   S
    C1647  C1682     1.31386      .   S
    C1646  C1681     1.31386      .   S
    Zn99   O253      1.87392      .   S
    Zn99   O219      1.91203      .   S
    Zn98   O252      1.87392      .   S
    Zn98   O218      1.91203      .   S
    Zn100  O254      1.87392      .   S
    Zn100  O217      1.91203      .   S
    C1542  C1507     1.38417      .   S
    C1541  C1506     1.38417      .   S
    C1543  C1508     1.38417      .   S
    O252   C742      1.34273      .   S
    O253   C743      1.34273      .   S
    O254   C744      1.34273      .   S
    C1683  N2278     1.38928      .   S
    C1683  C1718     1.44525      .   S
    C1681  N2276     1.38928      .   S
    C1681  C1716     1.44525      .   S
    C1682  N2277     1.38928      .   S
    C1682  C1717     1.44525      .   S
    N2346  H2381     0.87926      .   S
    N2346  C2416     1.46938      .   S
    N2347  H2382     0.87926      .   S
    N2347  C2417     1.46938      .   S
    N2348  H2383     0.87926      .   S
    N2348  C2418     1.46938      .   S
    O218   C743      1.22516      .   S
    O219   C744      1.22516      .   S
    O217   C742      1.22516      .   S
    C1508  C1718     1.32211      .   S
    C1508  C1473     1.52151      .   S
    C1507  C1717     1.32211      .   S
    C1507  C1472     1.52151      .   S
    C1506  C1716     1.32211      .   S
    C1506  C1471     1.52151      .   S
    C744   C779      1.47957      .   S
    C742   C777      1.47957      .   S
    C743   C778      1.47957      .   S
    O387   C1472     1.24881      .   S
    O386   C1471     1.24881      .   S
    O388   C1473     1.24881      .   S
    N2278  H2313     0.87878      .   S
    N2278  C2418     1.49425      .   S
    N2277  H2312     0.87878      .   S
    N2277  C2417     1.49425      .   S
    N2276  H2311     0.87878      .   S
    N2276  C2416     1.49425      .   S
    C1717  H1752     0.94598      .   S
    C1718  H1753     0.94598      .   S
    C1716  H1751     0.94598      .   S
    C1471  O421      1.27106      .   S
    C1472  O422      1.27106      .   S
    C1473  O423      1.27106      .   S
    C2418  O493      1.14833      .   S
    C2417  O492      1.14833      .   S
    C2416  O491      1.14833      .   S
    H1059  C1024     0.94937      .   S
    H1058  C1023     0.94937      .   S
    H1057  C1022     0.94937      .   S
    C779   C1024     1.44574      .   S
    C779   C814      1.37472      .   S
    C777   C1022     1.44574      .   S
    C777   C812      1.37472      .   S
    C778   C1023     1.44574      .   S
    C778   C813      1.37472      .   S
    Zn155  O185      1.88816      .   S
    Zn154  O184      1.88816      .   S
    Zn156  O186      1.88816      .   S
    H848   C813      0.95051      .   S
    C1023  C953      1.43040      .   S
    H849   C814      0.95051      .   S
    C1024  C954      1.43040      .   S
    H847   C812      0.95051      .   S
    C1022  C952      1.43040      .   S
    C813   C883      1.41715      .   S
    C814   C884      1.41715      .   S
    C812   C882      1.41715      .   S
    C952   H987      0.94698      .   S
    C952   C917      1.31172      .   S
    C953   H988      0.94698      .   S
    C953   C918      1.31172      .   S
    C954   H989      0.94698      .   S
    C954   C919      1.31172      .   S
    H709   N674      0.88080      .   S
    H707   N672      0.88080      .   S
    H708   N673      0.88080      .   S
    C882   C917      1.42467      .   S
    C882   N602      1.43139      .   S
    C884   C919      1.42467      .   S
    C884   N604      1.43139      .   S
    C883   C918      1.42467      .   S
    C883   N603      1.43139      .   S
    O289   C1094     1.13307      .   S
    O287   C1092     1.13307      .   S
    O288   C1093     1.13307      .   S
    C1094  N674      1.26439      .   S
    C1094  N604      1.46906      .   S
    C1092  N672      1.26439      .   S
    C1092  N602      1.46906  1_565   S
    C1093  N673      1.26439      .   S
    C1093  N603      1.46906  1_455   S
    C917   C1127     1.42151  1_545   S
    C918   C1128     1.42151  1_655   S
    C919   C1129     1.42151      .   S
    N673   C1163     1.47250      .   S
    N674   C1164     1.47250      .   S
    N672   C1162     1.47250      .   S
    N603   H638      0.88291      .   S
    N602   H637      0.88291      .   S
    N604   H639      0.88291      .   S
    O186   Zn128     1.94120  1_545   S
    O185   Zn127     1.94120      .   S
    O184   Zn129     1.94120  1_655   S
    C1129  C1164     1.45249      .   S
    C1129  C1374     1.48748      .   S
    C1127  C1162     1.45249      .   S
    C1127  C1372     1.48748      .   S
    C1128  C1163     1.45249      .   S
    C1128  C1373     1.48748      .   S
    C1162  C1197     1.38515      .   S
    C1163  C1198     1.38515      .   S
    C1164  C1199     1.38515      .   S
    Zn127  O351      1.80628      .   S
    Zn127  O318      1.87734      .   S
    Zn128  O352      1.80628  1_565   S
    Zn128  O316      1.87734      .   S
    Zn129  O353      1.80628  1_455   S
    Zn129  O317      1.87734      .   S
    C1199  H1234     0.94932      .   S
    C1199  C1269     1.43713      .   S
    C1198  H1233     0.94932      .   S
    C1198  C1268     1.43713      .   S
    C1197  H1232     0.94932      .   S
    C1197  C1267     1.43713      .   S
    C1372  H1407     0.95056      .   S
    C1372  C1302     1.28209      .   S
    C1373  H1408     0.95056      .   S
    C1373  C1303     1.28209      .   S
    C1374  H1409     0.95056      .   S
    C1374  C1304     1.28209      .   S
    O352   C1437     1.51592      .   S
    O353   C1438     1.51592      .   S
    O351   C1436     1.51592      .   S
    O316   C1436     1.16042  1_455   S
    O318   C1438     1.16042  1_565   S
    O317   C1437     1.16042      .   S
    C1438  C1263     1.53367      .   S
    C1437  C1262     1.53367      .   S
    C1436  C1261     1.53367      .   S
    H1332  C1297     0.95170      .   S
    H1331  C1296     0.95170      .   S
    H1333  C1298     0.95170      .   S
    C1269  C1304     1.41245      .   S
    C1269  C1444     1.53367      .   S
    C1268  C1303     1.41245      .   S
    C1268  C1443     1.53367      .   S
    C1267  C1302     1.41245      .   S
    C1267  C1442     1.53367      .   S
    C1304  H1339     0.95170      .   S
    C1303  H1338     0.95170      .   S
    C1302  H1337     0.95170      .   S
    C1298  C1263     1.41245      .   S
    C1298  C1368     1.28209      .   S
    C1297  C1262     1.41245      .   S
    C1297  C1367     1.28209      .   S
    C1296  C1261     1.41245      .   S
    C1296  C1366     1.28209      .   S
    C1263  C1193     1.43713      .   S
    C1262  C1192     1.43713      .   S
    C1261  C1191     1.43713      .   S
    C1444  O324      1.16042      .   S
    C1444  O359      1.51592      .   S
    C1442  O322      1.16042      .   S
    C1442  O357      1.51592      .   S
    C1443  O323      1.16042      .   S
    C1443  O358      1.51592      .   S
    O324   Zn133     1.87734      .   S
    O323   Zn135     1.87734      .   S
    O322   Zn134     1.87734      .   S
    H1402  C1367     0.95056      .   S
    H1403  C1368     0.95056      .   S
    H1401  C1366     0.95056      .   S
    O358   Zn134     1.80628      .   S
    O359   Zn135     1.80628      .   S
    O357   Zn133     1.80628      .   S
    H1226  C1191     0.94932  1_455   S
    H1227  C1192     0.94932      .   S
    H1228  C1193     0.94932  1_565   S
    C1366  C1121     1.48748      .   S
    C1367  C1122     1.48748      .   S
    C1368  C1123     1.48748      .   S
    C1191  C1156     1.38515      .   S
    C1192  C1157     1.38515      .   S
    C1193  C1158     1.38515      .   S
    Zn134  O429      1.96104      .   S
    Zn135  O188      1.94120      .   S
    Zn135  O427      1.96104      .   S
    Zn133  O428      1.96104      .   S
    C1156  C1121     1.45249      .   S
    C1156  N666      1.47250      .   S
    C1157  C1122     1.45249      .   S
    C1157  N667      1.47250      .   S
    C1158  C1123     1.45249      .   S
    C1158  N668      1.47250      .   S
    C1123  C913      1.42151      .   S
    C1122  C912      1.42151      .   S
    C1121  C911      1.42151      .   S
    H631   N596      0.88291      .   S
    H632   N597      0.88291      .   S
    H633   N598      0.88291      .   S
    O188   Zn158     1.88816      .   S
    N598   C1088     1.46906      .   S
    N598   C878      1.43139      .   S
    N597   C1087     1.46906      .   S
    N597   C877      1.43139      .   S
    N596   C1086     1.46906      .   S
    N596   C876      1.43139      .   S
    N668   C1088     1.26439      .   S
    N668   H703      0.88080  1_545   S
    N667   C1087     1.26439      .   S
    N667   H702      0.88080      .   S
    N666   C1086     1.26439      .   S
    N666   H701      0.88080  1_655   S
    C913   C878      1.42467      .   S
    C913   C948      1.31172      .   S
    C911   C876      1.42467      .   S
    C911   C946      1.31172      .   S
    C912   C877      1.42467      .   S
    C912   C947      1.31172      .   S
    C1087  O282      1.13307      .   S
    C1088  O283      1.13307  1_545   S
    C1086  O281      1.13307  1_655   S
    C876   C806      1.41715      .   S
    C877   C807      1.41715      .   S
    C878   C808      1.41715      .   S
    H983   C948      0.94698      .   S
    H982   C947      0.94698      .   S
    H981   C946      0.94698      .   S
    O427   C1477     1.27106      .   S
    O428   C1478     1.27106      .   S
    O429   C1479     1.27106      .   S
    C948   C1018     1.43040      .   S
    C947   C1017     1.43040      .   S
    C946   C1016     1.43040      .   S
    O497   C2422     1.14833      .   S
    O498   C2423     1.14833      .   S
    O499   C2424     1.14833      .   S
    C808   H843      0.95051      .   S
    C808   C773      1.37472      .   S
    C807   H842      0.95051      .   S
    C807   C772      1.37472      .   S
    C806   H841      0.95051      .   S
    C806   C771      1.37472      .   S
    H1757  C1722     0.94598      .   S
    H1759  C1724     0.94598      .   S
    H1758  C1723     0.94598      .   S
    C1017  C772      1.44574      .   S
    C1017  H1052     0.94937      .   S
    C1018  C773      1.44574      .   S
    C1018  H1053     0.94937      .   S
    C1016  C771      1.44574      .   S
    C1016  H1051     0.94937      .   S
    Zn158  O394      1.93067      .   S
    Zn158  O392      1.92897      .   S
    Zn158  O393      1.92853      .   S
    C772   C737      1.47957      .   S
    C773   C738      1.47957      .   S
    C771   C736      1.47957      .   S
    C2422  N2282     1.49425      .   S
    C2422  N2352     1.46938      .   S
    C2423  N2283     1.49425      .   S
    C2423  N2353     1.46938      .   S
    C2424  N2284     1.49425      .   S
    C2424  N2354     1.46938      .   S
    C1477  O392      1.24881      .   S
    C1477  C1512     1.52151      .   S
    C1478  O393      1.24881      .   S
    C1478  C1513     1.52151      .   S
    C1479  O394      1.24881      .   S
    C1479  C1514     1.52151      .   S
    C1724  C1514     1.32211      .   S
    C1724  C1689     1.44525      .   S
    C1723  C1513     1.32211      .   S
    C1723  C1688     1.44525      .   S
    C1722  C1512     1.32211      .   S
    C1722  C1687     1.44525      .   S
    H2319  N2284     0.87878      .   S
    H2318  N2283     0.87878      .   S
    H2317  N2282     0.87878      .   S
    N2282  C1687     1.38928      .   S
    N2283  C1688     1.38928      .   S
    N2284  C1689     1.38928      .   S
    C736   O211      1.22516      .   S
    C736   O246      1.34273      .   S
    C737   O212      1.22516      .   S
    C737   O247      1.34273      .   S
    C738   O213      1.22516      .   S
    C738   O248      1.34273      .   S
    C1512  C1547     1.38417      .   S
    C1513  C1548     1.38417      .   S
    C1514  C1549     1.38417      .   S
    H2388  N2353     0.87926      .   S
    H2389  N2354     0.87926      .   S
    H2387  N2352     0.87926      .   S
    O211   Zn94      1.91203      .   S
    O212   Zn92      1.91203      .   S
    O213   Zn93      1.91203      .   S
    N2352  C2037     1.36686      .   S
    N2353  C2038     1.36686      .   S
    N2354  C2039     1.36686      .   S
    C1687  C1652     1.31386      .   S
    C1688  C1653     1.31386      .   S
    C1689  C1654     1.31386      .   S
    O246   Zn92      1.87392      .   S
    O247   Zn93      1.87392      .   S
    O248   Zn94      1.87392      .   S
    C1549  H1584     0.95075      .   S
    C1549  C1619     1.43854      .   S
    C1548  H1583     0.95075      .   S
    C1548  C1618     1.43854      .   S
    C1547  H1582     0.95075      .   S
    C1547  C1617     1.43854      .   S
    Zn94   O523      1.87455      .   S
    Zn92   O173      1.93287      .   S
    Zn92   O525      1.87455      .   S
    Zn93   O173      1.93287      .   S
    Zn93   O524      1.87455      .   S
    C1654  C1619     1.38180      .   S
    C1654  C1794     1.41515      .   S
    C1652  C1617     1.38180      .   S
    C1652  C1792     1.41515      .   S
    C1653  C1618     1.38180      .   S
    C1653  C1793     1.41515      .   S
    C2037  C1792     1.41521      .   S
    C2037  C1967     1.33862      .   S
    C2038  C1793     1.41521      .   S
    C2038  C1968     1.33862      .   S
    C2039  C1794     1.41521      .   S
    C2039  C1969     1.33862      .   S
    C1617  N2107     1.44860      .   S
    C1618  N2108     1.44860      .   S
    C1619  N2109     1.44860      .   S
    H2002  C1967     0.94802      .   S
    H2003  C1968     0.94802      .   S
    H2004  C1969     0.94802      .   S
    C1792  C1827     1.43562      .   S
    C1793  C1828     1.43562      .   S
    C1794  C1829     1.43562      .   S
    C1969  C1934     1.37475      .   S
    C1967  C1932     1.37475      .   S
    C1968  C1933     1.37475      .   S
    O525   C2065     1.19042      .   S
    O524   C2064     1.19042      .   S
    O523   C2063     1.19042      .   S
    O453   C2238     1.12166      .   S
    O454   C2239     1.12166      .   S
    O455   C2240     1.12166      .   S
    H2144  N2109     0.87778      .   S
    H2143  N2108     0.87778      .   S
    H2142  N2107     0.87778      .   S
    N2107  C2247     1.46454      .   S
    N2108  C2248     1.46454      .   S
    N2109  C2249     1.46454      .   S
    H1890  C1855     0.94808      .   S
    H1888  C1853     0.94808      .   S
    H1889  C1854     0.94808      .   S
    H2203  N2168     0.88301      .   S
    H2204  N2169     0.88301      .   S
    H2205  N2170     0.88301      .   S
    C1829  C1864     1.33681      .   S
    C1829  N2179     1.48041      .   S
    C1827  C1862     1.33681      .   S
    C1827  N2177     1.48041      .   S
    C1828  C1863     1.33681      .   S
    C1828  N2178     1.48041      .   S
    C1933  C1863     1.42566      .   S
    C1933  C2073     1.55459      .   S
    C1934  C1864     1.42566      .   S
    C1934  C2074     1.55459      .   S
    C1932  C1862     1.42566      .   S
    C1932  C2072     1.55459      .   S
    C2065  O560      1.33972      .   S
    C2065  C1925     1.55459      .   S
    C2064  O559      1.33972      .   S
    C2064  C1924     1.55459      .   S
    C2063  O558      1.33972      .   S
    C2063  C1923     1.55459      .   S
    Zn73   O560      1.90979      .   S
    Zn73   O559      1.90979      .   S
    Zn73   O558      1.90979      .   S
    C2238  N2168     1.44487      .   S
    C2238  N2098     1.46454      .   S
    C2239  N2169     1.44487      .   S
    C2239  N2099     1.46454      .   S
    C2240  N2170     1.44487      .   S
    C2240  N2100     1.46454      .   S
    O567   Zn70      1.90979      .   S
    O567   C2072     1.33972      .   S
    O568   Zn70      1.90979  1_665   S
    O568   C2073     1.33972      .   S
    O569   Zn70      1.90979  1_565   S
    O569   C2074     1.33972      .   S
    N2170  C1820     1.48041      .   S
    N2169  C1819     1.48041  1_565   S
    N2168  C1818     1.48041  1_455   S
    C1855  C1925     1.42566      .   S
    C1855  C1820     1.33681      .   S
    C1854  C1924     1.42566      .   S
    C1854  C1819     1.33681      .   S
    C1853  C1923     1.42566      .   S
    C1853  C1818     1.33681      .   S
    C1862  H1897     0.94808      .   S
    C1864  H1899     0.94808      .   S
    C1863  H1898     0.94808      .   S
    N2179  C2249     1.44487      .   S
    N2179  H2214     0.88301      .   S
    N2177  C2247     1.44487      .   S
    N2177  H2212     0.88301      .   S
    N2178  C2248     1.44487      .   S
    N2178  H2213     0.88301      .   S
    C2247  O462      1.12166      .   S
    C2248  O463      1.12166      .   S
    C2249  O464      1.12166      .   S
    C2074  O534      1.19042      .   S
    C2072  O532      1.19042      .   S
    C2073  O533      1.19042      .   S
    C1924  C1959     1.37475      .   S
    C1925  C1960     1.37475      .   S
    C1923  C1958     1.37475      .   S
    C1820  C1785     1.43562      .   S
    C1819  C1784     1.43562      .   S
    C1818  C1783     1.43562      .   S
    N2100  H2135     0.87778      .   S
    N2100  C1610     1.44860      .   S
    N2098  H2133     0.87778      .   S
    N2098  C1608     1.44860      .   S
    N2099  H2134     0.87778      .   S
    N2099  C1609     1.44860      .   S
    O532   Zn85      1.87455      .   S
    O533   Zn84      1.87455      .   S
    O534   Zn83      1.87455      .   S
    C1960  H1995     0.94802      .   S
    C1960  C2030     1.33862      .   S
    C1959  H1994     0.94802      .   S
    C1959  C2029     1.33862      .   S
    C1958  H1993     0.94802      .   S
    C1958  C2028     1.33862      .   S
    C1783  C2028     1.41521      .   S
    C1783  C1643     1.41515  1_655   S
    C1784  C2029     1.41521      .   S
    C1784  C1644     1.41515  1_545   S
    C1785  C2030     1.41521      .   S
    C1785  C1645     1.41515      .   S
    O170   Zn84      1.93287  1_445   S
    O170   Zn83      1.93287  1_545   S
    C1609  C1644     1.38180      .   S
    C1609  C1539     1.43854      .   S
    C1610  C1645     1.38180      .   S
    C1610  C1540     1.43854      .   S
    C1608  C1643     1.38180      .   S
    C1608  C1538     1.43854      .   S
    C2028  N2343     1.36686      .   S
    C2030  N2345     1.36686      .   S
    C2029  N2344     1.36686      .   S
    H1575  C1540     0.95075      .   S
    H1574  C1539     0.95075      .   S
    H1573  C1538     0.95075      .   S
    C1643  C1678     1.31386      .   S
    C1644  C1679     1.31386      .   S
    C1645  C1680     1.31386      .   S
    Zn84   O238      1.87392      .   S
    Zn84   O204      1.91203      .   S
    Zn85   O239      1.87392  1_455   S
    Zn85   O202      1.91203      .   S
    Zn83   O237      1.87392  1_565   S
    Zn83   O203      1.91203      .   S
    C1540  C1505     1.38417      .   S
    C1539  C1504     1.38417      .   S
    C1538  C1503     1.38417      .   S
    O239   C729      1.34273      .   S
    O238   C728      1.34273      .   S
    O237   C727      1.34273      .   S
    C1680  N2275     1.38928      .   S
    C1680  C1715     1.44525      .   S
    C1679  N2274     1.38928  1_565   S
    C1679  C1714     1.44525      .   S
    C1678  N2273     1.38928  1_455   S
    C1678  C1713     1.44525      .   S
    N2344  H2379     0.87926      .   S
    N2344  C2414     1.46938      .   S
    N2345  H2380     0.87926      .   S
    N2345  C2415     1.46938      .   S
    N2343  H2378     0.87926      .   S
    N2343  C2413     1.46938      .   S
    O202   C727      1.22516      .   S
    O203   C728      1.22516  1_455   S
    O204   C729      1.22516  1_565   S
    C1503  C1713     1.32211      .   S
    C1503  C1468     1.52151      .   S
    C1504  C1714     1.32211      .   S
    C1504  C1469     1.52151      .   S
    C1505  C1715     1.32211      .   S
    C1505  C1470     1.52151      .   S
    C727   C762      1.47957      .   S
    C728   C763      1.47957      .   S
    C729   C764      1.47957      .   S
    O385   C1470     1.24881      .   S
    O385   Zn153     1.93067      .   S
    O384   C1469     1.24881      .   S
    O384   Zn153     1.92853      .   S
    O383   C1468     1.24881      .   S
    O383   Zn153     1.92897      .   S
    N2273  H2308     0.87878      .   S
    N2273  C2413     1.49425      .   S
    N2275  H2310     0.87878      .   S
    N2275  C2415     1.49425      .   S
    N2274  H2309     0.87878      .   S
    N2274  C2414     1.49425      .   S
    C1713  H1748     0.94598      .   S
    C1714  H1749     0.94598      .   S
    C1715  H1750     0.94598      .   S
    C1470  O420      1.27106      .   S
    C1469  O419      1.27106      .   S
    C1468  O418      1.27106      .   S
    C2413  O488      1.14833      .   S
    C2414  O489      1.14833      .   S
    C2415  O490      1.14833      .   S
    H1042  C1007     0.94937      .   S
    H1043  C1008     0.94937      .   S
    H1044  C1009     0.94937      .   S
    C762   C1007     1.44574      .   S
    C762   C797      1.37472      .   S
    C763   C1008     1.44574      .   S
    C763   C798      1.37472      .   S
    C764   C1009     1.44574      .   S
    C764   C799      1.37472      .   S
    Zn153  O183      1.88816      .   S
    C1008  C938      1.43040      .   S
    C1007  C937      1.43040      .   S
    C1009  C939      1.43040      .   S
    H833   C798      0.95051  1_455   S
    H832   C797      0.95051      .   S
    H834   C799      0.95051  1_565   S
    C797   C867      1.41715      .   S
    C799   C869      1.41715      .   S
    C798   C868      1.41715      .   S
    C939   H974      0.94698      .   S
    C939   C904      1.31172      .   S
    C938   H973      0.94698      .   S
    C938   C903      1.31172      .   S
    C937   H972      0.94698      .   S
    C937   C902      1.31172      .   S
    O420   Zn125     1.96104      .   S
    O419   Zn124     1.96104      .   S
    O418   Zn126     1.96104      .   S
    H694   N659      0.88080      .   S
    H692   N657      0.88080      .   S
    H693   N658      0.88080      .   S
    C869   C904      1.42467      .   S
    C869   N589      1.43139      .   S
    C868   C903      1.42467      .   S
    C868   N588      1.43139      .   S
    C867   C902      1.42467      .   S
    C867   N587      1.43139      .   S
    O274   C1079     1.13307  1_565   S
    O273   C1078     1.13307  1_455   S
    O272   C1077     1.13307      .   S
    C1079  N659      1.26439      .   S
    C1079  N589      1.46906      .   S
    C1077  N657      1.26439      .   S
    C1077  N587      1.46906      .   S
    C1078  N658      1.26439      .   S
    C1078  N588      1.46906      .   S
    C904   C1114     1.42151      .   S
    C903   C1113     1.42151      .   S
    C902   C1112     1.42151      .   S
    N657   C1147     1.47250      .   S
    N659   C1149     1.47250      .   S
    N658   C1148     1.47250      .   S
    N587   H622      0.88291      .   S
    N588   H623      0.88291  1_655   S
    N589   H624      0.88291  1_545   S
    O183   Zn126     1.94120      .   S
    C1112  C1147     1.45249      .   S
    C1112  C1357     1.48748      .   S
    C1113  C1148     1.45249      .   S
    C1113  C1358     1.48748      .   S
    C1114  C1149     1.45249      .   S
    C1114  C1359     1.48748      .   S
    C1147  C1182     1.38515      .   S
    C1148  C1183     1.38515      .   S
    C1149  C1184     1.38515      .   S
    Zn125  O349      1.80628      .   S
    Zn125  O313      1.87734      .   S
    Zn124  O348      1.80628      .   S
    Zn124  O315      1.87734      .   S
    Zn126  O350      1.80628      .   S
    Zn126  O314      1.87734      .   S
    C1182  H1217     0.94932      .   S
    C1182  C1252     1.43713      .   S
    C1183  H1218     0.94932      .   S
    C1183  C1253     1.43713      .   S
    C1184  H1219     0.94932      .   S
    C1184  C1254     1.43713      .   S
    C1357  H1392     0.95056      .   S
    C1357  C1287     1.28209      .   S
    C1359  H1394     0.95056      .   S
    C1359  C1289     1.28209      .   S
    C1358  H1393     0.95056      .   S
    C1358  C1288     1.28209      .   S
    O350   C1435     1.51592      .   S
    O349   C1434     1.51592      .   S
    O348   C1433     1.51592      .   S
    O313   C1433     1.16042      .   S
    O314   C1434     1.16042      .   S
    O315   C1435     1.16042      .   S
    C1253  C1288     1.41245      .   S
    C1254  C1289     1.41245      .   S
    C1252  C1287     1.41245      .   S
    O4     Zn0       1.94240      .   S
    O4     Zn81      1.93287  1_445   S
    O5     Zn2       1.94160      .   S
    O5     Zn116     1.94336      .   S
    O170   Zn70      1.94240      .   S
    O170   Zn85      1.93287      .   S
    O171   Zn71      1.94240      .   S
    O171   Zn88      1.93287  1_445   S
    O172   Zn72      1.94240      .   S
    O172   Zn91      1.93287  1_445   S
    O173   Zn73      1.94240      .   S
    O173   Zn94      1.93287      .   S
    O174   Zn74      1.94240      .   S
    O174   Zn96      1.93287      .   S
    O175   Zn75      1.94240      .   S
    O175   Zn100     1.93287      .   S
    O176   Zn76      1.94240      .   S
    O176   Zn102     1.93287      .   S
    O177   Zn77      1.94240      .   S
    O177   Zn105     1.93287      .   S
    O178   Zn78      1.94240      .   S
    O178   Zn108     1.93287      .   S
    O179   Zn79      1.94240      .   S
    O179   Zn112     1.93287      .   S
    O180   Zn80      1.94240      .   S
    O180   Zn115     1.93287      .   S
    O181   Zn118     1.94160      .   S
    O181   Zn119     1.94336      .   S
    O182   Zn121     1.94160      .   S
    O182   Zn122     1.94336      .   S
    O183   Zn124     1.94160      .   S
    O183   Zn125     1.94336      .   S
    O184   Zn127     1.94160  1_545   S
    O184   Zn128     1.94336  1_645   S
    O184   Zn155     1.88816  1_545   S
    O184   Zn156     1.88816  1_655   S
    O185   Zn128     1.94160  1_655   S
    O185   Zn129     1.94336  1_665   S
    O185   Zn154     1.88816  1_565   S
    O185   Zn156     1.88816  1_665   S
    O186   Zn127     1.94336  1_445   S
    O186   Zn129     1.94160      .   S
    O186   Zn154     1.88816  1_455   S
    O186   Zn155     1.88816  1_445   S
    O187   Zn130     1.94160      .   S
    O187   Zn131     1.94336      .   S
    O188   Zn133     1.94160      .   S
    O188   Zn134     1.94336      .   S
    O189   Zn136     1.94160  1_655   S
    O189   Zn137     1.94336  1_645   S
    O189   Zn160     1.88816  1_655   S
    O189   Zn161     1.88816  1_545   S
    O190   Zn137     1.94160  1_545   S
    O190   Zn138     1.94336  1_445   S
    O190   Zn159     1.88816  1_455   S
    O190   Zn161     1.88816  1_445   S
    O191   Zn136     1.94336  1_665   S
    O191   Zn138     1.94160      .   S
    O191   Zn159     1.88816  1_565   S
    O191   Zn160     1.88816  1_665   S
    O192   Zn139     1.94160      .   S
    O192   Zn140     1.94336      .   S
    O193   Zn142     1.94160  1_455   S
    O193   Zn143     1.94336  1_465   S
    O193   Zn164     1.88816  1_455   S
    O193   Zn165     1.88816  1_565   S
    O194   Zn143     1.94160  1_565   S
    O194   Zn144     1.94336  1_665   S
    O194   Zn163     1.88816  1_655   S
    O194   Zn165     1.88816  1_665   S
    O195   Zn142     1.94336  1_445   S
    O195   Zn144     1.94160      .   S
    O195   Zn163     1.88816  1_545   S
    O195   Zn164     1.88816  1_445   S
    O196   Zn145     1.94160  1_565   S
    O196   Zn146     1.94336  1_465   S
    O196   Zn167     1.88816  1_565   S
    O196   Zn168     1.88816  1_455   S
    O197   Zn146     1.94160  1_455   S
    O197   Zn147     1.94336  1_445   S
    O197   Zn166     1.88816  1_545   S
    O197   Zn168     1.88816  1_445   S
    O198   Zn145     1.94336  1_665   S
    O198   Zn147     1.94160      .   S
    O198   Zn166     1.88816  1_655   S
    O198   Zn167     1.88816  1_665   S
    O199   Zn148     1.94160      .   S
    O199   Zn149     1.94336      .   S
    O386   Zn154     1.92897  1_455   S
    O386   Zn155     1.93067  1_445   S
    O386   Zn156     1.92853      .   S
    O387   Zn154     1.92853  1_565   S
    O387   Zn155     1.92897      .   S
    O387   Zn156     1.93067  1_665   S
    O388   Zn154     1.93067  1_465   S
    O388   Zn155     1.92853  1_455   S
    O388   Zn156     1.92897  1_565   S
    O395   Zn159     1.92897  1_565   S
    O395   Zn160     1.93067  1_665   S
    O395   Zn161     1.92853      .   S
    O396   Zn159     1.92853  1_455   S
    O396   Zn160     1.92897      .   S
    O396   Zn161     1.93067  1_445   S
    O397   Zn159     1.93067  1_465   S
    O397   Zn160     1.92853  1_565   S
    O397   Zn161     1.92897  1_455   S
    O401   Zn163     1.92897  1_545   S
    O401   Zn164     1.93067  1_445   S
    O401   Zn165     1.92853      .   S
    O402   Zn163     1.92853  1_655   S
    O402   Zn164     1.92897      .   S
    O402   Zn165     1.93067  1_665   S
    O403   Zn163     1.93067  1_645   S
    O403   Zn164     1.92853  1_545   S
    O403   Zn165     1.92897  1_655   S
    O404   Zn166     1.92897  1_655   S
    O404   Zn167     1.93067  1_665   S
    O404   Zn168     1.92853      .   S
    O405   Zn166     1.92853  1_545   S
    O405   Zn167     1.92897      .   S
    O405   Zn168     1.93067  1_445   S
    O406   Zn166     1.93067  1_645   S
    O406   Zn167     1.92853  1_655   S
    O406   Zn168     1.92897  1_545   S
    O421   Zn129     1.96104      .   S
    O422   Zn127     1.96104      .   S
    O423   Zn128     1.96104      .   S
    O430   Zn138     1.96104      .   S
    O431   Zn136     1.96104      .   S
    O432   Zn137     1.96104      .   S
    O436   Zn144     1.96104      .   S
    O437   Zn142     1.96104      .   S
    O438   Zn143     1.96104      .   S
    O439   Zn147     1.96104      .   S
    O440   Zn145     1.96104      .   S
    O441   Zn146     1.96104      .   S
