# CIF file generated by openbabel 2.4.90, see http://openbabel.sf.net
data_I
_chemical_name_common ''
_cell_length_a 24.4635
_cell_length_b 24.4635
_cell_length_c 112.996
_cell_angle_alpha 90
_cell_angle_beta 90
_cell_angle_gamma 120
_space_group_name_H-M_alt 'P 1'
_space_group_name_Hall 'P 1'
loop_
    _symmetry_equiv_pos_as_xyz
    x,y,z
loop_
    _atom_site_label
    _atom_site_type_symbol
    _atom_site_fract_x
    _atom_site_fract_y
    _atom_site_fract_z
    _atom_site_occupancy
    C0      C    0.20830   0.35730   0.51654   1.000
    N1      N    0.27500   0.28630   0.52236   1.000
    H2      H    0.28070   0.25930   0.51810   1.000
    O3      O    0.11610   0.10290   0.54673   1.000
    O4      O    0.03630   0.12460   0.54896   1.000
    O5      O    0.37960   0.35030   0.52540   1.000
    O6      O    0.34250   0.55800   0.49357   1.000
    O7      O    0.23500   0.53890   0.49299   1.000
    O8      O    0.38880   0.74920   0.45698   1.000
    O9      O    0.38320   0.80530   0.47220   1.000
    O10     O    0.49130   0.88290   0.40631   1.000
    O11     O    0.51790   0.09670   0.47150   1.000
    O12     O    0.60870   0.19080   0.40243   1.000
    O13     O    0.63250   0.24990   0.41916   1.000
    N14     N    0.32140   0.39200   0.52280   1.000
    H15     H    0.34730   0.42660   0.52670   1.000
    C16     C    0.08980   0.13260   0.54405   1.000
    C17     C    0.12130   0.18990   0.53659   1.000
    C18     C    0.18160   0.20890   0.53280   1.000
    H19     H    0.20220   0.18570   0.53460   1.000
    C20     C    0.21140   0.26500   0.52598   1.000
    C21     C    0.18280   0.30240   0.52376   1.000
    C22     C    0.12580   0.28130   0.52800   1.000
    H23     H    0.10720   0.30660   0.52660   1.000
    C24     C    0.08860   0.22460   0.53460   1.000
    H25     H    0.04720   0.21120   0.53740   1.000
    C26     C    0.33190   0.34720   0.52478   1.000
    C27     C    0.50020   0.91530   0.41400   1.000
    C28     C    0.27590   0.39970   0.51548   1.000
    C29     C    0.30120   0.45290   0.50836   1.000
    H30     H    0.34540   0.48060   0.50770   1.000
    C31     C    0.25630   0.46350   0.50206   1.000
    C32     C    0.19120   0.41850   0.50200   1.000
    H33     H    0.16340   0.42700   0.49750   1.000
    C34     C    0.16820   0.36660   0.50780   1.000
    H35     H    0.12580   0.33420   0.50650   1.000
    C36     C    0.28930   0.52800   0.49590   1.000
    C37     C    0.39810   0.79930   0.46170   1.000
    C38     C    0.43150   0.86060   0.45471   1.000
    C39     C    0.45780   0.85740   0.44407   1.000
    H40     H    0.45420   0.81920   0.44120   1.000
    C41     C    0.49090   0.91570   0.43760   1.000
    C42     C    0.49300   0.97030   0.44147   1.000
    C43     C    0.46550   0.96860   0.45156   1.000
    C44     C    0.43180   0.91180   0.45855   1.000
    H45     H    0.41070   0.91130   0.46560   1.000
    C46     C    0.52360   0.02670   0.43478   1.000
    C47     C    0.52530   0.02510   0.42209   1.000
    C48     C    0.55140   0.07880   0.41588   1.000
    H49     H    0.54970   0.07670   0.40750   1.000
    C50     C    0.58180   0.13910   0.42148   1.000
    C51     C    0.58580   0.13980   0.43362   1.000
    H52     H    0.61070   0.17900   0.43750   1.000
    C53     C    0.55590   0.08710   0.44011   1.000
    C54     C    0.61100   0.19650   0.41291   1.000
    N55     N    0.51520   0.90930   0.42631   1.000
    H56     H    0.54530   0.89990   0.42700   1.000
    N57     N    0.49100   0.96920   0.41435   1.000
    H58     H    0.46250   0.96880   0.40950   1.000
    N59     N    0.46180   0.01730   0.45712   1.000
    H60     H    0.42370   0.01210   0.45780   1.000
    N61     N    0.55830   0.09540   0.45210   1.000
    H62     H    0.59760   0.11830   0.45450   1.000
    C63     C    0.51420   0.07730   0.46210   1.000
    O64     O    0.87540   0.91170   0.54896   1.000
    O65     O    0.75497   0.45793   0.38229   1.000
    O66     O    0.70297   0.24503   0.38229   1.000
    O67     O    0.36963   0.79127   0.21563   1.000
    O68     O    0.20873   0.57837   0.21563   1.000
    O69     O    0.89710   0.01320   0.54673   1.000
    O70     O    0.98680   0.88390   0.54673   1.000
    O71     O    0.05547   0.97293   0.29031   1.000
    O72     O    0.72213   0.41587   0.12365   1.000
    O73     O    0.58413   0.30627   0.12365   1.000
    O74     O    0.69373   0.27787   0.12365   1.000
    O75     O    0.08253   0.05547   0.70969   1.000
    O76     O    0.08830   0.96370   0.54896   1.000
    O77     O    0.10290   0.11610   0.95327   1.000
    O78     O    0.01320   0.89710   0.95327   1.000
    O79     O    0.88390   0.98680   0.95327   1.000
    O80     O    0.88390   0.89710   0.45327   1.000
    O81     O    0.10290   0.98680   0.45327   1.000
    O82     O    0.01320   0.11610   0.45327   1.000
    O83     O    0.89710   0.88390   0.04673   1.000
    O84     O    0.98680   0.10290   0.04673   1.000
    O85     O    0.11610   0.01320   0.04673   1.000
    O86     O    0.78277   0.43623   0.88006   1.000
    O87     O    0.56377   0.34653   0.88006   1.000
    O88     O    0.65347   0.21723   0.88006   1.000
    O89     O    0.76957   0.44943   0.28660   1.000
    O90     O    0.67987   0.23043   0.28660   1.000
    O91     O    0.55057   0.32013   0.28660   1.000
    O92     O    0.55057   0.23043   0.78660   1.000
    O93     O    0.76957   0.32013   0.78660   1.000
    O94     O    0.67987   0.44943   0.78660   1.000
    O95     O    0.56377   0.21723   0.38006   1.000
    O96     O    0.65347   0.43623   0.38006   1.000
    O97     O    0.78277   0.34653   0.38006   1.000
    O98     O    0.44943   0.76957   0.21340   1.000
    O99     O    0.23043   0.67987   0.21340   1.000
    O100    O    0.32013   0.55057   0.21340   1.000
    O101    O    0.43623   0.78277   0.61994   1.000
    O102    O    0.34653   0.56377   0.61994   1.000
    O103    O    0.21723   0.65347   0.61994   1.000
    O104    O    0.21723   0.56377   0.11994   1.000
    O105    O    0.43623   0.65347   0.11994   1.000
    O106    O    0.34653   0.78277   0.11994   1.000
    O107    O    0.23043   0.55057   0.71340   1.000
    O108    O    0.32013   0.76957   0.71340   1.000
    O109    O    0.44943   0.67987   0.71340   1.000
    O110    O    0.64970   0.02930   0.52540   1.000
    O111    O    0.97070   0.62040   0.52540   1.000
    O112    O    0.12460   0.03630   0.95104   1.000
    O113    O    0.91170   0.87540   0.95104   1.000
    O114    O    0.96370   0.08830   0.95104   1.000
    O115    O    0.96370   0.87540   0.45104   1.000
    O116    O    0.12460   0.08830   0.45104   1.000
    O117    O    0.91170   0.03630   0.45104   1.000
    O118    O    0.87540   0.96370   0.04896   1.000
    O119    O    0.08830   0.12460   0.04896   1.000
    O120    O    0.03630   0.91170   0.04896   1.000
    O121    O    0.70297   0.45793   0.88229   1.000
    O122    O    0.54207   0.24503   0.88229   1.000
    O123    O    0.75497   0.29703   0.88229   1.000
    O124    O    0.79127   0.36963   0.28437   1.000
    O125    O    0.57837   0.20873   0.28437   1.000
    O126    O    0.63037   0.42163   0.28437   1.000
    O127    O    0.63037   0.20873   0.78437   1.000
    O128    O    0.79127   0.42163   0.78437   1.000
    O129    O    0.57837   0.36963   0.78437   1.000
    O130    O    0.54207   0.29703   0.38229   1.000
    O131    O    0.23663   0.14877   0.63817   1.000
    O132    O    0.91213   0.76337   0.63817   1.000
    O133    O    0.85123   0.08787   0.63817   1.000
    O134    O    0.75010   0.38260   0.41916   1.000
    O135    O    0.61740   0.36750   0.41916   1.000
    O136    O    0.80920   0.41790   0.40243   1.000
    O137    O    0.42163   0.63037   0.21563   1.000
    O138    O    0.45793   0.70297   0.61771   1.000
    O139    O    0.24503   0.54207   0.61771   1.000
    O140    O    0.29703   0.75497   0.61771   1.000
    O141    O    0.29703   0.54207   0.11771   1.000
    O142    O    0.45793   0.75497   0.11771   1.000
    O143    O    0.24503   0.70297   0.11771   1.000
    O144    O    0.20873   0.63037   0.71563   1.000
    O145    O    0.42163   0.79127   0.71563   1.000
    O146    O    0.36963   0.57837   0.71563   1.000
    O147    O    0.44200   0.78450   0.49357   1.000
    O148    O    0.21550   0.65750   0.49357   1.000
    O149    O    0.35030   0.37960   0.97460   1.000
    O150    O    0.02930   0.64970   0.97460   1.000
    O151    O    0.62040   0.97070   0.97460   1.000
    O152    O    0.62040   0.64970   0.47460   1.000
    O153    O    0.35030   0.97070   0.47460   1.000
    O154    O    0.02930   0.37960   0.47460   1.000
    O155    O    0.64970   0.62040   0.02540   1.000
    O156    O    0.97070   0.35030   0.02540   1.000
    O157    O    0.37960   0.02930   0.02540   1.000
    O158    O    0.04627   0.68363   0.85873   1.000
    O159    O    0.31637   0.36263   0.85873   1.000
    O160    O    0.63737   0.95373   0.85873   1.000
    O161    O    0.01697   0.71293   0.30793   1.000
    O162    O    0.69597   0.98303   0.30793   1.000
    O163    O    0.28707   0.30403   0.30793   1.000
    O164    O    0.28707   0.98303   0.80793   1.000
    O165    O    0.01697   0.30403   0.80793   1.000
    O166    O    0.69597   0.71293   0.80793   1.000
    O167    O    0.31637   0.95373   0.35873   1.000
    O168    O    0.63737   0.68363   0.35873   1.000
    O169    O    0.04627   0.36263   0.35873   1.000
    O170    O    0.71293   0.01697   0.19207   1.000
    O171    O    0.98303   0.69597   0.19207   1.000
    O172    O    0.30403   0.28707   0.19207   1.000
    O173    O    0.68363   0.04627   0.64127   1.000
    O174    O    0.36263   0.31637   0.64127   1.000
    O175    O    0.95373   0.63737   0.64127   1.000
    O176    O    0.95373   0.31637   0.14127   1.000
    O177    O    0.68363   0.63737   0.14127   1.000
    O178    O    0.36263   0.04627   0.14127   1.000
    O179    O    0.98303   0.28707   0.69207   1.000
    O180    O    0.30403   0.01697   0.69207   1.000
    O181    O    0.71293   0.69597   0.69207   1.000
    O182    O    0.46110   0.69610   0.49299   1.000
    O183    O    0.30390   0.76500   0.49299   1.000
    O184    O    0.55800   0.34250   0.00643   1.000
    O185    O    0.78450   0.44200   0.00643   1.000
    O186    O    0.65750   0.21550   0.00643   1.000
    O187    O    0.65750   0.44200   0.50643   1.000
    O188    O    0.55800   0.21550   0.50643   1.000
    O189    O    0.78450   0.34250   0.50643   1.000
    O190    O    0.44200   0.65750   0.99357   1.000
    O191    O    0.21550   0.55800   0.99357   1.000
    O192    O    0.34250   0.78450   0.99357   1.000
    O193    O    0.00917   0.89133   0.82690   1.000
    O194    O    0.10867   0.11783   0.82690   1.000
    O195    O    0.88217   0.99083   0.82690   1.000
    O196    O    0.22467   0.67583   0.33976   1.000
    O197    O    0.45117   0.77533   0.33976   1.000
    O198    O    0.32417   0.54883   0.33976   1.000
    O199    O    0.32417   0.77533   0.83976   1.000
    O200    O    0.22467   0.54883   0.83976   1.000
    O201    O    0.45117   0.67583   0.83976   1.000
    O202    O    0.10867   0.99083   0.32690   1.000
    O203    O    0.88217   0.89133   0.32690   1.000
    O204    O    0.00917   0.11783   0.32690   1.000
    O205    O    0.67583   0.22467   0.16024   1.000
    O206    O    0.77533   0.45117   0.16024   1.000
    O207    O    0.54883   0.32417   0.16024   1.000
    O208    O    0.89133   0.00917   0.67310   1.000
    O209    O    0.11783   0.10867   0.67310   1.000
    O210    O    0.99083   0.88217   0.67310   1.000
    O211    O    0.99083   0.10867   0.17310   1.000
    O212    O    0.89133   0.88217   0.17310   1.000
    O213    O    0.11783   0.00917   0.17310   1.000
    O214    O    0.77533   0.32417   0.66024   1.000
    O215    O    0.54883   0.22467   0.66024   1.000
    O216    O    0.67583   0.45117   0.66024   1.000
    O217    O    0.25080   0.63960   0.45698   1.000
    O218    O    0.36040   0.61120   0.45698   1.000
    O219    O    0.53890   0.23500   0.00701   1.000
    O220    O    0.69610   0.46110   0.00701   1.000
    O221    O    0.76500   0.30390   0.00701   1.000
    O222    O    0.76500   0.46110   0.50701   1.000
    O223    O    0.53890   0.30390   0.50701   1.000
    O224    O    0.69610   0.23500   0.50701   1.000
    O225    O    0.46110   0.76500   0.99299   1.000
    O226    O    0.30390   0.53890   0.99299   1.000
    O227    O    0.23500   0.69610   0.99299   1.000
    O228    O    0.90167   0.87223   0.82632   1.000
    O229    O    0.12777   0.02943   0.82632   1.000
    O230    O    0.97057   0.09833   0.82632   1.000
    O231    O    0.20557   0.56833   0.34034   1.000
    O232    O    0.36277   0.79443   0.34034   1.000
    O233    O    0.43167   0.63723   0.34034   1.000
    O234    O    0.43167   0.79443   0.84034   1.000
    O235    O    0.20557   0.63723   0.84034   1.000
    O236    O    0.36277   0.56833   0.84034   1.000
    O237    O    0.12777   0.09833   0.32632   1.000
    O238    O    0.97057   0.87223   0.32632   1.000
    O239    O    0.90167   0.02943   0.32632   1.000
    O240    O    0.56833   0.20557   0.15966   1.000
    O241    O    0.79443   0.36277   0.15966   1.000
    O242    O    0.63723   0.43167   0.15966   1.000
    O243    O    0.87223   0.90167   0.67368   1.000
    O244    O    0.02943   0.12777   0.67368   1.000
    O245    O    0.09833   0.97057   0.67368   1.000
    O246    O    0.09833   0.12777   0.17368   1.000
    O247    O    0.87223   0.97057   0.17368   1.000
    O248    O    0.02943   0.90167   0.17368   1.000
    O249    O    0.79443   0.43167   0.65966   1.000
    O250    O    0.63723   0.20557   0.65966   1.000
    O251    O    0.56833   0.36277   0.65966   1.000
    O252    O    0.19470   0.57790   0.47220   1.000
    O253    O    0.42210   0.61680   0.47220   1.000
    O254    O    0.74920   0.38880   0.04302   1.000
    O255    O    0.63960   0.25080   0.04302   1.000
    O256    O    0.61120   0.36040   0.04302   1.000
    O257    O    0.61120   0.25080   0.54302   1.000
    O258    O    0.74920   0.36040   0.54302   1.000
    O259    O    0.63960   0.38880   0.54302   1.000
    O260    O    0.25080   0.61120   0.95698   1.000
    O261    O    0.36040   0.74920   0.95698   1.000
    O262    O    0.38880   0.63960   0.95698   1.000
    O263    O    0.05547   0.08253   0.79031   1.000
    O264    O    0.91747   0.97293   0.79031   1.000
    O265    O    0.02707   0.94453   0.79031   1.000
    O266    O    0.41587   0.72213   0.37635   1.000
    O267    O    0.30627   0.58413   0.37635   1.000
    O268    O    0.27787   0.69373   0.37635   1.000
    O269    O    0.27787   0.58413   0.87635   1.000
    O270    O    0.41587   0.69373   0.87635   1.000
    O271    O    0.30627   0.72213   0.87635   1.000
    O272    O    0.91747   0.94453   0.29031   1.000
    O273    O    0.02707   0.08253   0.29031   1.000
    C274    C    0.40193   0.85657   0.70326   1.000
    C275    C    0.45463   0.59807   0.70326   1.000
    H276    H    0.81430   0.01650   0.53460   1.000
    H277    H    0.98350   0.79780   0.53460   1.000
    C278    C    0.79110   0.97270   0.53280   1.000
    C279    C    0.02730   0.81840   0.53280   1.000
    C280    C    0.20890   0.18160   0.96720   1.000
    C281    C    0.97270   0.79110   0.96720   1.000
    C282    C    0.81840   0.02730   0.96720   1.000
    O283    O    0.97293   0.91747   0.70969   1.000
    O284    O    0.94453   0.02707   0.70969   1.000
    O285    O    0.94453   0.91747   0.20969   1.000
    O286    O    0.08253   0.02707   0.20969   1.000
    O287    O    0.97293   0.05547   0.20969   1.000
    O288    O    0.58413   0.27787   0.62365   1.000
    O289    O    0.69373   0.41587   0.62365   1.000
    O290    O    0.72213   0.30627   0.62365   1.000
    O291    O    0.11710   0.60840   0.40631   1.000
    O292    O    0.39160   0.50870   0.40631   1.000
    O293    O    0.80530   0.38320   0.02780   1.000
    O294    O    0.57790   0.19470   0.02780   1.000
    O295    O    0.61680   0.42210   0.02780   1.000
    O296    O    0.61680   0.19470   0.52780   1.000
    O297    O    0.80530   0.42210   0.52780   1.000
    O298    O    0.57790   0.38320   0.52780   1.000
    O299    O    0.19470   0.61680   0.97220   1.000
    O300    O    0.42210   0.80530   0.97220   1.000
    O301    O    0.38320   0.57790   0.97220   1.000
    O302    O    0.04987   0.13863   0.80553   1.000
    O303    O    0.86137   0.91123   0.80553   1.000
    O304    O    0.08877   0.95013   0.80553   1.000
    O305    O    0.47197   0.71653   0.36113   1.000
    O306    O    0.24457   0.52803   0.36113   1.000
    O307    O    0.28347   0.75543   0.36113   1.000
    O308    O    0.28347   0.52803   0.86113   1.000
    O309    O    0.47197   0.75543   0.86113   1.000
    O310    O    0.24457   0.71653   0.86113   1.000
    O311    O    0.86137   0.95013   0.30553   1.000
    O312    O    0.08877   0.13863   0.30553   1.000
    O313    O    0.04987   0.91123   0.30553   1.000
    O314    O    0.71653   0.47197   0.13887   1.000
    O315    O    0.52803   0.24457   0.13887   1.000
    O316    O    0.75543   0.28347   0.13887   1.000
    O317    O    0.13863   0.04987   0.69447   1.000
    O318    O    0.91123   0.86137   0.69447   1.000
    O319    O    0.95013   0.08877   0.69447   1.000
    O320    O    0.95013   0.86137   0.19447   1.000
    O321    O    0.13863   0.08877   0.19447   1.000
    O322    O    0.91123   0.04987   0.19447   1.000
    O323    O    0.52803   0.28347   0.63887   1.000
    O324    O    0.75543   0.47197   0.63887   1.000
    O325    O    0.71653   0.24457   0.63887   1.000
    O326    O    0.90330   0.42120   0.47150   1.000
    O327    O    0.57880   0.48210   0.47150   1.000
    O328    O    0.88290   0.49130   0.09369   1.000
    O329    O    0.60840   0.11710   0.09369   1.000
    O330    O    0.50870   0.39160   0.09369   1.000
    O331    O    0.50870   0.11710   0.59369   1.000
    O332    O    0.88290   0.39160   0.59369   1.000
    O333    O    0.60840   0.49130   0.59369   1.000
    O334    O    0.11710   0.50870   0.90631   1.000
    O335    O    0.39160   0.88290   0.90631   1.000
    O336    O    0.49130   0.60840   0.90631   1.000
    O337    O    0.15797   0.21623   0.73964   1.000
    O338    O    0.78377   0.94173   0.73964   1.000
    O339    O    0.05827   0.84203   0.73964   1.000
    O340    O    0.54957   0.82463   0.42702   1.000
    O341    O    0.27507   0.45043   0.42702   1.000
    O342    O    0.17537   0.72493   0.42702   1.000
    O343    O    0.17537   0.45043   0.92702   1.000
    O344    O    0.54957   0.72493   0.92702   1.000
    O345    O    0.27507   0.82463   0.92702   1.000
    O346    O    0.78377   0.84203   0.23964   1.000
    O347    O    0.05827   0.21623   0.23964   1.000
    O348    O    0.15797   0.94173   0.23964   1.000
    O349    O    0.82463   0.54957   0.07298   1.000
    O350    O    0.45043   0.27507   0.07298   1.000
    O351    O    0.72493   0.17537   0.07298   1.000
    O352    O    0.21623   0.15797   0.76036   1.000
    O353    O    0.94173   0.78377   0.76036   1.000
    O354    O    0.84203   0.05827   0.76036   1.000
    O355    O    0.84203   0.78377   0.26036   1.000
    O356    O    0.21623   0.05827   0.26036   1.000
    O357    O    0.94173   0.15797   0.26036   1.000
    O358    O    0.45043   0.17537   0.57298   1.000
    O359    O    0.72493   0.54957   0.57298   1.000
    O360    O    0.82463   0.27507   0.57298   1.000
    O361    O    0.58210   0.39130   0.40243   1.000
    O362    O    0.19080   0.60870   0.09757   1.000
    O363    O    0.41790   0.80920   0.09757   1.000
    O364    O    0.09670   0.51790   0.02850   1.000
    O365    O    0.42120   0.90330   0.02850   1.000
    O366    O    0.48210   0.57880   0.02850   1.000
    O367    O    0.48210   0.90330   0.52850   1.000
    O368    O    0.09670   0.57880   0.52850   1.000
    O369    O    0.42120   0.51790   0.52850   1.000
    O370    O    0.90330   0.48210   0.97150   1.000
    O371    O    0.57880   0.09670   0.97150   1.000
    O372    O    0.51790   0.42120   0.97150   1.000
    O373    O    0.18457   0.43003   0.80483   1.000
    O374    O    0.56997   0.75453   0.80483   1.000
    O375    O    0.24547   0.81543   0.80483   1.000
    O376    O    0.76337   0.85123   0.36183   1.000
    O377    O    0.08787   0.23663   0.36183   1.000
    O378    O    0.14877   0.91213   0.36183   1.000
    O379    O    0.14877   0.23663   0.86183   1.000
    O380    O    0.76337   0.91213   0.86183   1.000
    O381    O    0.08787   0.85123   0.86183   1.000
    O382    O    0.56997   0.81543   0.30483   1.000
    O383    O    0.24547   0.43003   0.30483   1.000
    O384    O    0.18457   0.75453   0.30483   1.000
    O385    O    0.85123   0.76337   0.13817   1.000
    O386    O    0.23663   0.08787   0.13817   1.000
    O387    O    0.91213   0.14877   0.13817   1.000
    O388    O    0.43003   0.18457   0.69517   1.000
    O389    O    0.75453   0.56997   0.69517   1.000
    O390    O    0.81543   0.24547   0.69517   1.000
    O391    O    0.81543   0.56997   0.19517   1.000
    O392    O    0.43003   0.24547   0.19517   1.000
    O393    O    0.75453   0.18457   0.19517   1.000
    C394    C    0.53067   0.42193   0.79873   1.000
    C395    C    0.44207   0.24473   0.36793   1.000
    C396    C    0.80267   0.55793   0.36793   1.000
    C397    C    0.75527   0.19733   0.36793   1.000
    C398    C    0.42193   0.89127   0.20127   1.000
    C399    C    0.10873   0.53067   0.20127   1.000
    C400    C    0.46933   0.57807   0.20127   1.000
    C401    C    0.55793   0.75527   0.63207   1.000
    C402    C    0.19733   0.44207   0.63207   1.000
    C403    C    0.24473   0.80267   0.63207   1.000
    C404    C    0.24473   0.44207   0.13207   1.000
    C405    C    0.55793   0.80267   0.13207   1.000
    C406    C    0.19733   0.75527   0.13207   1.000
    C407    C    0.10873   0.57807   0.70127   1.000
    O408    O    0.39130   0.58210   0.09757   1.000
    O409    O    0.39130   0.80920   0.59757   1.000
    O410    O    0.19080   0.58210   0.59757   1.000
    O411    O    0.41790   0.60870   0.59757   1.000
    O412    O    0.80920   0.39130   0.90243   1.000
    O413    O    0.58210   0.19080   0.90243   1.000
    O414    O    0.60870   0.41790   0.90243   1.000
    O415    O    0.27537   0.52413   0.73576   1.000
    O416    O    0.47587   0.75123   0.73576   1.000
    O417    O    0.24877   0.72463   0.73576   1.000
    O418    O    0.85747   0.94203   0.43090   1.000
    O419    O    0.08457   0.14253   0.43090   1.000
    O420    O    0.05797   0.91543   0.43090   1.000
    O421    O    0.05797   0.14253   0.93090   1.000
    O422    O    0.85747   0.91543   0.93090   1.000
    O423    O    0.08457   0.94203   0.93090   1.000
    O424    O    0.47587   0.72463   0.23576   1.000
    O425    O    0.24877   0.52413   0.23576   1.000
    O426    O    0.27537   0.75123   0.23576   1.000
    O427    O    0.94203   0.85747   0.06910   1.000
    O428    O    0.14253   0.08457   0.06910   1.000
    O429    O    0.91543   0.05797   0.06910   1.000
    O430    O    0.52413   0.27537   0.76424   1.000
    O431    O    0.75123   0.47587   0.76424   1.000
    O432    O    0.72463   0.24877   0.76424   1.000
    O433    O    0.72463   0.47587   0.26424   1.000
    O434    O    0.52413   0.24877   0.26424   1.000
    O435    O    0.75123   0.27537   0.26424   1.000
    O436    O    0.14253   0.05797   0.56910   1.000
    O437    O    0.91543   0.85747   0.56910   1.000
    O438    O    0.94203   0.08457   0.56910   1.000
    N439    N    0.71370   0.98870   0.52236   1.000
    N440    N    0.01130   0.72500   0.52236   1.000
    O441    O    0.24990   0.63250   0.08084   1.000
    O442    O    0.38260   0.75010   0.08084   1.000
    O443    O    0.36750   0.61740   0.08084   1.000
    O444    O    0.36750   0.75010   0.58084   1.000
    O445    O    0.24990   0.61740   0.58084   1.000
    O446    O    0.38260   0.63250   0.58084   1.000
    O447    O    0.75010   0.36750   0.91916   1.000
    O448    O    0.61740   0.24990   0.91916   1.000
    O449    O    0.63250   0.38260   0.91916   1.000
    O450    O    0.29917   0.58323   0.75249   1.000
    O451    O    0.41677   0.71593   0.75249   1.000
    O452    O    0.28407   0.70083   0.75249   1.000
    O453    O    0.91657   0.96583   0.41417   1.000
    O454    O    0.04927   0.08343   0.41417   1.000
    O455    O    0.03417   0.95073   0.41417   1.000
    O456    O    0.03417   0.08343   0.91417   1.000
    O457    O    0.91657   0.95073   0.91417   1.000
    O458    O    0.04927   0.96583   0.91417   1.000
    O459    O    0.41677   0.70083   0.25249   1.000
    O460    O    0.28407   0.58323   0.25249   1.000
    O461    O    0.29917   0.71593   0.25249   1.000
    O462    O    0.96583   0.91657   0.08583   1.000
    O463    O    0.08343   0.04927   0.08583   1.000
    O464    O    0.95073   0.03417   0.08583   1.000
    O465    O    0.58323   0.29917   0.74751   1.000
    O466    O    0.71593   0.41677   0.74751   1.000
    O467    O    0.70083   0.28407   0.74751   1.000
    O468    O    0.70083   0.41677   0.24751   1.000
    O469    O    0.58323   0.28407   0.24751   1.000
    O470    O    0.71593   0.29917   0.24751   1.000
    O471    O    0.08343   0.03417   0.58583   1.000
    O472    O    0.95073   0.91657   0.58583   1.000
    O473    O    0.96583   0.04927   0.58583   1.000
    H474    H    0.74070   0.02140   0.51810   1.000
    H475    H    0.97860   0.71930   0.51810   1.000
    N476    N    0.28630   0.27500   0.97764   1.000
    N477    N    0.98870   0.71370   0.97764   1.000
    N478    N    0.72500   0.01130   0.97764   1.000
    N479    N    0.72500   0.71370   0.47764   1.000
    N480    N    0.28630   0.01130   0.47764   1.000
    N481    N    0.98870   0.27500   0.47764   1.000
    N482    N    0.71370   0.72500   0.02236   1.000
    N483    N    0.01130   0.28630   0.02236   1.000
    N484    N    0.27500   0.98870   0.02236   1.000
    N485    N    0.94167   0.61963   0.85569   1.000
    N486    N    0.38037   0.32203   0.85569   1.000
    N487    N    0.67797   0.05833   0.85569   1.000
    N488    N    0.95297   0.60833   0.31097   1.000
    N489    N    0.65537   0.04703   0.31097   1.000
    N490    N    0.39167   0.34463   0.31097   1.000
    N491    N    0.39167   0.04703   0.81097   1.000
    N492    N    0.95297   0.34463   0.81097   1.000
    N493    N    0.65537   0.60833   0.81097   1.000
    N494    N    0.38037   0.05833   0.35569   1.000
    N495    N    0.67797   0.61963   0.35569   1.000
    N496    N    0.94167   0.32203   0.35569   1.000
    N497    N    0.60833   0.95297   0.18903   1.000
    N498    N    0.04703   0.65537   0.18903   1.000
    N499    N    0.34463   0.39167   0.18903   1.000
    N500    N    0.61963   0.94167   0.64431   1.000
    N501    N    0.32203   0.38037   0.64431   1.000
    N502    N    0.05833   0.67797   0.64431   1.000
    N503    N    0.05833   0.38037   0.14431   1.000
    N504    N    0.61963   0.67797   0.14431   1.000
    N505    N    0.32203   0.94167   0.14431   1.000
    N506    N    0.04703   0.39167   0.68903   1.000
    N507    N    0.34463   0.95297   0.68903   1.000
    N508    N    0.60833   0.65537   0.68903   1.000
    N509    N    0.60800   0.92940   0.52280   1.000
    N510    N    0.07060   0.67860   0.52280   1.000
    H511    H    0.25930   0.28070   0.98190   1.000
    H512    H    0.02140   0.74070   0.98190   1.000
    H513    H    0.71930   0.97860   0.98190   1.000
    H514    H    0.71930   0.74070   0.48190   1.000
    H515    H    0.25930   0.97860   0.48190   1.000
    H516    H    0.02140   0.28070   0.48190   1.000
    H517    H    0.74070   0.71930   0.01810   1.000
    H518    H    0.97860   0.25930   0.01810   1.000
    H519    H    0.28070   0.02140   0.01810   1.000
    H520    H    0.94737   0.59263   0.85143   1.000
    H521    H    0.40737   0.35473   0.85143   1.000
    H522    H    0.64527   0.05263   0.85143   1.000
    H523    H    0.92597   0.61403   0.31523   1.000
    H524    H    0.68807   0.07403   0.31523   1.000
    H525    H    0.38597   0.31193   0.31523   1.000
    H526    H    0.38597   0.07403   0.81523   1.000
    H527    H    0.92597   0.31193   0.81523   1.000
    H528    H    0.68807   0.61403   0.81523   1.000
    H529    H    0.40737   0.05263   0.35143   1.000
    H530    H    0.64527   0.59263   0.35143   1.000
    H531    H    0.94737   0.35473   0.35143   1.000
    H532    H    0.61403   0.92597   0.18477   1.000
    H533    H    0.07403   0.68807   0.18477   1.000
    H534    H    0.31193   0.38597   0.18477   1.000
    H535    H    0.59263   0.94737   0.64857   1.000
    H536    H    0.35473   0.40737   0.64857   1.000
    H537    H    0.05263   0.64527   0.64857   1.000
    H538    H    0.05263   0.40737   0.14857   1.000
    H539    H    0.59263   0.64527   0.14857   1.000
    H540    H    0.35473   0.94737   0.14857   1.000
    H541    H    0.07403   0.38597   0.68477   1.000
    H542    H    0.31193   0.92597   0.68477   1.000
    H543    H    0.61403   0.68807   0.68477   1.000
    H544    H    0.57340   0.92070   0.52670   1.000
    H545    H    0.07930   0.65270   0.52670   1.000
    N546    N    0.39200   0.32140   0.97720   1.000
    N547    N    0.92940   0.60800   0.97720   1.000
    N548    N    0.67860   0.07060   0.97720   1.000
    N549    N    0.67860   0.60800   0.47720   1.000
    N550    N    0.39200   0.07060   0.47720   1.000
    N551    N    0.92940   0.32140   0.47720   1.000
    N552    N    0.60800   0.67860   0.02280   1.000
    N553    N    0.07060   0.39200   0.02280   1.000
    N554    N    0.32140   0.92940   0.02280   1.000
    N555    N    0.98807   0.72533   0.85613   1.000
    N556    N    0.27467   0.26273   0.85613   1.000
    N557    N    0.73727   0.01193   0.85613   1.000
    N558    N    0.05867   0.65473   0.31053   1.000
    N559    N    0.59607   0.94133   0.31053   1.000
    N560    N    0.34527   0.40393   0.31053   1.000
    N561    N    0.34527   0.94133   0.81053   1.000
    N562    N    0.05867   0.40393   0.81053   1.000
    N563    N    0.59607   0.65473   0.81053   1.000
    N564    N    0.27467   0.01193   0.35613   1.000
    N565    N    0.73727   0.72533   0.35613   1.000
    N566    N    0.98807   0.26273   0.35613   1.000
    N567    N    0.65473   0.05867   0.18947   1.000
    N568    N    0.94133   0.59607   0.18947   1.000
    N569    N    0.40393   0.34527   0.18947   1.000
    N570    N    0.72533   0.98807   0.64387   1.000
    N571    N    0.26273   0.27467   0.64387   1.000
    N572    N    0.01193   0.73727   0.64387   1.000
    N573    N    0.01193   0.27467   0.14387   1.000
    N574    N    0.72533   0.73727   0.14387   1.000
    N575    N    0.26273   0.98807   0.14387   1.000
    N576    N    0.94133   0.34527   0.68947   1.000
    N577    N    0.40393   0.05867   0.68947   1.000
    N578    N    0.65473   0.59607   0.68947   1.000
    C579    C    0.86740   0.95720   0.54405   1.000
    C580    C    0.04280   0.91020   0.54405   1.000
    H581    H    0.42660   0.34730   0.97330   1.000
    H582    H    0.92070   0.57340   0.97330   1.000
    H583    H    0.65270   0.07930   0.97330   1.000
    H584    H    0.65270   0.57340   0.47330   1.000
    H585    H    0.42660   0.07930   0.47330   1.000
    H586    H    0.92070   0.34730   0.47330   1.000
    H587    H    0.57340   0.65270   0.02670   1.000
    H588    H    0.07930   0.42660   0.02670   1.000
    H589    H    0.34730   0.92070   0.02670   1.000
    H590    H    0.01397   0.75993   0.86003   1.000
    H591    H    0.24007   0.25403   0.86003   1.000
    H592    H    0.74597   0.98603   0.86003   1.000
    H593    H    0.09327   0.68063   0.30663   1.000
    H594    H    0.58737   0.90673   0.30663   1.000
    H595    H    0.31937   0.41263   0.30663   1.000
    H596    H    0.31937   0.90673   0.80663   1.000
    H597    H    0.09327   0.41263   0.80663   1.000
    H598    H    0.58737   0.68063   0.80663   1.000
    H599    H    0.24007   0.98603   0.36003   1.000
    H600    H    0.74597   0.75993   0.36003   1.000
    H601    H    0.01397   0.25403   0.36003   1.000
    H602    H    0.68063   0.09327   0.19337   1.000
    H603    H    0.90673   0.58737   0.19337   1.000
    H604    H    0.41263   0.31937   0.19337   1.000
    H605    H    0.75993   0.01397   0.63997   1.000
    H606    H    0.25403   0.24007   0.63997   1.000
    H607    H    0.98603   0.74597   0.63997   1.000
    H608    H    0.98603   0.24007   0.13997   1.000
    H609    H    0.75993   0.74597   0.13997   1.000
    H610    H    0.25403   0.01397   0.13997   1.000
    H611    H    0.90673   0.31937   0.69337   1.000
    H612    H    0.41263   0.09327   0.69337   1.000
    H613    H    0.68063   0.58737   0.69337   1.000
    C614    C    0.81010   0.93140   0.53659   1.000
    C615    C    0.06860   0.87870   0.53659   1.000
    C616    C    0.13260   0.08980   0.95595   1.000
    C617    C    0.95720   0.86740   0.95595   1.000
    C618    C    0.91020   0.04280   0.95595   1.000
    C619    C    0.91020   0.86740   0.45595   1.000
    C620    C    0.13260   0.04280   0.45595   1.000
    C621    C    0.95720   0.08980   0.45595   1.000
    C622    C    0.86740   0.91020   0.04405   1.000
    C623    C    0.04280   0.13260   0.04405   1.000
    C624    C    0.08980   0.95720   0.04405   1.000
    C625    C    0.75647   0.46593   0.87738   1.000
    C626    C    0.53407   0.29053   0.87738   1.000
    C627    C    0.70947   0.24353   0.87738   1.000
    C628    C    0.79927   0.42313   0.28928   1.000
    C629    C    0.62387   0.20073   0.28928   1.000
    C630    C    0.57687   0.37613   0.28928   1.000
    C631    C    0.57687   0.20073   0.78928   1.000
    C632    C    0.79927   0.37613   0.78928   1.000
    C633    C    0.62387   0.42313   0.78928   1.000
    C634    C    0.53407   0.24353   0.37738   1.000
    C635    C    0.70947   0.46593   0.37738   1.000
    C636    C    0.75647   0.29053   0.37738   1.000
    C637    C    0.42313   0.79927   0.21072   1.000
    C638    C    0.20073   0.62387   0.21072   1.000
    C639    C    0.37613   0.57687   0.21072   1.000
    C640    C    0.46593   0.75647   0.62262   1.000
    C641    C    0.29053   0.53407   0.62262   1.000
    C642    C    0.24353   0.70947   0.62262   1.000
    C643    C    0.24353   0.53407   0.12262   1.000
    C644    C    0.46593   0.70947   0.12262   1.000
    C645    C    0.29053   0.75647   0.12262   1.000
    C646    C    0.20073   0.57687   0.71072   1.000
    C647    C    0.37613   0.79927   0.71072   1.000
    C648    C    0.42313   0.62387   0.71072   1.000
    C649    C    0.81840   0.79110   0.46720   1.000
    C650    C    0.20890   0.02730   0.46720   1.000
    C651    C    0.97270   0.18160   0.46720   1.000
    C652    C    0.18990   0.12130   0.96341   1.000
    C653    C    0.93140   0.81010   0.96341   1.000
    C654    C    0.87870   0.06860   0.96341   1.000
    C655    C    0.87870   0.81010   0.46341   1.000
    C656    C    0.18990   0.06860   0.46341   1.000
    C657    C    0.93140   0.12130   0.46341   1.000
    C658    C    0.81010   0.87870   0.03659   1.000
    C659    C    0.06860   0.18990   0.03659   1.000
    C660    C    0.12130   0.93140   0.03659   1.000
    C661    C    0.78797   0.52323   0.86992   1.000
    C662    C    0.47677   0.26473   0.86992   1.000
    C663    C    0.73527   0.21203   0.86992   1.000
    C664    C    0.85657   0.45463   0.29674   1.000
    C665    C    0.59807   0.14343   0.29674   1.000
    C666    C    0.54537   0.40193   0.29674   1.000
    C667    C    0.54537   0.14343   0.79674   1.000
    C668    C    0.85657   0.40193   0.79674   1.000
    C669    C    0.59807   0.45463   0.79674   1.000
    C670    C    0.47677   0.21203   0.36992   1.000
    C671    C    0.73527   0.52323   0.36992   1.000
    C672    C    0.78797   0.26473   0.36992   1.000
    C673    C    0.45463   0.85657   0.20326   1.000
    C674    C    0.14343   0.59807   0.20326   1.000
    C675    C    0.40193   0.54537   0.20326   1.000
    C676    C    0.52323   0.78797   0.63008   1.000
    C677    C    0.26473   0.47677   0.63008   1.000
    C678    C    0.21203   0.73527   0.63008   1.000
    C679    C    0.21203   0.47677   0.13008   1.000
    C680    C    0.52323   0.73527   0.13008   1.000
    C681    C    0.26473   0.78797   0.13008   1.000
    C682    C    0.14343   0.54537   0.70326   1.000
    H683    H    0.84747   0.87913   0.27453   1.000
    H684    H    0.03167   0.15253   0.27453   1.000
    H685    H    0.12087   0.96833   0.27453   1.000
    H686    H    0.78753   0.48587   0.10787   1.000
    H687    H    0.51413   0.30167   0.10787   1.000
    H688    H    0.69833   0.21247   0.10787   1.000
    H689    H    0.15253   0.12087   0.72547   1.000
    H690    H    0.96833   0.84747   0.72547   1.000
    H691    H    0.87913   0.03167   0.72547   1.000
    H692    H    0.87913   0.84747   0.22547   1.000
    H693    H    0.15253   0.03167   0.22547   1.000
    H694    H    0.96833   0.12087   0.22547   1.000
    H695    H    0.51413   0.21247   0.60787   1.000
    H696    H    0.69833   0.48587   0.60787   1.000
    H697    H    0.78753   0.30167   0.60787   1.000
    C698    C    0.02970   0.52270   0.44147   1.000
    C699    C    0.47730   0.50700   0.44147   1.000
    C700    C    0.08430   0.57520   0.43760   1.000
    C701    C    0.42480   0.50910   0.43760   1.000
    C702    C    0.79110   0.81840   0.03280   1.000
    C703    C    0.02730   0.20890   0.03280   1.000
    C704    C    0.18160   0.97270   0.03280   1.000
    C705    C    0.84827   0.54223   0.86613   1.000
    C706    C    0.45777   0.30603   0.86613   1.000
    C707    C    0.69397   0.15173   0.86613   1.000
    C708    C    0.87557   0.51493   0.30053   1.000
    C709    C    0.63937   0.12443   0.30053   1.000
    C710    C    0.48507   0.36063   0.30053   1.000
    C711    C    0.48507   0.12443   0.80053   1.000
    C712    C    0.87557   0.36063   0.80053   1.000
    C713    C    0.63937   0.51493   0.80053   1.000
    C714    C    0.45777   0.15173   0.36613   1.000
    C715    C    0.69397   0.54223   0.36613   1.000
    C716    C    0.84827   0.30603   0.36613   1.000
    C717    C    0.51493   0.87557   0.19947   1.000
    C718    C    0.12443   0.63937   0.19947   1.000
    C719    C    0.36063   0.48507   0.19947   1.000
    C720    C    0.54223   0.84827   0.63387   1.000
    C721    C    0.30603   0.45777   0.63387   1.000
    C722    C    0.15173   0.69397   0.63387   1.000
    C723    C    0.15173   0.45777   0.13387   1.000
    C724    C    0.54223   0.69397   0.13387   1.000
    C725    C    0.30603   0.84827   0.13387   1.000
    C726    C    0.12443   0.48507   0.69947   1.000
    C727    C    0.36063   0.87557   0.69947   1.000
    C728    C    0.51493   0.63937   0.69947   1.000
    C729    C    0.73500   0.94640   0.52598   1.000
    C730    C    0.05360   0.78860   0.52598   1.000
    H731    H    0.18570   0.20220   0.96540   1.000
    H732    H    0.01650   0.81430   0.96540   1.000
    H733    H    0.79780   0.98350   0.96540   1.000
    H734    H    0.79780   0.81430   0.46540   1.000
    H735    H    0.18570   0.98350   0.46540   1.000
    H736    H    0.01650   0.20220   0.46540   1.000
    H737    H    0.81430   0.79780   0.03460   1.000
    H738    H    0.98350   0.18570   0.03460   1.000
    H739    H    0.20220   0.01650   0.03460   1.000
    H740    H    0.86887   0.51903   0.86793   1.000
    H741    H    0.48097   0.34983   0.86793   1.000
    H742    H    0.65017   0.13113   0.86793   1.000
    H743    H    0.85237   0.53553   0.29873   1.000
    H744    H    0.68317   0.14763   0.29873   1.000
    H745    H    0.46447   0.31683   0.29873   1.000
    H746    H    0.46447   0.14763   0.79873   1.000
    H747    H    0.85237   0.31683   0.79873   1.000
    H748    H    0.68317   0.53553   0.79873   1.000
    H749    H    0.48097   0.13113   0.36793   1.000
    H750    H    0.65017   0.51903   0.36793   1.000
    H751    H    0.86887   0.34983   0.36793   1.000
    H752    H    0.53553   0.85237   0.20127   1.000
    H753    H    0.14763   0.68317   0.20127   1.000
    H754    H    0.31683   0.46447   0.20127   1.000
    H755    H    0.51903   0.86887   0.63207   1.000
    H756    H    0.34983   0.48097   0.63207   1.000
    H757    H    0.13113   0.65017   0.63207   1.000
    H758    H    0.13113   0.48097   0.13207   1.000
    H759    H    0.51903   0.65017   0.13207   1.000
    H760    H    0.34983   0.86887   0.13207   1.000
    H761    H    0.14763   0.46447   0.70127   1.000
    H762    H    0.31683   0.85237   0.70127   1.000
    H763    H    0.53553   0.68317   0.70127   1.000
    C764    C    0.69760   0.88040   0.52376   1.000
    C765    C    0.11960   0.81720   0.52376   1.000
    C766    C    0.26500   0.21140   0.97402   1.000
    C767    C    0.94640   0.73500   0.97402   1.000
    C768    C    0.78860   0.05360   0.97402   1.000
    C769    C    0.78860   0.73500   0.47402   1.000
    C770    C    0.26500   0.05360   0.47402   1.000
    C771    C    0.94640   0.21140   0.47402   1.000
    C772    C    0.73500   0.78860   0.02598   1.000
    C773    C    0.05360   0.26500   0.02598   1.000
    C774    C    0.21140   0.94640   0.02598   1.000
    C775    C    0.87807   0.59833   0.85931   1.000
    C776    C    0.40167   0.27973   0.85931   1.000
    C777    C    0.72027   0.12193   0.85931   1.000
    C778    C    0.93167   0.54473   0.30735   1.000
    C779    C    0.61307   0.06833   0.30735   1.000
    C780    C    0.45527   0.38693   0.30735   1.000
    C781    C    0.45527   0.06833   0.80735   1.000
    C782    C    0.93167   0.38693   0.80735   1.000
    C783    C    0.61307   0.54473   0.80735   1.000
    C784    C    0.40167   0.12193   0.35931   1.000
    C785    C    0.72027   0.59833   0.35931   1.000
    C786    C    0.87807   0.27973   0.35931   1.000
    C787    C    0.54473   0.93167   0.19265   1.000
    C788    C    0.06833   0.61307   0.19265   1.000
    C789    C    0.38693   0.45527   0.19265   1.000
    C790    C    0.59833   0.87807   0.64069   1.000
    C791    C    0.27973   0.40167   0.64069   1.000
    C792    C    0.12193   0.72027   0.64069   1.000
    C793    C    0.12193   0.40167   0.14069   1.000
    C794    C    0.59833   0.72027   0.14069   1.000
    C795    C    0.27973   0.87807   0.14069   1.000
    C796    C    0.06833   0.45527   0.69265   1.000
    C797    C    0.38693   0.93167   0.69265   1.000
    C798    C    0.54473   0.61307   0.69265   1.000
    C799    C    0.71870   0.84450   0.52800   1.000
    C800    C    0.15550   0.87420   0.52800   1.000
    C801    C    0.30240   0.18280   0.97624   1.000
    C802    C    0.88040   0.69760   0.97624   1.000
    C803    C    0.81720   0.11960   0.97624   1.000
    C804    C    0.81720   0.69760   0.47624   1.000
    C805    C    0.30240   0.11960   0.47624   1.000
    C806    C    0.88040   0.18280   0.47624   1.000
    C807    C    0.69760   0.81720   0.02376   1.000
    C808    C    0.11960   0.30240   0.02376   1.000
    C809    C    0.18280   0.88040   0.02376   1.000
    C810    C    0.84947   0.63573   0.85709   1.000
    C811    C    0.36427   0.21373   0.85709   1.000
    C812    C    0.78627   0.15053   0.85709   1.000
    C813    C    0.96907   0.51613   0.30957   1.000
    C814    C    0.54707   0.03093   0.30957   1.000
    C815    C    0.48387   0.45293   0.30957   1.000
    C816    C    0.48387   0.03093   0.80957   1.000
    C817    C    0.96907   0.45293   0.80957   1.000
    C818    C    0.54707   0.51613   0.80957   1.000
    C819    C    0.36427   0.15053   0.35709   1.000
    C820    C    0.78627   0.63573   0.35709   1.000
    C821    C    0.84947   0.21373   0.35709   1.000
    C822    C    0.51613   0.96907   0.19043   1.000
    C823    C    0.03093   0.54707   0.19043   1.000
    C824    C    0.45293   0.48387   0.19043   1.000
    C825    C    0.63573   0.84947   0.64291   1.000
    C826    C    0.21373   0.36427   0.64291   1.000
    C827    C    0.15053   0.78627   0.64291   1.000
    C828    C    0.15053   0.36427   0.14291   1.000
    C829    C    0.63573   0.78627   0.14291   1.000
    C830    C    0.21373   0.84947   0.14291   1.000
    C831    C    0.03093   0.48387   0.69043   1.000
    C832    C    0.45293   0.96907   0.69043   1.000
    C833    C    0.51613   0.54707   0.69043   1.000
    H834    H    0.69340   0.80060   0.52660   1.000
    H835    H    0.19940   0.89280   0.52660   1.000
    C836    C    0.28130   0.12580   0.97200   1.000
    C837    C    0.84450   0.71870   0.97200   1.000
    C838    C    0.87420   0.15550   0.97200   1.000
    C839    C    0.87420   0.71870   0.47200   1.000
    C840    C    0.28130   0.15550   0.47200   1.000
    C841    C    0.84450   0.12580   0.47200   1.000
    C842    C    0.71870   0.87420   0.02800   1.000
    C843    C    0.15550   0.28130   0.02800   1.000
    C844    C    0.12580   0.84450   0.02800   1.000
    C845    C    0.79247   0.61463   0.86133   1.000
    C846    C    0.38537   0.17783   0.86133   1.000
    C847    C    0.82217   0.20753   0.86133   1.000
    C848    C    0.94797   0.45913   0.30533   1.000
    C849    C    0.51117   0.05203   0.30533   1.000
    C850    C    0.54087   0.48883   0.30533   1.000
    C851    C    0.54087   0.05203   0.80533   1.000
    C852    C    0.94797   0.48883   0.80533   1.000
    C853    C    0.51117   0.45913   0.80533   1.000
    C854    C    0.38537   0.20753   0.36133   1.000
    C855    C    0.82217   0.61463   0.36133   1.000
    C856    C    0.79247   0.17783   0.36133   1.000
    C857    C    0.45913   0.94797   0.19467   1.000
    C858    C    0.05203   0.51117   0.19467   1.000
    C859    C    0.48883   0.54087   0.19467   1.000
    C860    C    0.61463   0.79247   0.63867   1.000
    C861    C    0.17783   0.38537   0.63867   1.000
    C862    C    0.20753   0.82217   0.63867   1.000
    C863    C    0.20753   0.38537   0.13867   1.000
    C864    C    0.61463   0.82217   0.13867   1.000
    C865    C    0.17783   0.79247   0.13867   1.000
    C866    C    0.05203   0.54087   0.69467   1.000
    C867    C    0.48883   0.94797   0.69467   1.000
    C868    C    0.45913   0.51117   0.69467   1.000
    C869    C    0.77540   0.86400   0.53460   1.000
    C870    C    0.13600   0.91140   0.53460   1.000
    H871    H    0.30660   0.10720   0.97340   1.000
    H872    H    0.80060   0.69340   0.97340   1.000
    H873    H    0.89280   0.19940   0.97340   1.000
    H874    H    0.89280   0.69340   0.47340   1.000
    H875    H    0.30660   0.19940   0.47340   1.000
    H876    H    0.80060   0.10720   0.47340   1.000
    H877    H    0.69340   0.89280   0.02660   1.000
    H878    H    0.19940   0.30660   0.02660   1.000
    H879    H    0.10720   0.80060   0.02660   1.000
    H880    H    0.77387   0.63993   0.85993   1.000
    H881    H    0.36007   0.13393   0.85993   1.000
    H882    H    0.86607   0.22613   0.85993   1.000
    H883    H    0.97327   0.44053   0.30673   1.000
    H884    H    0.46727   0.02673   0.30673   1.000
    H885    H    0.55947   0.53273   0.30673   1.000
    H886    H    0.55947   0.02673   0.80673   1.000
    H887    H    0.97327   0.53273   0.80673   1.000
    H888    H    0.46727   0.44053   0.80673   1.000
    H889    H    0.36007   0.22613   0.35993   1.000
    H890    H    0.86607   0.63993   0.35993   1.000
    H891    H    0.77387   0.13393   0.35993   1.000
    H892    H    0.44053   0.97327   0.19327   1.000
    H893    H    0.02673   0.46727   0.19327   1.000
    H894    H    0.53273   0.55947   0.19327   1.000
    H895    H    0.63993   0.77387   0.64007   1.000
    H896    H    0.13393   0.36007   0.64007   1.000
    H897    H    0.22613   0.86607   0.64007   1.000
    H898    H    0.22613   0.36007   0.14007   1.000
    H899    H    0.63993   0.86607   0.14007   1.000
    H900    H    0.13393   0.77387   0.14007   1.000
    H901    H    0.02673   0.55947   0.69327   1.000
    H902    H    0.53273   0.97327   0.69327   1.000
    H903    H    0.44053   0.46727   0.69327   1.000
    H904    H    0.78880   0.83600   0.53740   1.000
    H905    H    0.16400   0.95280   0.53740   1.000
    C906    C    0.22460   0.08860   0.96540   1.000
    C907    C    0.86400   0.77540   0.96540   1.000
    C908    C    0.91140   0.13600   0.96540   1.000
    C909    C    0.91140   0.77540   0.46540   1.000
    C910    C    0.22460   0.13600   0.46540   1.000
    C911    C    0.86400   0.08860   0.46540   1.000
    C912    C    0.77540   0.91140   0.03460   1.000
    C913    C    0.13600   0.22460   0.03460   1.000
    C914    C    0.08860   0.86400   0.03460   1.000
    C915    C    0.75527   0.55793   0.86793   1.000
    C916    C    0.44207   0.19733   0.86793   1.000
    C917    C    0.80267   0.24473   0.86793   1.000
    C918    C    0.89127   0.42193   0.29873   1.000
    C919    C    0.53067   0.10873   0.29873   1.000
    C920    C    0.57807   0.46933   0.29873   1.000
    C921    C    0.57807   0.10873   0.79873   1.000
    C922    C    0.89127   0.46933   0.79873   1.000
    C923    C    0.77743   0.19787   0.72656   1.000
    C924    C    0.77743   0.57957   0.22656   1.000
    C925    C    0.42043   0.19787   0.22656   1.000
    C926    C    0.80213   0.22257   0.22656   1.000
    C927    C    0.24623   0.11077   0.60678   1.000
    C928    C    0.86453   0.75377   0.60678   1.000
    C929    C    0.88923   0.13547   0.60678   1.000
    N930    N    0.09070   0.60590   0.42631   1.000
    N931    N    0.39410   0.48480   0.42631   1.000
    C932    C    0.80350   0.41450   0.41291   1.000
    C933    C    0.58550   0.38900   0.41291   1.000
    C934    C    0.19650   0.61100   0.08709   1.000
    C935    C    0.41450   0.80350   0.08709   1.000
    C936    C    0.38900   0.58550   0.08709   1.000
    C937    C    0.38900   0.80350   0.58709   1.000
    C938    C    0.19650   0.58550   0.58709   1.000
    C939    C    0.41450   0.61100   0.58709   1.000
    C940    C    0.80350   0.38900   0.91291   1.000
    C941    C    0.58550   0.19650   0.91291   1.000
    C942    C    0.61100   0.41450   0.91291   1.000
    C943    C    0.27767   0.52983   0.74624   1.000
    C944    C    0.47017   0.74783   0.74624   1.000
    C945    C    0.25217   0.72233   0.74624   1.000
    C946    C    0.86317   0.94433   0.42042   1.000
    C947    C    0.08117   0.13683   0.42042   1.000
    C948    C    0.05567   0.91883   0.42042   1.000
    C949    C    0.46933   0.89127   0.70127   1.000
    C950    C    0.42193   0.53067   0.70127   1.000
    C951    C    0.65280   0.98470   0.52478   1.000
    C952    C    0.01530   0.66810   0.52478   1.000
    H953    H    0.21120   0.04720   0.96260   1.000
    H954    H    0.83600   0.78880   0.96260   1.000
    H955    H    0.95280   0.16400   0.96260   1.000
    H956    H    0.95280   0.78880   0.46260   1.000
    H957    H    0.21120   0.16400   0.46260   1.000
    H958    H    0.83600   0.04720   0.46260   1.000
    H959    H    0.78880   0.95280   0.03740   1.000
    H960    H    0.16400   0.21120   0.03740   1.000
    H961    H    0.04720   0.83600   0.03740   1.000
    H962    H    0.71387   0.54453   0.87073   1.000
    H963    H    0.45547   0.16933   0.87073   1.000
    H964    H    0.83067   0.28613   0.87073   1.000
    H965    H    0.87787   0.38053   0.29593   1.000
    H966    H    0.50267   0.12213   0.29593   1.000
    H967    H    0.61947   0.49733   0.29593   1.000
    H968    H    0.61947   0.12213   0.79593   1.000
    H969    H    0.87787   0.49733   0.79593   1.000
    H970    H    0.50267   0.38053   0.79593   1.000
    H971    H    0.45547   0.28613   0.37073   1.000
    H972    H    0.83067   0.54453   0.37073   1.000
    H973    H    0.71387   0.16933   0.37073   1.000
    H974    H    0.38053   0.87787   0.20407   1.000
    H975    H    0.12213   0.50267   0.20407   1.000
    H976    H    0.49733   0.61947   0.20407   1.000
    H977    H    0.54453   0.71387   0.62927   1.000
    H978    H    0.16933   0.45547   0.62927   1.000
    H979    H    0.28613   0.83067   0.62927   1.000
    H980    H    0.28613   0.45547   0.12927   1.000
    H981    H    0.54453   0.83067   0.12927   1.000
    H982    H    0.16933   0.71387   0.12927   1.000
    H983    H    0.12213   0.61947   0.70407   1.000
    H984    H    0.49733   0.87787   0.70407   1.000
    H985    H    0.38053   0.50267   0.70407   1.000
    C986    C    0.64270   0.85100   0.51654   1.000
    C987    C    0.14900   0.79170   0.51654   1.000
    C988    C    0.34720   0.33190   0.97522   1.000
    C989    C    0.98470   0.65280   0.97522   1.000
    C990    C    0.66810   0.01530   0.97522   1.000
    C991    C    0.66810   0.65280   0.47522   1.000
    C992    C    0.34720   0.01530   0.47522   1.000
    C993    C    0.98470   0.33190   0.47522   1.000
    C994    C    0.65280   0.66810   0.02478   1.000
    C995    C    0.01530   0.34720   0.02478   1.000
    C996    C    0.33190   0.98470   0.02478   1.000
    C997    C    0.99857   0.68053   0.85811   1.000
    C998    C    0.31947   0.31803   0.85811   1.000
    C999    C    0.68197   0.00143   0.85811   1.000
    C1000   C    0.01387   0.66523   0.30855   1.000
    C1001   C    0.65137   0.98613   0.30855   1.000
    C1002   C    0.33477   0.34863   0.30855   1.000
    C1003   C    0.33477   0.98613   0.80855   1.000
    C1004   C    0.01387   0.34863   0.80855   1.000
    C1005   C    0.65137   0.66523   0.80855   1.000
    C1006   C    0.31947   0.00143   0.35811   1.000
    C1007   C    0.68197   0.68053   0.35811   1.000
    C1008   C    0.99857   0.31803   0.35811   1.000
    C1009   C    0.66523   0.01387   0.19145   1.000
    C1010   C    0.98613   0.65137   0.19145   1.000
    C1011   C    0.34863   0.33477   0.19145   1.000
    C1012   C    0.68053   0.99857   0.64189   1.000
    C1013   C    0.31803   0.31947   0.64189   1.000
    C1014   C    0.00143   0.68197   0.64189   1.000
    C1015   C    0.00143   0.31947   0.14189   1.000
    C1016   C    0.68053   0.68197   0.14189   1.000
    C1017   C    0.31803   0.99857   0.14189   1.000
    C1018   C    0.98613   0.33477   0.69145   1.000
    C1019   C    0.34863   0.01387   0.69145   1.000
    C1020   C    0.66523   0.65137   0.69145   1.000
    C1021   C    0.60030   0.87620   0.51548   1.000
    C1022   C    0.12380   0.72410   0.51548   1.000
    C1023   C    0.35730   0.20830   0.98346   1.000
    C1024   C    0.85100   0.64270   0.98346   1.000
    C1025   C    0.79170   0.14900   0.98346   1.000
    C1026   C    0.79170   0.64270   0.48346   1.000
    C1027   C    0.35730   0.14900   0.48346   1.000
    C1028   C    0.85100   0.20830   0.48346   1.000
    C1029   C    0.64270   0.79170   0.01654   1.000
    C1030   C    0.14900   0.35730   0.01654   1.000
    C1031   C    0.20830   0.85100   0.01654   1.000
    C1032   C    0.87497   0.69063   0.84987   1.000
    C1033   C    0.30937   0.18433   0.84987   1.000
    C1034   C    0.81567   0.12503   0.84987   1.000
    C1035   C    0.02397   0.54163   0.31679   1.000
    C1036   C    0.51767   0.97603   0.31679   1.000
    C1037   C    0.45837   0.48233   0.31679   1.000
    C1038   C    0.45837   0.97603   0.81679   1.000
    C1039   C    0.02397   0.48233   0.81679   1.000
    C1040   C    0.51767   0.54163   0.81679   1.000
    C1041   C    0.30937   0.12503   0.34987   1.000
    C1042   C    0.81567   0.69063   0.34987   1.000
    C1043   C    0.87497   0.18433   0.34987   1.000
    C1044   C    0.54163   0.02397   0.18321   1.000
    C1045   C    0.97603   0.51767   0.18321   1.000
    C1046   C    0.48233   0.45837   0.18321   1.000
    C1047   C    0.69063   0.87497   0.65013   1.000
    C1048   C    0.18433   0.30937   0.65013   1.000
    C1049   C    0.12503   0.81567   0.65013   1.000
    C1050   C    0.12503   0.30937   0.15013   1.000
    C1051   C    0.69063   0.81567   0.15013   1.000
    C1052   C    0.18433   0.87497   0.15013   1.000
    C1053   C    0.97603   0.45837   0.68321   1.000
    C1054   C    0.48233   0.02397   0.68321   1.000
    C1055   C    0.54163   0.51767   0.68321   1.000
    C1056   C    0.54710   0.84830   0.50836   1.000
    C1057   C    0.15170   0.69880   0.50836   1.000
    C1058   C    0.39970   0.27590   0.98452   1.000
    C1059   C    0.87620   0.60030   0.98452   1.000
    C1060   C    0.72410   0.12380   0.98452   1.000
    C1061   C    0.72410   0.60030   0.48452   1.000
    C1062   C    0.39970   0.12380   0.48452   1.000
    C1063   C    0.87620   0.27590   0.48452   1.000
    C1064   C    0.60030   0.72410   0.01548   1.000
    C1065   C    0.12380   0.39970   0.01548   1.000
    C1066   C    0.27590   0.87620   0.01548   1.000
    C1067   C    0.94257   0.73303   0.84881   1.000
    C1068   C    0.26697   0.20953   0.84881   1.000
    C1069   C    0.79047   0.05743   0.84881   1.000
    C1070   C    0.06637   0.60923   0.31785   1.000
    C1071   C    0.54287   0.93363   0.31785   1.000
    C1072   C    0.39077   0.45713   0.31785   1.000
    C1073   C    0.39077   0.93363   0.81785   1.000
    C1074   C    0.06637   0.45713   0.81785   1.000
    C1075   C    0.54287   0.60923   0.81785   1.000
    C1076   C    0.26697   0.05743   0.34881   1.000
    C1077   C    0.79047   0.73303   0.34881   1.000
    C1078   C    0.94257   0.20953   0.34881   1.000
    C1079   C    0.60923   0.06637   0.18215   1.000
    C1080   C    0.93363   0.54287   0.18215   1.000
    C1081   C    0.45713   0.39077   0.18215   1.000
    C1082   C    0.73303   0.94257   0.65119   1.000
    C1083   C    0.20953   0.26697   0.65119   1.000
    C1084   C    0.05743   0.79047   0.65119   1.000
    C1085   C    0.05743   0.26697   0.15119   1.000
    C1086   C    0.73303   0.79047   0.15119   1.000
    C1087   C    0.20953   0.94257   0.15119   1.000
    C1088   C    0.93363   0.39077   0.68215   1.000
    C1089   C    0.45713   0.06637   0.68215   1.000
    C1090   C    0.60923   0.54287   0.68215   1.000
    H1091   H    0.51940   0.86480   0.50770   1.000
    H1092   H    0.13520   0.65460   0.50770   1.000
    C1093   C    0.45290   0.30120   0.99164   1.000
    C1094   C    0.84830   0.54710   0.99164   1.000
    C1095   C    0.69880   0.15170   0.99164   1.000
    C1096   C    0.69880   0.54710   0.49164   1.000
    C1097   C    0.45290   0.15170   0.49164   1.000
    C1098   C    0.84830   0.30120   0.49164   1.000
    C1099   C    0.54710   0.69880   0.00836   1.000
    C1100   C    0.15170   0.45290   0.00836   1.000
    C1101   C    0.30120   0.84830   0.00836   1.000
    C1102   C    0.96787   0.78623   0.84169   1.000
    C1103   C    0.21377   0.18163   0.84169   1.000
    C1104   C    0.81837   0.03213   0.84169   1.000
    C1105   C    0.11957   0.63453   0.32497   1.000
    C1106   C    0.51497   0.88043   0.32497   1.000
    C1107   C    0.36547   0.48503   0.32497   1.000
    C1108   C    0.36547   0.88043   0.82497   1.000
    C1109   C    0.11957   0.48503   0.82497   1.000
    C1110   C    0.51497   0.63453   0.82497   1.000
    C1111   C    0.21377   0.03213   0.34169   1.000
    C1112   C    0.81837   0.78623   0.34169   1.000
    C1113   C    0.96787   0.18163   0.34169   1.000
    C1114   C    0.63453   0.11957   0.17503   1.000
    C1115   C    0.88043   0.51497   0.17503   1.000
    C1116   C    0.48503   0.36547   0.17503   1.000
    C1117   C    0.78623   0.96787   0.65831   1.000
    C1118   C    0.18163   0.21377   0.65831   1.000
    C1119   C    0.03213   0.81837   0.65831   1.000
    C1120   C    0.03213   0.21377   0.15831   1.000
    C1121   C    0.78623   0.81837   0.15831   1.000
    C1122   C    0.18163   0.96787   0.15831   1.000
    C1123   C    0.88043   0.36547   0.67503   1.000
    C1124   C    0.48503   0.11957   0.67503   1.000
    C1125   C    0.63453   0.51497   0.67503   1.000
    C1126   C    0.53650   0.79280   0.50206   1.000
    C1127   C    0.20720   0.74370   0.50206   1.000
    H1128   H    0.48060   0.34540   0.99230   1.000
    H1129   H    0.86480   0.51940   0.99230   1.000
    H1130   H    0.65460   0.13520   0.99230   1.000
    H1131   H    0.65460   0.51940   0.49230   1.000
    H1132   H    0.48060   0.13520   0.49230   1.000
    H1133   H    0.86480   0.34540   0.49230   1.000
    H1134   H    0.51940   0.65460   0.00770   1.000
    H1135   H    0.13520   0.48060   0.00770   1.000
    H1136   H    0.34540   0.86480   0.00770   1.000
    H1137   H    0.01207   0.81393   0.84103   1.000
    H1138   H    0.18607   0.19813   0.84103   1.000
    H1139   H    0.80187   0.98793   0.84103   1.000
    H1140   H    0.14727   0.67873   0.32563   1.000
    H1141   H    0.53147   0.85273   0.32563   1.000
    H1142   H    0.32127   0.46853   0.32563   1.000
    H1143   H    0.32127   0.85273   0.82563   1.000
    H1144   H    0.14727   0.46853   0.82563   1.000
    H1145   H    0.53147   0.67873   0.82563   1.000
    H1146   H    0.18607   0.98793   0.34103   1.000
    H1147   H    0.80187   0.81393   0.34103   1.000
    H1148   H    0.01207   0.19813   0.34103   1.000
    H1149   H    0.67873   0.14727   0.17437   1.000
    H1150   H    0.85273   0.53147   0.17437   1.000
    H1151   H    0.46853   0.32127   0.17437   1.000
    H1152   H    0.81393   0.01207   0.65897   1.000
    H1153   H    0.19813   0.18607   0.65897   1.000
    H1154   H    0.98793   0.80187   0.65897   1.000
    H1155   H    0.98793   0.18607   0.15897   1.000
    H1156   H    0.81393   0.80187   0.15897   1.000
    H1157   H    0.19813   0.01207   0.15897   1.000
    H1158   H    0.85273   0.32127   0.67437   1.000
    H1159   H    0.46853   0.14727   0.67437   1.000
    H1160   H    0.67873   0.53147   0.67437   1.000
    C1161   C    0.58150   0.77270   0.50200   1.000
    C1162   C    0.22730   0.80880   0.50200   1.000
    C1163   C    0.46350   0.25630   0.99794   1.000
    C1164   C    0.79280   0.53650   0.99794   1.000
    C1165   C    0.74370   0.20720   0.99794   1.000
    C1166   C    0.74370   0.53650   0.49794   1.000
    C1167   C    0.46350   0.20720   0.49794   1.000
    C1168   C    0.79280   0.25630   0.49794   1.000
    C1169   C    0.53650   0.74370   0.00206   1.000
    C1170   C    0.20720   0.46350   0.00206   1.000
    C1171   C    0.25630   0.79280   0.00206   1.000
    C1172   C    0.92297   0.79683   0.83539   1.000
    C1173   C    0.20317   0.12613   0.83539   1.000
    C1174   C    0.87387   0.07703   0.83539   1.000
    C1175   C    0.13017   0.58963   0.33127   1.000
    C1176   C    0.45947   0.86983   0.33127   1.000
    C1177   C    0.41037   0.54053   0.33127   1.000
    C1178   C    0.41037   0.86983   0.83127   1.000
    C1179   C    0.13017   0.54053   0.83127   1.000
    C1180   C    0.45947   0.58963   0.83127   1.000
    C1181   C    0.20317   0.07703   0.33539   1.000
    C1182   C    0.87387   0.79683   0.33539   1.000
    C1183   C    0.92297   0.12613   0.33539   1.000
    C1184   C    0.58963   0.13017   0.16873   1.000
    C1185   C    0.86983   0.45947   0.16873   1.000
    C1186   C    0.54053   0.41037   0.16873   1.000
    C1187   C    0.79683   0.92297   0.66461   1.000
    C1188   C    0.12613   0.20317   0.66461   1.000
    C1189   C    0.07703   0.87387   0.66461   1.000
    C1190   C    0.07703   0.20317   0.16461   1.000
    C1191   C    0.79683   0.87387   0.16461   1.000
    C1192   C    0.12613   0.92297   0.16461   1.000
    C1193   C    0.86983   0.41037   0.66873   1.000
    C1194   C    0.54053   0.13017   0.66873   1.000
    C1195   C    0.58963   0.45947   0.66873   1.000
    H1196   H    0.57300   0.73640   0.49750   1.000
    H1197   H    0.26360   0.83660   0.49750   1.000
    C1198   C    0.41850   0.19120   0.99800   1.000
    C1199   C    0.77270   0.58150   0.99800   1.000
    C1200   C    0.80880   0.22730   0.99800   1.000
    C1201   C    0.80880   0.58150   0.49800   1.000
    C1202   C    0.41850   0.22730   0.49800   1.000
    C1203   C    0.77270   0.19120   0.49800   1.000
    C1204   C    0.58150   0.80880   0.00200   1.000
    C1205   C    0.22730   0.41850   0.00200   1.000
    C1206   C    0.19120   0.77270   0.00200   1.000
    C1207   C    0.85787   0.75183   0.83533   1.000
    C1208   C    0.24817   0.10603   0.83533   1.000
    C1209   C    0.89397   0.14213   0.83533   1.000
    C1210   C    0.08517   0.52453   0.33133   1.000
    C1211   C    0.43937   0.91483   0.33133   1.000
    C1212   C    0.47547   0.56063   0.33133   1.000
    C1213   C    0.47547   0.91483   0.83133   1.000
    C1214   C    0.08517   0.56063   0.83133   1.000
    C1215   C    0.43937   0.52453   0.83133   1.000
    C1216   C    0.24817   0.14213   0.33533   1.000
    C1217   C    0.89397   0.75183   0.33533   1.000
    C1218   C    0.85787   0.10603   0.33533   1.000
    C1219   C    0.52453   0.08517   0.16867   1.000
    C1220   C    0.91483   0.43937   0.16867   1.000
    C1221   C    0.56063   0.47547   0.16867   1.000
    C1222   C    0.75183   0.85787   0.66467   1.000
    C1223   C    0.10603   0.24817   0.66467   1.000
    C1224   C    0.14213   0.89397   0.66467   1.000
    C1225   C    0.14213   0.24817   0.16467   1.000
    C1226   C    0.75183   0.89397   0.16467   1.000
    C1227   C    0.10603   0.85787   0.16467   1.000
    C1228   C    0.91483   0.47547   0.66867   1.000
    C1229   C    0.56063   0.08517   0.66867   1.000
    C1230   C    0.52453   0.43937   0.66867   1.000
    C1231   C    0.63340   0.80160   0.50780   1.000
    C1232   C    0.19840   0.83180   0.50780   1.000
    H1233   H    0.42700   0.16340   0.00250   1.000
    H1234   H    0.73640   0.57300   0.00250   1.000
    H1235   H    0.83660   0.26360   0.00250   1.000
    H1236   H    0.83660   0.57300   0.50250   1.000
    H1237   H    0.42700   0.26360   0.50250   1.000
    H1238   H    0.73640   0.16340   0.50250   1.000
    H1239   H    0.57300   0.83660   0.99750   1.000
    H1240   H    0.26360   0.42700   0.99750   1.000
    H1241   H    0.16340   0.73640   0.99750   1.000
    H1242   H    0.83007   0.76033   0.83083   1.000
    H1243   H    0.23967   0.06973   0.83083   1.000
    H1244   H    0.93027   0.16993   0.83083   1.000
    H1245   H    0.09367   0.49673   0.33583   1.000
    H1246   H    0.40307   0.90633   0.33583   1.000
    H1247   H    0.50327   0.59693   0.33583   1.000
    H1248   H    0.50327   0.90633   0.83583   1.000
    H1249   H    0.09367   0.59693   0.83583   1.000
    H1250   H    0.40307   0.49673   0.83583   1.000
    H1251   H    0.23967   0.16993   0.33083   1.000
    H1252   H    0.93027   0.76033   0.33083   1.000
    H1253   H    0.83007   0.06973   0.33083   1.000
    H1254   H    0.49673   0.09367   0.16417   1.000
    H1255   H    0.90633   0.40307   0.16417   1.000
    H1256   H    0.59693   0.50327   0.16417   1.000
    H1257   H    0.76033   0.83007   0.66917   1.000
    H1258   H    0.06973   0.23967   0.66917   1.000
    H1259   H    0.16993   0.93027   0.66917   1.000
    H1260   H    0.16993   0.23967   0.16917   1.000
    H1261   H    0.76033   0.93027   0.16917   1.000
    H1262   H    0.06973   0.83007   0.16917   1.000
    H1263   H    0.90633   0.50327   0.66417   1.000
    H1264   H    0.59693   0.09367   0.66417   1.000
    H1265   H    0.49673   0.40307   0.66417   1.000
    H1266   H    0.66580   0.79160   0.50650   1.000
    H1267   H    0.20840   0.87420   0.50650   1.000
    C1268   C    0.36660   0.16820   0.99220   1.000
    C1269   C    0.80160   0.63340   0.99220   1.000
    C1270   C    0.83180   0.19840   0.99220   1.000
    C1271   C    0.83180   0.63340   0.49220   1.000
    C1272   C    0.36660   0.19840   0.49220   1.000
    C1273   C    0.80160   0.16820   0.49220   1.000
    C1274   C    0.63340   0.83180   0.00780   1.000
    C1275   C    0.19840   0.36660   0.00780   1.000
    C1276   C    0.16820   0.80160   0.00780   1.000
    C1277   C    0.83487   0.69993   0.84113   1.000
    C1278   C    0.30007   0.13493   0.84113   1.000
    C1279   C    0.86507   0.16513   0.84113   1.000
    C1280   C    0.03327   0.50153   0.32553   1.000
    C1281   C    0.46827   0.96673   0.32553   1.000
    C1282   C    0.49847   0.53173   0.32553   1.000
    C1283   C    0.49847   0.96673   0.82553   1.000
    C1284   C    0.03327   0.53173   0.82553   1.000
    C1285   C    0.46827   0.50153   0.82553   1.000
    C1286   C    0.30007   0.16513   0.34113   1.000
    C1287   C    0.86507   0.69993   0.34113   1.000
    C1288   C    0.83487   0.13493   0.34113   1.000
    C1289   C    0.50153   0.03327   0.17447   1.000
    C1290   C    0.96673   0.46827   0.17447   1.000
    C1291   C    0.53173   0.49847   0.17447   1.000
    C1292   C    0.69993   0.83487   0.65887   1.000
    C1293   C    0.13493   0.30007   0.65887   1.000
    C1294   C    0.16513   0.86507   0.65887   1.000
    C1295   C    0.16513   0.30007   0.15887   1.000
    C1296   C    0.69993   0.86507   0.15887   1.000
    C1297   C    0.13493   0.83487   0.15887   1.000
    C1298   C    0.96673   0.49847   0.67447   1.000
    C1299   C    0.53173   0.03327   0.67447   1.000
    C1300   C    0.50153   0.46827   0.67447   1.000
    C1301   C    0.47200   0.76130   0.49590   1.000
    C1302   C    0.23870   0.71070   0.49590   1.000
    H1303   H    0.33420   0.12580   0.99350   1.000
    H1304   H    0.79160   0.66580   0.99350   1.000
    H1305   H    0.87420   0.20840   0.99350   1.000
    H1306   H    0.87420   0.66580   0.49350   1.000
    H1307   H    0.33420   0.20840   0.49350   1.000
    H1308   H    0.79160   0.12580   0.49350   1.000
    H1309   H    0.66580   0.87420   0.00650   1.000
    H1310   H    0.20840   0.33420   0.00650   1.000
    H1311   H    0.12580   0.79160   0.00650   1.000
    H1312   H    0.79247   0.66753   0.83983   1.000
    H1313   H    0.33247   0.12493   0.83983   1.000
    H1314   H    0.87507   0.20753   0.83983   1.000
    H1315   H    0.00087   0.45913   0.32683   1.000
    H1316   H    0.45827   0.99913   0.32683   1.000
    H1317   H    0.54087   0.54173   0.32683   1.000
    H1318   H    0.54087   0.99913   0.82683   1.000
    H1319   H    0.00087   0.54173   0.82683   1.000
    H1320   H    0.45827   0.45913   0.82683   1.000
    H1321   H    0.33247   0.20753   0.33983   1.000
    H1322   H    0.87507   0.66753   0.33983   1.000
    H1323   H    0.79247   0.12493   0.33983   1.000
    H1324   H    0.45913   0.00087   0.17317   1.000
    H1325   H    0.99913   0.45827   0.17317   1.000
    H1326   H    0.54173   0.54087   0.17317   1.000
    H1327   H    0.66753   0.79247   0.66017   1.000
    H1328   H    0.12493   0.33247   0.66017   1.000
    H1329   H    0.20753   0.87507   0.66017   1.000
    H1330   H    0.20753   0.33247   0.16017   1.000
    H1331   H    0.66753   0.87507   0.16017   1.000
    H1332   H    0.12493   0.79247   0.16017   1.000
    H1333   H    0.99913   0.54087   0.67317   1.000
    H1334   H    0.54173   0.00087   0.67317   1.000
    H1335   H    0.45913   0.45827   0.67317   1.000
    C1336   C    0.20070   0.59880   0.46170   1.000
    C1337   C    0.40120   0.60190   0.46170   1.000
    C1338   C    0.52800   0.28930   0.00410   1.000
    C1339   C    0.76130   0.47200   0.00410   1.000
    C1340   C    0.71070   0.23870   0.00410   1.000
    C1341   C    0.71070   0.47200   0.50410   1.000
    C1342   C    0.52800   0.23870   0.50410   1.000
    C1343   C    0.76130   0.28930   0.50410   1.000
    C1344   C    0.47200   0.71070   0.99590   1.000
    C1345   C    0.23870   0.52800   0.99590   1.000
    C1346   C    0.28930   0.76130   0.99590   1.000
    C1347   C    0.95597   0.86133   0.82923   1.000
    C1348   C    0.13867   0.09463   0.82923   1.000
    C1349   C    0.90537   0.04403   0.82923   1.000
    C1350   C    0.19467   0.62263   0.33743   1.000
    C1351   C    0.42797   0.80533   0.33743   1.000
    C1352   C    0.37737   0.57203   0.33743   1.000
    C1353   C    0.37737   0.80533   0.83743   1.000
    C1354   C    0.19467   0.57203   0.83743   1.000
    C1355   C    0.42797   0.62263   0.83743   1.000
    C1356   C    0.13867   0.04403   0.32923   1.000
    C1357   C    0.90537   0.86133   0.32923   1.000
    C1358   C    0.95597   0.09463   0.32923   1.000
    C1359   C    0.62263   0.19467   0.16257   1.000
    C1360   C    0.80533   0.42797   0.16257   1.000
    C1361   C    0.57203   0.37737   0.16257   1.000
    C1362   C    0.86133   0.95597   0.67077   1.000
    C1363   C    0.09463   0.13867   0.67077   1.000
    C1364   C    0.04403   0.90537   0.67077   1.000
    C1365   C    0.04403   0.13867   0.17077   1.000
    C1366   C    0.86133   0.90537   0.17077   1.000
    C1367   C    0.09463   0.95597   0.17077   1.000
    C1368   C    0.80533   0.37737   0.66257   1.000
    C1369   C    0.57203   0.19467   0.66257   1.000
    C1370   C    0.62263   0.42797   0.66257   1.000
    C1371   C    0.13940   0.57090   0.45471   1.000
    C1372   C    0.42910   0.56850   0.45471   1.000
    C1373   C    0.79930   0.39810   0.03830   1.000
    C1374   C    0.59880   0.20070   0.03830   1.000
    C1375   C    0.60190   0.40120   0.03830   1.000
    C1376   C    0.60190   0.20070   0.53830   1.000
    C1377   C    0.79930   0.40120   0.53830   1.000
    C1378   C    0.59880   0.39810   0.53830   1.000
    C1379   C    0.20070   0.60190   0.96170   1.000
    C1380   C    0.40120   0.79930   0.96170   1.000
    C1381   C    0.39810   0.59880   0.96170   1.000
    C1382   C    0.06477   0.13263   0.79503   1.000
    C1383   C    0.86737   0.93213   0.79503   1.000
    C1384   C    0.06787   0.93523   0.79503   1.000
    C1385   C    0.46597   0.73143   0.37163   1.000
    C1386   C    0.26547   0.53403   0.37163   1.000
    C1387   C    0.26857   0.73453   0.37163   1.000
    C1388   C    0.26857   0.53403   0.87163   1.000
    C1389   C    0.46597   0.73453   0.87163   1.000
    C1390   C    0.26547   0.73143   0.87163   1.000
    C1391   C    0.86737   0.93523   0.29503   1.000
    C1392   C    0.06787   0.13263   0.29503   1.000
    C1393   C    0.06477   0.93213   0.29503   1.000
    C1394   C    0.73143   0.46597   0.12837   1.000
    C1395   C    0.53403   0.26547   0.12837   1.000
    C1396   C    0.73453   0.26857   0.12837   1.000
    C1397   C    0.13263   0.06477   0.70497   1.000
    C1398   C    0.93213   0.86737   0.70497   1.000
    C1399   C    0.93523   0.06787   0.70497   1.000
    C1400   C    0.93523   0.86737   0.20497   1.000
    C1401   C    0.13263   0.06787   0.20497   1.000
    C1402   C    0.93213   0.06477   0.20497   1.000
    C1403   C    0.53403   0.26857   0.62837   1.000
    C1404   C    0.73453   0.46597   0.62837   1.000
    C1405   C    0.73143   0.26547   0.62837   1.000
    C1406   C    0.14260   0.60040   0.44407   1.000
    C1407   C    0.39960   0.54220   0.44407   1.000
    C1408   C    0.86060   0.43150   0.04529   1.000
    C1409   C    0.57090   0.13940   0.04529   1.000
    C1410   C    0.56850   0.42910   0.04529   1.000
    C1411   C    0.56850   0.13940   0.54529   1.000
    C1412   C    0.86060   0.42910   0.54529   1.000
    C1413   C    0.57090   0.43150   0.54529   1.000
    C1414   C    0.13940   0.56850   0.95471   1.000
    C1415   C    0.42910   0.86060   0.95471   1.000
    C1416   C    0.43150   0.57090   0.95471   1.000
    C1417   C    0.09817   0.19393   0.78804   1.000
    C1418   C    0.80607   0.90423   0.78804   1.000
    C1419   C    0.09577   0.90183   0.78804   1.000
    C1420   C    0.52727   0.76483   0.37862   1.000
    C1421   C    0.23757   0.47273   0.37862   1.000
    C1422   C    0.23517   0.76243   0.37862   1.000
    C1423   C    0.23517   0.47273   0.87862   1.000
    C1424   C    0.52727   0.76243   0.87862   1.000
    C1425   C    0.23757   0.76483   0.87862   1.000
    C1426   C    0.80607   0.90183   0.28804   1.000
    C1427   C    0.09577   0.19393   0.28804   1.000
    C1428   C    0.09817   0.90423   0.28804   1.000
    C1429   C    0.76483   0.52727   0.12138   1.000
    C1430   C    0.47273   0.23757   0.12138   1.000
    C1431   C    0.76243   0.23517   0.12138   1.000
    C1432   C    0.19393   0.09817   0.71196   1.000
    C1433   C    0.90423   0.80607   0.71196   1.000
    C1434   C    0.90183   0.09577   0.71196   1.000
    C1435   C    0.90183   0.80607   0.21196   1.000
    C1436   C    0.19393   0.09577   0.21196   1.000
    C1437   C    0.90423   0.09817   0.21196   1.000
    C1438   C    0.47273   0.23517   0.62138   1.000
    C1439   C    0.76243   0.52727   0.62138   1.000
    C1440   C    0.76483   0.23757   0.62138   1.000
    H1441   H    0.18080   0.63500   0.44120   1.000
    H1442   H    0.36500   0.54580   0.44120   1.000
    C1443   C    0.85740   0.45780   0.05593   1.000
    C1444   C    0.60040   0.14260   0.05593   1.000
    C1445   C    0.54220   0.39960   0.05593   1.000
    C1446   C    0.54220   0.14260   0.55593   1.000
    C1447   C    0.85740   0.39960   0.55593   1.000
    C1448   C    0.60040   0.45780   0.55593   1.000
    C1449   C    0.14260   0.54220   0.94407   1.000
    C1450   C    0.39960   0.85740   0.94407   1.000
    C1451   C    0.45780   0.60040   0.94407   1.000
    C1452   C    0.12447   0.19073   0.77740   1.000
    C1453   C    0.80927   0.93373   0.77740   1.000
    C1454   C    0.06627   0.87553   0.77740   1.000
    C1455   C    0.52407   0.79113   0.38926   1.000
    C1456   C    0.26707   0.47593   0.38926   1.000
    C1457   C    0.20887   0.73293   0.38926   1.000
    C1458   C    0.20887   0.47593   0.88926   1.000
    C1459   C    0.52407   0.73293   0.88926   1.000
    C1460   C    0.26707   0.79113   0.88926   1.000
    C1461   C    0.80927   0.87553   0.27740   1.000
    C1462   C    0.06627   0.19073   0.27740   1.000
    C1463   C    0.12447   0.93373   0.27740   1.000
    C1464   C    0.79113   0.52407   0.11074   1.000
    C1465   C    0.47593   0.26707   0.11074   1.000
    C1466   C    0.73293   0.20887   0.11074   1.000
    C1467   C    0.19073   0.12447   0.72260   1.000
    C1468   C    0.93373   0.80927   0.72260   1.000
    C1469   C    0.87553   0.06627   0.72260   1.000
    C1470   C    0.87553   0.80927   0.22260   1.000
    C1471   C    0.19073   0.06627   0.22260   1.000
    C1472   C    0.93373   0.12447   0.22260   1.000
    C1473   C    0.47593   0.20887   0.61074   1.000
    C1474   C    0.73293   0.52407   0.61074   1.000
    C1475   C    0.79113   0.26707   0.61074   1.000
    C1476   C    0.91570   0.49090   0.06240   1.000
    C1477   C    0.57520   0.08430   0.06240   1.000
    C1478   C    0.50910   0.42480   0.06240   1.000
    H1479   H    0.81920   0.45420   0.05880   1.000
    H1480   H    0.63500   0.18080   0.05880   1.000
    H1481   H    0.54580   0.36500   0.05880   1.000
    H1482   H    0.54580   0.18080   0.55880   1.000
    H1483   H    0.81920   0.36500   0.55880   1.000
    H1484   H    0.63500   0.45420   0.55880   1.000
    H1485   H    0.18080   0.54580   0.94120   1.000
    H1486   H    0.36500   0.81920   0.94120   1.000
    H1487   H    0.45420   0.63500   0.94120   1.000
    H1488   H    0.12087   0.15253   0.77453   1.000
    H1489   H    0.84747   0.96833   0.77453   1.000
    H1490   H    0.03167   0.87913   0.77453   1.000
    H1491   H    0.48587   0.78753   0.39213   1.000
    H1492   H    0.30167   0.51413   0.39213   1.000
    H1493   H    0.21247   0.69833   0.39213   1.000
    H1494   H    0.21247   0.51413   0.89213   1.000
    H1495   H    0.48587   0.69833   0.89213   1.000
    H1496   H    0.30167   0.78753   0.89213   1.000
    C1497   C    0.50910   0.08430   0.56240   1.000
    C1498   C    0.91570   0.42480   0.56240   1.000
    C1499   C    0.57520   0.49090   0.56240   1.000
    C1500   C    0.08430   0.50910   0.93760   1.000
    C1501   C    0.42480   0.91570   0.93760   1.000
    C1502   C    0.49090   0.57520   0.93760   1.000
    C1503   C    0.15757   0.24903   0.77093   1.000
    C1504   C    0.75097   0.90853   0.77093   1.000
    C1505   C    0.09147   0.84243   0.77093   1.000
    C1506   C    0.58237   0.82423   0.39573   1.000
    C1507   C    0.24187   0.41763   0.39573   1.000
    C1508   C    0.17577   0.75813   0.39573   1.000
    C1509   C    0.17577   0.41763   0.89573   1.000
    C1510   C    0.58237   0.75813   0.89573   1.000
    C1511   C    0.24187   0.82423   0.89573   1.000
    C1512   C    0.75097   0.84243   0.27093   1.000
    C1513   C    0.09147   0.24903   0.27093   1.000
    C1514   C    0.15757   0.90853   0.27093   1.000
    C1515   C    0.82423   0.58237   0.10427   1.000
    C1516   C    0.41763   0.24187   0.10427   1.000
    C1517   C    0.75813   0.17577   0.10427   1.000
    C1518   C    0.24903   0.15757   0.72907   1.000
    C1519   C    0.90853   0.75097   0.72907   1.000
    C1520   C    0.84243   0.09147   0.72907   1.000
    C1521   C    0.84243   0.75097   0.22907   1.000
    C1522   C    0.24903   0.09147   0.22907   1.000
    C1523   C    0.90853   0.15757   0.22907   1.000
    C1524   C    0.41763   0.17577   0.60427   1.000
    C1525   C    0.75813   0.58237   0.60427   1.000
    C1526   C    0.82423   0.24187   0.60427   1.000
    C1527   C    0.03140   0.49690   0.45156   1.000
    C1528   C    0.50310   0.53450   0.45156   1.000
    C1529   C    0.97030   0.49300   0.05853   1.000
    C1530   C    0.52270   0.02970   0.05853   1.000
    C1531   C    0.50700   0.47730   0.05853   1.000
    C1532   C    0.50700   0.02970   0.55853   1.000
    C1533   C    0.97030   0.47730   0.55853   1.000
    C1534   C    0.52270   0.49300   0.55853   1.000
    C1535   C    0.02970   0.50700   0.94147   1.000
    C1536   C    0.47730   0.97030   0.94147   1.000
    C1537   C    0.49300   0.52270   0.94147   1.000
    C1538   C    0.15967   0.30363   0.77480   1.000
    C1539   C    0.69637   0.85603   0.77480   1.000
    C1540   C    0.14397   0.84033   0.77480   1.000
    C1541   C    0.63697   0.82633   0.39186   1.000
    C1542   C    0.18937   0.36303   0.39186   1.000
    C1543   C    0.17367   0.81063   0.39186   1.000
    C1544   C    0.17367   0.36303   0.89186   1.000
    C1545   C    0.63697   0.81063   0.89186   1.000
    C1546   C    0.18937   0.82633   0.89186   1.000
    C1547   C    0.69637   0.84033   0.27480   1.000
    C1548   C    0.14397   0.30363   0.27480   1.000
    C1549   C    0.15967   0.85603   0.27480   1.000
    C1550   C    0.82633   0.63697   0.10814   1.000
    C1551   C    0.36303   0.18937   0.10814   1.000
    C1552   C    0.81063   0.17367   0.10814   1.000
    C1553   C    0.30363   0.15967   0.72520   1.000
    C1554   C    0.85603   0.69637   0.72520   1.000
    C1555   C    0.84033   0.14397   0.72520   1.000
    C1556   C    0.84033   0.69637   0.22520   1.000
    C1557   C    0.30363   0.14397   0.22520   1.000
    C1558   C    0.85603   0.15967   0.22520   1.000
    C1559   C    0.36303   0.17367   0.60814   1.000
    C1560   C    0.81063   0.63697   0.60814   1.000
    C1561   C    0.82633   0.18937   0.60814   1.000
    C1562   C    0.08820   0.52000   0.45855   1.000
    C1563   C    0.48000   0.56820   0.45855   1.000
    C1564   C    0.96860   0.46550   0.04844   1.000
    C1565   C    0.49690   0.03140   0.04844   1.000
    C1566   C    0.53450   0.50310   0.04844   1.000
    C1567   C    0.53450   0.03140   0.54844   1.000
    C1568   C    0.96860   0.50310   0.54844   1.000
    C1569   C    0.49690   0.46550   0.54844   1.000
    C1570   C    0.03140   0.53450   0.95156   1.000
    C1571   C    0.50310   0.96860   0.95156   1.000
    C1572   C    0.46550   0.49690   0.95156   1.000
    C1573   C    0.13217   0.30193   0.78489   1.000
    C1574   C    0.69807   0.83023   0.78489   1.000
    C1575   C    0.16977   0.86783   0.78489   1.000
    C1576   C    0.63527   0.79883   0.38177   1.000
    C1577   C    0.16357   0.36473   0.38177   1.000
    C1578   C    0.20117   0.83643   0.38177   1.000
    C1579   C    0.20117   0.36473   0.88177   1.000
    C1580   C    0.63527   0.83643   0.88177   1.000
    C1581   C    0.16357   0.79883   0.88177   1.000
    C1582   C    0.69807   0.86783   0.28489   1.000
    C1583   C    0.16977   0.30193   0.28489   1.000
    C1584   C    0.13217   0.83023   0.28489   1.000
    C1585   C    0.79883   0.63527   0.11823   1.000
    C1586   C    0.36473   0.16357   0.11823   1.000
    C1587   C    0.83643   0.20117   0.11823   1.000
    C1588   C    0.30193   0.13217   0.71511   1.000
    C1589   C    0.83023   0.69807   0.71511   1.000
    C1590   C    0.86783   0.16977   0.71511   1.000
    C1591   C    0.86783   0.69807   0.21511   1.000
    C1592   C    0.30193   0.16977   0.21511   1.000
    C1593   C    0.83023   0.13217   0.21511   1.000
    C1594   C    0.36473   0.20117   0.61823   1.000
    C1595   C    0.83643   0.63527   0.61823   1.000
    C1596   C    0.79883   0.16357   0.61823   1.000
    H1597   H    0.08870   0.49940   0.46560   1.000
    H1598   H    0.50060   0.58930   0.46560   1.000
    C1599   C    0.91180   0.43180   0.04145   1.000
    C1600   C    0.52000   0.08820   0.04145   1.000
    C1601   C    0.56820   0.48000   0.04145   1.000
    C1602   C    0.56820   0.08820   0.54145   1.000
    C1603   C    0.91180   0.48000   0.54145   1.000
    C1604   C    0.52000   0.43180   0.54145   1.000
    C1605   C    0.08820   0.56820   0.95855   1.000
    C1606   C    0.48000   0.91180   0.95855   1.000
    C1607   C    0.43180   0.52000   0.95855   1.000
    C1608   C    0.09847   0.24513   0.79188   1.000
    C1609   C    0.75487   0.85333   0.79188   1.000
    C1610   C    0.14667   0.90153   0.79188   1.000
    C1611   C    0.57847   0.76513   0.37478   1.000
    C1612   C    0.18667   0.42153   0.37478   1.000
    C1613   C    0.23487   0.81333   0.37478   1.000
    C1614   C    0.23487   0.42153   0.87478   1.000
    C1615   C    0.57847   0.81333   0.87478   1.000
    C1616   C    0.18667   0.76513   0.87478   1.000
    C1617   C    0.75487   0.90153   0.29188   1.000
    C1618   C    0.14667   0.24513   0.29188   1.000
    C1619   C    0.09847   0.85333   0.29188   1.000
    C1620   C    0.76513   0.57847   0.12522   1.000
    C1621   C    0.42153   0.18667   0.12522   1.000
    C1622   C    0.81333   0.23487   0.12522   1.000
    C1623   C    0.24513   0.09847   0.70812   1.000
    C1624   C    0.85333   0.75487   0.70812   1.000
    C1625   C    0.90153   0.14667   0.70812   1.000
    C1626   C    0.90153   0.75487   0.20812   1.000
    C1627   C    0.24513   0.14667   0.20812   1.000
    C1628   C    0.85333   0.09847   0.20812   1.000
    C1629   C    0.42153   0.23487   0.62522   1.000
    C1630   C    0.81333   0.57847   0.62522   1.000
    C1631   C    0.76513   0.18667   0.62522   1.000
    C1632   C    0.97330   0.49690   0.43478   1.000
    C1633   C    0.50310   0.47640   0.43478   1.000
    H1634   H    0.91130   0.41070   0.03440   1.000
    H1635   H    0.49940   0.08870   0.03440   1.000
    H1636   H    0.58930   0.50060   0.03440   1.000
    H1637   H    0.58930   0.08870   0.53440   1.000
    H1638   H    0.91130   0.50060   0.53440   1.000
    H1639   H    0.49940   0.41070   0.53440   1.000
    H1640   H    0.08870   0.58930   0.96560   1.000
    H1641   H    0.50060   0.91130   0.96560   1.000
    H1642   H    0.41070   0.49940   0.96560   1.000
    H1643   H    0.07737   0.24463   0.79893   1.000
    H1644   H    0.75537   0.83273   0.79893   1.000
    H1645   H    0.16727   0.92263   0.79893   1.000
    H1646   H    0.57797   0.74403   0.36773   1.000
    H1647   H    0.16607   0.42203   0.36773   1.000
    H1648   H    0.25597   0.83393   0.36773   1.000
    H1649   H    0.25597   0.42203   0.86773   1.000
    H1650   H    0.57797   0.83393   0.86773   1.000
    H1651   H    0.16607   0.74403   0.86773   1.000
    H1652   H    0.75537   0.92263   0.29893   1.000
    H1653   H    0.16727   0.24463   0.29893   1.000
    H1654   H    0.07737   0.83273   0.29893   1.000
    H1655   H    0.74403   0.57797   0.13227   1.000
    H1656   H    0.42203   0.16607   0.13227   1.000
    H1657   H    0.83393   0.25597   0.13227   1.000
    H1658   H    0.24463   0.07737   0.70107   1.000
    H1659   H    0.83273   0.75537   0.70107   1.000
    H1660   H    0.92263   0.16727   0.70107   1.000
    H1661   H    0.92263   0.75537   0.20107   1.000
    H1662   H    0.24463   0.16727   0.20107   1.000
    H1663   H    0.83273   0.07737   0.20107   1.000
    H1664   H    0.42203   0.25597   0.63227   1.000
    H1665   H    0.83393   0.57797   0.63227   1.000
    H1666   H    0.74403   0.16607   0.63227   1.000
    C1667   C    0.97490   0.50020   0.42209   1.000
    C1668   C    0.49980   0.47470   0.42209   1.000
    C1669   C    0.02670   0.52360   0.06522   1.000
    C1670   C    0.49690   0.97330   0.06522   1.000
    C1671   C    0.47640   0.50310   0.06522   1.000
    C1672   C    0.47640   0.97330   0.56522   1.000
    C1673   C    0.02670   0.50310   0.56522   1.000
    C1674   C    0.49690   0.52360   0.56522   1.000
    C1675   C    0.97330   0.47640   0.93478   1.000
    C1676   C    0.50310   0.02670   0.93478   1.000
    C1677   C    0.52360   0.49690   0.93478   1.000
    C1678   C    0.19027   0.36003   0.76811   1.000
    C1679   C    0.63997   0.83023   0.76811   1.000
    C1680   C    0.16977   0.80973   0.76811   1.000
    C1681   C    0.69337   0.85693   0.39855   1.000
    C1682   C    0.16357   0.30663   0.39855   1.000
    C1683   C    0.14307   0.83643   0.39855   1.000
    C1684   C    0.14307   0.30663   0.89855   1.000
    C1685   C    0.69337   0.83643   0.89855   1.000
    C1686   C    0.16357   0.85693   0.89855   1.000
    C1687   C    0.63997   0.80973   0.26811   1.000
    C1688   C    0.16977   0.36003   0.26811   1.000
    C1689   C    0.19027   0.83023   0.26811   1.000
    C1690   C    0.85693   0.69337   0.10145   1.000
    C1691   C    0.30663   0.16357   0.10145   1.000
    C1692   C    0.83643   0.14307   0.10145   1.000
    C1693   C    0.36003   0.19027   0.73189   1.000
    C1694   C    0.83023   0.63997   0.73189   1.000
    C1695   C    0.80973   0.16977   0.73189   1.000
    C1696   C    0.80973   0.63997   0.23189   1.000
    C1697   C    0.36003   0.16977   0.23189   1.000
    C1698   C    0.83023   0.19027   0.23189   1.000
    C1699   C    0.30663   0.14307   0.60145   1.000
    C1700   C    0.83643   0.69337   0.60145   1.000
    C1701   C    0.85693   0.16357   0.60145   1.000
    C1702   C    0.92120   0.47260   0.41588   1.000
    C1703   C    0.52740   0.44860   0.41588   1.000
    C1704   C    0.02510   0.52530   0.07791   1.000
    C1705   C    0.50020   0.97490   0.07791   1.000
    C1706   C    0.47470   0.49980   0.07791   1.000
    C1707   C    0.47470   0.97490   0.57791   1.000
    C1708   C    0.02510   0.49980   0.57791   1.000
    C1709   C    0.50020   0.52530   0.57791   1.000
    C1710   C    0.97490   0.47470   0.92209   1.000
    C1711   C    0.49980   0.02510   0.92209   1.000
    C1712   C    0.52530   0.50020   0.92209   1.000
    C1713   C    0.19197   0.35843   0.75542   1.000
    C1714   C    0.64157   0.83353   0.75542   1.000
    C1715   C    0.16647   0.80803   0.75542   1.000
    C1716   C    0.69177   0.85863   0.41124   1.000
    C1717   C    0.16687   0.30823   0.41124   1.000
    C1718   C    0.14137   0.83313   0.41124   1.000
    C1719   C    0.14137   0.30823   0.91124   1.000
    C1720   C    0.69177   0.83313   0.91124   1.000
    C1721   C    0.16687   0.85863   0.91124   1.000
    C1722   C    0.64157   0.80803   0.25542   1.000
    C1723   C    0.16647   0.35843   0.25542   1.000
    C1724   C    0.19197   0.83353   0.25542   1.000
    C1725   C    0.85863   0.69177   0.08876   1.000
    C1726   C    0.30823   0.16687   0.08876   1.000
    C1727   C    0.83313   0.14137   0.08876   1.000
    C1728   C    0.35843   0.19197   0.74458   1.000
    C1729   C    0.83353   0.64157   0.74458   1.000
    C1730   C    0.80803   0.16647   0.74458   1.000
    C1731   C    0.80803   0.64157   0.24458   1.000
    C1732   C    0.35843   0.16647   0.24458   1.000
    C1733   C    0.83353   0.19197   0.24458   1.000
    C1734   C    0.30823   0.14137   0.58876   1.000
    C1735   C    0.83313   0.69177   0.58876   1.000
    C1736   C    0.85863   0.16687   0.58876   1.000
    H1737   H    0.92330   0.47300   0.40750   1.000
    H1738   H    0.52700   0.45030   0.40750   1.000
    C1739   C    0.07880   0.55140   0.08412   1.000
    C1740   C    0.47260   0.92120   0.08412   1.000
    C1741   C    0.44860   0.52740   0.08412   1.000
    C1742   C    0.44860   0.92120   0.58412   1.000
    C1743   C    0.07880   0.52740   0.58412   1.000
    C1744   C    0.47260   0.55140   0.58412   1.000
    C1745   C    0.92120   0.44860   0.91588   1.000
    C1746   C    0.52740   0.07880   0.91588   1.000
    C1747   C    0.55140   0.47260   0.91588   1.000
    C1748   C    0.21807   0.41213   0.74921   1.000
    C1749   C    0.58787   0.80593   0.74921   1.000
    C1750   C    0.19407   0.78193   0.74921   1.000
    C1751   C    0.74547   0.88473   0.41745   1.000
    C1752   C    0.13927   0.25453   0.41745   1.000
    C1753   C    0.11527   0.86073   0.41745   1.000
    C1754   C    0.11527   0.25453   0.91745   1.000
    C1755   C    0.74547   0.86073   0.91745   1.000
    C1756   C    0.13927   0.88473   0.91745   1.000
    C1757   C    0.58787   0.78193   0.24921   1.000
    C1758   C    0.19407   0.41213   0.24921   1.000
    C1759   C    0.21807   0.80593   0.24921   1.000
    C1760   C    0.88473   0.74547   0.08255   1.000
    C1761   C    0.25453   0.13927   0.08255   1.000
    C1762   C    0.86073   0.11527   0.08255   1.000
    C1763   C    0.41213   0.21807   0.75079   1.000
    C1764   C    0.80593   0.58787   0.75079   1.000
    C1765   C    0.78193   0.19407   0.75079   1.000
    C1766   C    0.78193   0.58787   0.25079   1.000
    C1767   C    0.41213   0.19407   0.25079   1.000
    C1768   C    0.80593   0.21807   0.25079   1.000
    C1769   C    0.25453   0.11527   0.58255   1.000
    C1770   C    0.86073   0.74547   0.58255   1.000
    C1771   C    0.88473   0.13927   0.58255   1.000
    C1772   C    0.86090   0.44270   0.42148   1.000
    C1773   C    0.55730   0.41820   0.42148   1.000
    H1774   H    0.07670   0.54970   0.09250   1.000
    H1775   H    0.47300   0.92330   0.09250   1.000
    H1776   H    0.45030   0.52700   0.09250   1.000
    H1777   H    0.45030   0.92330   0.59250   1.000
    H1778   H    0.07670   0.52700   0.59250   1.000
    H1779   H    0.47300   0.54970   0.59250   1.000
    H1780   H    0.92330   0.45030   0.90750   1.000
    H1781   H    0.52700   0.07670   0.90750   1.000
    H1782   H    0.54970   0.47300   0.90750   1.000
    H1783   H    0.21637   0.41003   0.74083   1.000
    H1784   H    0.58997   0.80633   0.74083   1.000
    H1785   H    0.19367   0.78363   0.74083   1.000
    H1786   H    0.74337   0.88303   0.42583   1.000
    H1787   H    0.13967   0.25663   0.42583   1.000
    H1788   H    0.11697   0.86033   0.42583   1.000
    H1789   H    0.11697   0.25663   0.92583   1.000
    H1790   H    0.74337   0.86033   0.92583   1.000
    H1791   H    0.13967   0.88303   0.92583   1.000
    H1792   H    0.58997   0.78363   0.24083   1.000
    H1793   H    0.19367   0.41003   0.24083   1.000
    H1794   H    0.21637   0.80633   0.24083   1.000
    H1795   H    0.88303   0.74337   0.07417   1.000
    H1796   H    0.25663   0.13967   0.07417   1.000
    H1797   H    0.86033   0.11697   0.07417   1.000
    H1798   H    0.41003   0.21637   0.75917   1.000
    H1799   H    0.80633   0.58997   0.75917   1.000
    H1800   H    0.78363   0.19367   0.75917   1.000
    H1801   H    0.78363   0.58997   0.25917   1.000
    H1802   H    0.41003   0.19367   0.25917   1.000
    H1803   H    0.80633   0.21637   0.25917   1.000
    H1804   H    0.25663   0.11697   0.57417   1.000
    H1805   H    0.86033   0.74337   0.57417   1.000
    H1806   H    0.88303   0.13967   0.57417   1.000
    C1807   C    0.86020   0.44600   0.43362   1.000
    C1808   C    0.55400   0.41420   0.43362   1.000
    C1809   C    0.13910   0.58180   0.07852   1.000
    C1810   C    0.44270   0.86090   0.07852   1.000
    C1811   C    0.41820   0.55730   0.07852   1.000
    C1812   C    0.41820   0.86090   0.57852   1.000
    C1813   C    0.13910   0.55730   0.57852   1.000
    C1814   C    0.44270   0.58180   0.57852   1.000
    C1815   C    0.86090   0.41820   0.92148   1.000
    C1816   C    0.55730   0.13910   0.92148   1.000
    C1817   C    0.58180   0.44270   0.92148   1.000
    C1818   C    0.24847   0.47243   0.75481   1.000
    C1819   C    0.52757   0.77603   0.75481   1.000
    C1820   C    0.22397   0.75153   0.75481   1.000
    C1821   C    0.80577   0.91513   0.41185   1.000
    C1822   C    0.10937   0.19423   0.41185   1.000
    C1823   C    0.08487   0.89063   0.41185   1.000
    C1824   C    0.08487   0.19423   0.91185   1.000
    C1825   C    0.80577   0.89063   0.91185   1.000
    C1826   C    0.10937   0.91513   0.91185   1.000
    C1827   C    0.52757   0.75153   0.25481   1.000
    C1828   C    0.22397   0.47243   0.25481   1.000
    C1829   C    0.24847   0.77603   0.25481   1.000
    C1830   C    0.91513   0.80577   0.08815   1.000
    C1831   C    0.19423   0.10937   0.08815   1.000
    C1832   C    0.89063   0.08487   0.08815   1.000
    C1833   C    0.47243   0.24847   0.74519   1.000
    C1834   C    0.77603   0.52757   0.74519   1.000
    C1835   C    0.75153   0.22397   0.74519   1.000
    C1836   C    0.75153   0.52757   0.24519   1.000
    C1837   C    0.47243   0.22397   0.24519   1.000
    C1838   C    0.77603   0.24847   0.24519   1.000
    C1839   C    0.19423   0.08487   0.58815   1.000
    C1840   C    0.89063   0.80577   0.58815   1.000
    C1841   C    0.91513   0.10937   0.58815   1.000
    H1842   H    0.82100   0.43170   0.43750   1.000
    H1843   H    0.56830   0.38930   0.43750   1.000
    C1844   C    0.13980   0.58580   0.06638   1.000
    C1845   C    0.44600   0.86020   0.06638   1.000
    C1846   C    0.41420   0.55400   0.06638   1.000
    C1847   C    0.41420   0.86020   0.56638   1.000
    C1848   C    0.13980   0.55400   0.56638   1.000
    C1849   C    0.44600   0.58580   0.56638   1.000
    C1850   C    0.86020   0.41420   0.93362   1.000
    C1851   C    0.55400   0.13980   0.93362   1.000
    C1852   C    0.58580   0.44600   0.93362   1.000
    C1853   C    0.25247   0.47313   0.76695   1.000
    C1854   C    0.52687   0.77933   0.76695   1.000
    C1855   C    0.22067   0.74753   0.76695   1.000
    C1856   C    0.80647   0.91913   0.39971   1.000
    C1857   C    0.11267   0.19353   0.39971   1.000
    C1858   C    0.08087   0.88733   0.39971   1.000
    C1859   C    0.08087   0.19353   0.89971   1.000
    C1860   C    0.80647   0.88733   0.89971   1.000
    C1861   C    0.11267   0.91913   0.89971   1.000
    C1862   C    0.52687   0.74753   0.26695   1.000
    C1863   C    0.22067   0.47313   0.26695   1.000
    C1864   C    0.25247   0.77933   0.26695   1.000
    C1865   C    0.91913   0.80647   0.10029   1.000
    C1866   C    0.19353   0.11267   0.10029   1.000
    C1867   C    0.88733   0.08087   0.10029   1.000
    C1868   C    0.47313   0.25247   0.73305   1.000
    C1869   C    0.77933   0.52687   0.73305   1.000
    C1870   C    0.74753   0.22067   0.73305   1.000
    C1871   C    0.74753   0.52687   0.23305   1.000
    C1872   C    0.47313   0.22067   0.23305   1.000
    C1873   C    0.77933   0.25247   0.23305   1.000
    C1874   C    0.19353   0.08087   0.60029   1.000
    C1875   C    0.88733   0.80647   0.60029   1.000
    C1876   C    0.91913   0.11267   0.60029   1.000
    C1877   C    0.91290   0.46880   0.44011   1.000
    C1878   C    0.53120   0.44410   0.44011   1.000
    H1879   H    0.17900   0.61070   0.06250   1.000
    H1880   H    0.43170   0.82100   0.06250   1.000
    H1881   H    0.38930   0.56830   0.06250   1.000
    H1882   H    0.38930   0.82100   0.56250   1.000
    H1883   H    0.17900   0.56830   0.56250   1.000
    H1884   H    0.43170   0.61070   0.56250   1.000
    H1885   H    0.82100   0.38930   0.93750   1.000
    H1886   H    0.56830   0.17900   0.93750   1.000
    H1887   H    0.61070   0.43170   0.93750   1.000
    H1888   H    0.27737   0.51233   0.77083   1.000
    H1889   H    0.48767   0.76503   0.77083   1.000
    H1890   H    0.23497   0.72263   0.77083   1.000
    H1891   H    0.84567   0.94403   0.39583   1.000
    H1892   H    0.09837   0.15433   0.39583   1.000
    H1893   H    0.05597   0.90163   0.39583   1.000
    H1894   H    0.05597   0.15433   0.89583   1.000
    H1895   H    0.84567   0.90163   0.89583   1.000
    H1896   H    0.09837   0.94403   0.89583   1.000
    H1897   H    0.48767   0.72263   0.27083   1.000
    H1898   H    0.23497   0.51233   0.27083   1.000
    H1899   H    0.27737   0.76503   0.27083   1.000
    H1900   H    0.94403   0.84567   0.10417   1.000
    H1901   H    0.15433   0.09837   0.10417   1.000
    H1902   H    0.90163   0.05597   0.10417   1.000
    H1903   H    0.51233   0.27737   0.72917   1.000
    H1904   H    0.76503   0.48767   0.72917   1.000
    H1905   H    0.72263   0.23497   0.72917   1.000
    H1906   H    0.72263   0.48767   0.22917   1.000
    H1907   H    0.51233   0.23497   0.22917   1.000
    H1908   H    0.76503   0.27737   0.22917   1.000
    H1909   H    0.15433   0.05597   0.60417   1.000
    H1910   H    0.90163   0.84567   0.60417   1.000
    H1911   H    0.94403   0.09837   0.60417   1.000
    C1912   C    0.05567   0.13683   0.92042   1.000
    C1913   C    0.86317   0.91883   0.92042   1.000
    C1914   C    0.08117   0.94433   0.92042   1.000
    C1915   C    0.08710   0.55590   0.05989   1.000
    C1916   C    0.46880   0.91290   0.05989   1.000
    C1917   C    0.44410   0.53120   0.05989   1.000
    C1918   C    0.44410   0.91290   0.55989   1.000
    C1919   C    0.08710   0.53120   0.55989   1.000
    C1920   C    0.46880   0.55590   0.55989   1.000
    C1921   C    0.91290   0.44410   0.94011   1.000
    C1922   C    0.53120   0.08710   0.94011   1.000
    C1923   C    0.55590   0.46880   0.94011   1.000
    C1924   C    0.22257   0.42043   0.77344   1.000
    C1925   C    0.57957   0.80213   0.77344   1.000
    C1926   C    0.19787   0.77743   0.77344   1.000
    C1927   C    0.75377   0.88923   0.39322   1.000
    C1928   C    0.13547   0.24623   0.39322   1.000
    C1929   C    0.11077   0.86453   0.39322   1.000
    C1930   C    0.11077   0.24623   0.89322   1.000
    C1931   C    0.75377   0.86453   0.89322   1.000
    C1932   C    0.13547   0.88923   0.89322   1.000
    C1933   C    0.57957   0.77743   0.27344   1.000
    C1934   C    0.19787   0.42043   0.27344   1.000
    C1935   C    0.22257   0.80213   0.27344   1.000
    C1936   C    0.88923   0.75377   0.10678   1.000
    C1937   C    0.24623   0.13547   0.10678   1.000
    C1938   C    0.86453   0.11077   0.10678   1.000
    C1939   C    0.42043   0.22257   0.72656   1.000
    C1940   C    0.80213   0.57957   0.72656   1.000
    C1941   C    0.47017   0.72233   0.24624   1.000
    C1942   C    0.25217   0.52983   0.24624   1.000
    C1943   C    0.27767   0.74783   0.24624   1.000
    C1944   C    0.94433   0.86317   0.07958   1.000
    C1945   C    0.13683   0.08117   0.07958   1.000
    C1946   C    0.91883   0.05567   0.07958   1.000
    C1947   C    0.52983   0.27767   0.75376   1.000
    C1948   C    0.74783   0.47017   0.75376   1.000
    C1949   C    0.72233   0.25217   0.75376   1.000
    C1950   C    0.72233   0.47017   0.25376   1.000
    C1951   C    0.52983   0.25217   0.25376   1.000
    C1952   C    0.74783   0.27767   0.25376   1.000
    C1953   C    0.13683   0.05567   0.57958   1.000
    C1954   C    0.91883   0.86317   0.57958   1.000
    C1955   C    0.94433   0.08117   0.57958   1.000
    H1956   H    0.10010   0.64540   0.42700   1.000
    H1957   H    0.35460   0.45470   0.42700   1.000
    N1958   N    0.90930   0.51520   0.07369   1.000
    N1959   N    0.60590   0.09070   0.07369   1.000
    N1960   N    0.48480   0.39410   0.07369   1.000
    N1961   N    0.48480   0.09070   0.57369   1.000
    N1962   N    0.90930   0.39410   0.57369   1.000
    N1963   N    0.60590   0.51520   0.57369   1.000
    N1964   N    0.09070   0.48480   0.92631   1.000
    N1965   N    0.39410   0.90930   0.92631   1.000
    N1966   N    0.51520   0.60590   0.92631   1.000
    N1967   N    0.18187   0.24263   0.75964   1.000
    N1968   N    0.75737   0.93923   0.75964   1.000
    N1969   N    0.06077   0.81813   0.75964   1.000
    N1970   N    0.57597   0.84853   0.40702   1.000
    N1971   N    0.27257   0.42403   0.40702   1.000
    N1972   N    0.15147   0.72743   0.40702   1.000
    N1973   N    0.15147   0.42403   0.90702   1.000
    N1974   N    0.57597   0.72743   0.90702   1.000
    N1975   N    0.27257   0.84853   0.90702   1.000
    N1976   N    0.75737   0.81813   0.25964   1.000
    N1977   N    0.06077   0.24263   0.25964   1.000
    N1978   N    0.18187   0.93923   0.25964   1.000
    N1979   N    0.84853   0.57597   0.09298   1.000
    N1980   N    0.42403   0.27257   0.09298   1.000
    N1981   N    0.72743   0.15147   0.09298   1.000
    N1982   N    0.24263   0.18187   0.74036   1.000
    N1983   N    0.93923   0.75737   0.74036   1.000
    N1984   N    0.81813   0.06077   0.74036   1.000
    N1985   N    0.81813   0.75737   0.24036   1.000
    N1986   N    0.24263   0.06077   0.24036   1.000
    N1987   N    0.93923   0.18187   0.24036   1.000
    N1988   N    0.42403   0.15147   0.59298   1.000
    N1989   N    0.72743   0.57597   0.59298   1.000
    N1990   N    0.84853   0.27257   0.59298   1.000
    N1991   N    0.03080   0.52180   0.41435   1.000
    N1992   N    0.47820   0.50900   0.41435   1.000
    H1993   H    0.89990   0.54530   0.07300   1.000
    H1994   H    0.64540   0.10010   0.07300   1.000
    H1995   H    0.45470   0.35460   0.07300   1.000
    H1996   H    0.45470   0.10010   0.57300   1.000
    H1997   H    0.89990   0.35460   0.57300   1.000
    H1998   H    0.64540   0.54530   0.57300   1.000
    H1999   H    0.10010   0.45470   0.92700   1.000
    H2000   H    0.35460   0.89990   0.92700   1.000
    H2001   H    0.54530   0.64540   0.92700   1.000
    H2002   H    0.21197   0.23323   0.76033   1.000
    H2003   H    0.76677   0.97873   0.76033   1.000
    H2004   H    0.02127   0.78803   0.76033   1.000
    H2005   H    0.56657   0.87863   0.40633   1.000
    H2006   H    0.31207   0.43343   0.40633   1.000
    H2007   H    0.12137   0.68793   0.40633   1.000
    H2008   H    0.12137   0.43343   0.90633   1.000
    H2009   H    0.56657   0.68793   0.90633   1.000
    H2010   H    0.31207   0.87863   0.90633   1.000
    H2011   H    0.76677   0.78803   0.26033   1.000
    H2012   H    0.02127   0.23323   0.26033   1.000
    H2013   H    0.21197   0.97873   0.26033   1.000
    H2014   H    0.87863   0.56657   0.09367   1.000
    H2015   H    0.43343   0.31207   0.09367   1.000
    H2016   H    0.68793   0.12137   0.09367   1.000
    H2017   H    0.23323   0.21197   0.73967   1.000
    H2018   H    0.97873   0.76677   0.73967   1.000
    H2019   H    0.78803   0.02127   0.73967   1.000
    H2020   H    0.78803   0.76677   0.23967   1.000
    H2021   H    0.23323   0.02127   0.23967   1.000
    H2022   H    0.97873   0.21197   0.23967   1.000
    H2023   H    0.43343   0.12137   0.59367   1.000
    H2024   H    0.68793   0.56657   0.59367   1.000
    H2025   H    0.87863   0.31207   0.59367   1.000
    H2026   H    0.03120   0.49370   0.40950   1.000
    H2027   H    0.50630   0.53750   0.40950   1.000
    N2028   N    0.96920   0.49100   0.08565   1.000
    N2029   N    0.52180   0.03080   0.08565   1.000
    N2030   N    0.50900   0.47820   0.08565   1.000
    N2031   N    0.50900   0.03080   0.58565   1.000
    N2032   N    0.96920   0.47820   0.58565   1.000
    N2033   N    0.52180   0.49100   0.58565   1.000
    N2034   N    0.03080   0.50900   0.91435   1.000
    N2035   N    0.47820   0.96920   0.91435   1.000
    N2036   N    0.49100   0.52180   0.91435   1.000
    N2037   N    0.15767   0.30253   0.74768   1.000
    N2038   N    0.69747   0.85513   0.74768   1.000
    N2039   N    0.14487   0.84233   0.74768   1.000
    N2040   N    0.63587   0.82433   0.41898   1.000
    N2041   N    0.18847   0.36413   0.41898   1.000
    N2042   N    0.17567   0.81153   0.41898   1.000
    N2043   N    0.17567   0.36413   0.91898   1.000
    N2044   N    0.63587   0.81153   0.91898   1.000
    N2045   N    0.18847   0.82433   0.91898   1.000
    N2046   N    0.69747   0.84233   0.24768   1.000
    N2047   N    0.14487   0.30253   0.24768   1.000
    N2048   N    0.15767   0.85513   0.24768   1.000
    N2049   N    0.82433   0.63587   0.08102   1.000
    N2050   N    0.36413   0.18847   0.08102   1.000
    N2051   N    0.81153   0.17567   0.08102   1.000
    N2052   N    0.30253   0.15767   0.75232   1.000
    N2053   N    0.85513   0.69747   0.75232   1.000
    N2054   N    0.84233   0.14487   0.75232   1.000
    N2055   N    0.84233   0.69747   0.25232   1.000
    N2056   N    0.30253   0.14487   0.25232   1.000
    N2057   N    0.85513   0.15767   0.25232   1.000
    N2058   N    0.36413   0.17567   0.58102   1.000
    N2059   N    0.81153   0.63587   0.58102   1.000
    N2060   N    0.82433   0.18847   0.58102   1.000
    C2061   C    0.08470   0.58490   0.41400   1.000
    C2062   C    0.41510   0.49980   0.41400   1.000
    H2063   H    0.96880   0.46250   0.09050   1.000
    H2064   H    0.49370   0.03120   0.09050   1.000
    H2065   H    0.53750   0.50630   0.09050   1.000
    H2066   H    0.53750   0.03120   0.59050   1.000
    H2067   H    0.96880   0.50630   0.59050   1.000
    H2068   H    0.49370   0.46250   0.59050   1.000
    H2069   H    0.03120   0.53750   0.90950   1.000
    H2070   H    0.50630   0.96880   0.90950   1.000
    H2071   H    0.46250   0.49370   0.90950   1.000
    H2072   H    0.12917   0.30213   0.74283   1.000
    H2073   H    0.69787   0.82703   0.74283   1.000
    H2074   H    0.17297   0.87083   0.74283   1.000
    H2075   H    0.63547   0.79583   0.42383   1.000
    H2076   H    0.16037   0.36453   0.42383   1.000
    H2077   H    0.20417   0.83963   0.42383   1.000
    H2078   H    0.20417   0.36453   0.92383   1.000
    H2079   H    0.63547   0.83963   0.92383   1.000
    H2080   H    0.16037   0.79583   0.92383   1.000
    H2081   H    0.69787   0.87083   0.24283   1.000
    H2082   H    0.17297   0.30213   0.24283   1.000
    H2083   H    0.12917   0.82703   0.24283   1.000
    H2084   H    0.79583   0.63547   0.07617   1.000
    H2085   H    0.36453   0.16037   0.07617   1.000
    H2086   H    0.83963   0.20417   0.07617   1.000
    H2087   H    0.30213   0.12917   0.75717   1.000
    H2088   H    0.82703   0.69787   0.75717   1.000
    H2089   H    0.87083   0.17297   0.75717   1.000
    H2090   H    0.87083   0.69787   0.25717   1.000
    H2091   H    0.30213   0.17297   0.25717   1.000
    H2092   H    0.82703   0.12917   0.25717   1.000
    H2093   H    0.36453   0.20417   0.57617   1.000
    H2094   H    0.83963   0.63547   0.57617   1.000
    H2095   H    0.79583   0.16037   0.57617   1.000
    N2096   N    0.98270   0.44450   0.45712   1.000
    N2097   N    0.55550   0.53820   0.45712   1.000
    C2098   C    0.91530   0.50020   0.08600   1.000
    C2099   C    0.58490   0.08470   0.08600   1.000
    C2100   C    0.49980   0.41510   0.08600   1.000
    C2101   C    0.49980   0.08470   0.58600   1.000
    C2102   C    0.91530   0.41510   0.58600   1.000
    C2103   C    0.58490   0.50020   0.58600   1.000
    C2104   C    0.08470   0.49980   0.91400   1.000
    C2105   C    0.41510   0.91530   0.91400   1.000
    C2106   C    0.50020   0.58490   0.91400   1.000
    C2107   C    0.16687   0.24863   0.74733   1.000
    C2108   C    0.75137   0.91823   0.74733   1.000
    C2109   C    0.08177   0.83313   0.74733   1.000
    C2110   C    0.58197   0.83353   0.41933   1.000
    C2111   C    0.25157   0.41803   0.41933   1.000
    C2112   C    0.16647   0.74843   0.41933   1.000
    C2113   C    0.16647   0.41803   0.91933   1.000
    C2114   C    0.58197   0.74843   0.91933   1.000
    C2115   C    0.25157   0.83353   0.91933   1.000
    C2116   C    0.75137   0.83313   0.24733   1.000
    C2117   C    0.08177   0.24863   0.24733   1.000
    C2118   C    0.16687   0.91823   0.24733   1.000
    C2119   C    0.83353   0.58197   0.08067   1.000
    C2120   C    0.41803   0.25157   0.08067   1.000
    C2121   C    0.74843   0.16647   0.08067   1.000
    C2122   C    0.24863   0.16687   0.75267   1.000
    C2123   C    0.91823   0.75137   0.75267   1.000
    C2124   C    0.83313   0.08177   0.75267   1.000
    C2125   C    0.83313   0.75137   0.25267   1.000
    C2126   C    0.24863   0.08177   0.25267   1.000
    C2127   C    0.91823   0.16687   0.25267   1.000
    C2128   C    0.41803   0.16647   0.58067   1.000
    C2129   C    0.74843   0.58197   0.58067   1.000
    C2130   C    0.83353   0.25157   0.58067   1.000
    H2131   H    0.98790   0.41160   0.45780   1.000
    H2132   H    0.58840   0.57630   0.45780   1.000
    N2133   N    0.01730   0.46180   0.04288   1.000
    N2134   N    0.44450   0.98270   0.04288   1.000
    N2135   N    0.53820   0.55550   0.04288   1.000
    N2136   N    0.53820   0.98270   0.54288   1.000
    N2137   N    0.01730   0.55550   0.54288   1.000
    N2138   N    0.44450   0.46180   0.54288   1.000
    N2139   N    0.98270   0.53820   0.95712   1.000
    N2140   N    0.55550   0.01730   0.95712   1.000
    N2141   N    0.46180   0.44450   0.95712   1.000
    N2142   N    0.12847   0.35063   0.79045   1.000
    N2143   N    0.64937   0.77783   0.79045   1.000
    N2144   N    0.22217   0.87153   0.79045   1.000
    N2145   N    0.68397   0.79513   0.37621   1.000
    N2146   N    0.11117   0.31603   0.37621   1.000
    N2147   N    0.20487   0.88883   0.37621   1.000
    N2148   N    0.20487   0.31603   0.87621   1.000
    N2149   N    0.68397   0.88883   0.87621   1.000
    N2150   N    0.11117   0.79513   0.87621   1.000
    N2151   N    0.64937   0.87153   0.29045   1.000
    N2152   N    0.22217   0.35063   0.29045   1.000
    N2153   N    0.12847   0.77783   0.29045   1.000
    N2154   N    0.79513   0.68397   0.12379   1.000
    N2155   N    0.31603   0.11117   0.12379   1.000
    N2156   N    0.88883   0.20487   0.12379   1.000
    N2157   N    0.35063   0.12847   0.70955   1.000
    N2158   N    0.77783   0.64937   0.70955   1.000
    N2159   N    0.87153   0.22217   0.70955   1.000
    N2160   N    0.87153   0.64937   0.20955   1.000
    N2161   N    0.35063   0.22217   0.20955   1.000
    N2162   N    0.77783   0.12847   0.20955   1.000
    N2163   N    0.31603   0.20487   0.62379   1.000
    N2164   N    0.88883   0.68397   0.62379   1.000
    N2165   N    0.79513   0.11117   0.62379   1.000
    N2166   N    0.90460   0.46290   0.45210   1.000
    N2167   N    0.53710   0.44170   0.45210   1.000
    H2168   H    0.01210   0.42370   0.04220   1.000
    H2169   H    0.41160   0.98790   0.04220   1.000
    H2170   H    0.57630   0.58840   0.04220   1.000
    H2171   H    0.57630   0.98790   0.54220   1.000
    H2172   H    0.01210   0.58840   0.54220   1.000
    H2173   H    0.41160   0.42370   0.54220   1.000
    H2174   H    0.98790   0.57630   0.95780   1.000
    H2175   H    0.58840   0.01210   0.95780   1.000
    H2176   H    0.42370   0.41160   0.95780   1.000
    H2177   H    0.09037   0.34543   0.79113   1.000
    H2178   H    0.65457   0.74493   0.79113   1.000
    H2179   H    0.25507   0.90963   0.79113   1.000
    H2180   H    0.67877   0.75703   0.37553   1.000
    H2181   H    0.07827   0.32123   0.37553   1.000
    H2182   H    0.24297   0.92173   0.37553   1.000
    H2183   H    0.24297   0.32123   0.87553   1.000
    H2184   H    0.67877   0.92173   0.87553   1.000
    H2185   H    0.07827   0.75703   0.87553   1.000
    H2186   H    0.65457   0.90963   0.29113   1.000
    H2187   H    0.25507   0.34543   0.29113   1.000
    H2188   H    0.09037   0.74493   0.29113   1.000
    H2189   H    0.75703   0.67877   0.12447   1.000
    H2190   H    0.32123   0.07827   0.12447   1.000
    H2191   H    0.92173   0.24297   0.12447   1.000
    H2192   H    0.34543   0.09037   0.70887   1.000
    H2193   H    0.74493   0.65457   0.70887   1.000
    H2194   H    0.90963   0.25507   0.70887   1.000
    H2195   H    0.90963   0.65457   0.20887   1.000
    H2196   H    0.34543   0.25507   0.20887   1.000
    H2197   H    0.74493   0.09037   0.20887   1.000
    H2198   H    0.32123   0.24297   0.62447   1.000
    H2199   H    0.92173   0.67877   0.62447   1.000
    H2200   H    0.75703   0.07827   0.62447   1.000
    H2201   H    0.88170   0.47930   0.45450   1.000
    H2202   H    0.52070   0.40240   0.45450   1.000
    N2203   N    0.09540   0.55830   0.04790   1.000
    N2204   N    0.46290   0.90460   0.04790   1.000
    N2205   N    0.44170   0.53710   0.04790   1.000
    N2206   N    0.44170   0.90460   0.54790   1.000
    N2207   N    0.09540   0.53710   0.54790   1.000
    N2208   N    0.46290   0.55830   0.54790   1.000
    N2209   N    0.90460   0.44170   0.95210   1.000
    N2210   N    0.53710   0.09540   0.95210   1.000
    N2211   N    0.55830   0.46290   0.95210   1.000
    N2212   N    0.22497   0.42873   0.78543   1.000
    N2213   N    0.57127   0.79623   0.78543   1.000
    N2214   N    0.20377   0.77503   0.78543   1.000
    N2215   N    0.76207   0.89163   0.38123   1.000
    N2216   N    0.12957   0.23793   0.38123   1.000
    N2217   N    0.10837   0.87043   0.38123   1.000
    N2218   N    0.10837   0.23793   0.88123   1.000
    N2219   N    0.76207   0.87043   0.88123   1.000
    N2220   N    0.12957   0.89163   0.88123   1.000
    N2221   N    0.57127   0.77503   0.28543   1.000
    N2222   N    0.20377   0.42873   0.28543   1.000
    N2223   N    0.22497   0.79623   0.28543   1.000
    N2224   N    0.89163   0.76207   0.11877   1.000
    N2225   N    0.23793   0.12957   0.11877   1.000
    N2226   N    0.87043   0.10837   0.11877   1.000
    N2227   N    0.42873   0.22497   0.71457   1.000
    N2228   N    0.79623   0.57127   0.71457   1.000
    N2229   N    0.77503   0.20377   0.71457   1.000
    N2230   N    0.77503   0.57127   0.21457   1.000
    N2231   N    0.42873   0.20377   0.21457   1.000
    N2232   N    0.79623   0.22497   0.21457   1.000
    N2233   N    0.23793   0.10837   0.61877   1.000
    N2234   N    0.87043   0.76207   0.61877   1.000
    N2235   N    0.89163   0.12957   0.61877   1.000
    C2236   C    0.92270   0.43690   0.46210   1.000
    C2237   C    0.56310   0.48580   0.46210   1.000
    H2238   H    0.11830   0.59760   0.04550   1.000
    H2239   H    0.47930   0.88170   0.04550   1.000
    H2240   H    0.40240   0.52070   0.04550   1.000
    H2241   H    0.40240   0.88170   0.54550   1.000
    H2242   H    0.11830   0.52070   0.54550   1.000
    H2243   H    0.47930   0.59760   0.54550   1.000
    H2244   H    0.88170   0.40240   0.95450   1.000
    H2245   H    0.52070   0.11830   0.95450   1.000
    H2246   H    0.59760   0.47930   0.95450   1.000
    H2247   H    0.26427   0.45163   0.78783   1.000
    H2248   H    0.54837   0.81263   0.78783   1.000
    H2249   H    0.18737   0.73573   0.78783   1.000
    H2250   H    0.78497   0.93093   0.37883   1.000
    H2251   H    0.14597   0.21503   0.37883   1.000
    H2252   H    0.06907   0.85403   0.37883   1.000
    H2253   H    0.06907   0.21503   0.87883   1.000
    H2254   H    0.78497   0.85403   0.87883   1.000
    H2255   H    0.14597   0.93093   0.87883   1.000
    H2256   H    0.54837   0.73573   0.28783   1.000
    H2257   H    0.18737   0.45163   0.28783   1.000
    H2258   H    0.26427   0.81263   0.28783   1.000
    H2259   H    0.93093   0.78497   0.12117   1.000
    H2260   H    0.21503   0.14597   0.12117   1.000
    H2261   H    0.85403   0.06907   0.12117   1.000
    H2262   H    0.45163   0.26427   0.71217   1.000
    H2263   H    0.81263   0.54837   0.71217   1.000
    H2264   H    0.73573   0.18737   0.71217   1.000
    H2265   H    0.73573   0.54837   0.21217   1.000
    H2266   H    0.45163   0.18737   0.21217   1.000
    H2267   H    0.81263   0.26427   0.21217   1.000
    H2268   H    0.21503   0.06907   0.62117   1.000
    H2269   H    0.85403   0.78497   0.62117   1.000
    H2270   H    0.93093   0.14597   0.62117   1.000
    C2271   C    0.07730   0.51420   0.03790   1.000
    C2272   C    0.43690   0.92270   0.03790   1.000
    C2273   C    0.48580   0.56310   0.03790   1.000
    C2274   C    0.48580   0.92270   0.53790   1.000
    C2275   C    0.07730   0.56310   0.53790   1.000
    C2276   C    0.43690   0.51420   0.53790   1.000
    C2277   C    0.92270   0.48580   0.96210   1.000
    C2278   C    0.56310   0.07730   0.96210   1.000
    C2279   C    0.51420   0.43690   0.96210   1.000
    C2280   C    0.18087   0.41063   0.79543   1.000
    C2281   C    0.58937   0.77023   0.79543   1.000
    C2282   C    0.22977   0.81913   0.79543   1.000
    C2283   C    0.74397   0.84753   0.37123   1.000
    C2284   C    0.10357   0.25603   0.37123   1.000
    C2285   C    0.15247   0.89643   0.37123   1.000
    C2286   C    0.15247   0.25603   0.87123   1.000
    C2287   C    0.74397   0.89643   0.87123   1.000
    C2288   C    0.10357   0.84753   0.87123   1.000
    C2289   C    0.58937   0.81913   0.29543   1.000
    C2290   C    0.22977   0.41063   0.29543   1.000
    C2291   C    0.18087   0.77023   0.29543   1.000
    C2292   C    0.84753   0.74397   0.12877   1.000
    C2293   C    0.25603   0.10357   0.12877   1.000
    C2294   C    0.89643   0.15247   0.12877   1.000
    C2295   C    0.41063   0.18087   0.70457   1.000
    C2296   C    0.77023   0.58937   0.70457   1.000
    C2297   C    0.81913   0.22977   0.70457   1.000
    C2298   C    0.81913   0.58937   0.20457   1.000
    C2299   C    0.41063   0.22977   0.20457   1.000
    C2300   C    0.77023   0.18087   0.20457   1.000
    C2301   C    0.25603   0.15247   0.62877   1.000
    C2302   C    0.89643   0.74397   0.62877   1.000
    C2303   C    0.84753   0.10357   0.62877   1.000
loop_
    _geom_bond_atom_site_label_1
    _geom_bond_atom_site_label_2
    _geom_bond_distance
    _geom_bond_site_symmetry_2
    _ccdc_geom_bond_type
    C1206  C1171     1.41245      .   S
    C1206  C1276     1.28209      .   S
    C1206  H1241     0.95170  1_554   S
    C1205  C1170     1.41245      .   S
    C1205  C1275     1.28209      .   S
    C1205  H1240     0.95170  1_554   S
    C1204  C1169     1.41245      .   S
    C1204  C1274     1.28209      .   S
    C1204  H1239     0.95170  1_554   S
    C1169  C1099     1.43713      .   S
    C1169  C1344     1.53367  1_554   S
    C1171  C1101     1.43713      .   S
    C1171  C1346     1.53367  1_554   S
    C1170  C1100     1.43713      .   S
    C1170  C1345     1.53367  1_554   S
    H1233  C1198     0.95170  1_554   S
    H1234  C1199     0.95170  1_554   S
    H1235  C1200     0.95170  1_554   S
    C1338  O184      1.16042      .   S
    C1338  O219      1.51592      .   S
    C1338  C1163     1.53367  1_554   S
    C1340  O186      1.16042      .   S
    C1340  O221      1.51592      .   S
    C1340  C1165     1.53367  1_554   S
    C1339  O185      1.16042      .   S
    C1339  O220      1.51592      .   S
    C1339  C1164     1.53367  1_554   S
    H1311  C1276     0.95056      .   S
    H1310  C1275     0.95056      .   S
    H1309  C1274     0.95056      .   S
    H1134  C1099     0.94932      .   S
    H1135  C1100     0.94932      .   S
    H1136  C1101     0.94932      .   S
    C1274  C1029     1.48748      .   S
    C1276  C1031     1.48748      .   S
    C1275  C1030     1.48748      .   S
    C1101  C1066     1.38515      .   S
    C1100  C1065     1.38515      .   S
    C1099  C1064     1.38515      .   S
    C1065  C1030     1.45249      .   S
    C1065  N553      1.47250      .   S
    C1064  C1029     1.45249      .   S
    C1064  N552      1.47250      .   S
    C1066  C1031     1.45249      .   S
    C1066  N554      1.47250      .   S
    C1030  C808      1.42151      .   S
    C1029  C807      1.42151      .   S
    C1031  C809      1.42151      .   S
    H519   N484      0.88291  1_545   S
    H518   N483      0.88291  1_655   S
    H517   N482      0.88291      .   S
    N483   C995      1.46906      .   S
    N483   C773      1.43139      .   S
    N484   C996      1.46906      .   S
    N484   C774      1.43139      .   S
    N482   C994      1.46906      .   S
    N482   C772      1.43139      .   S
    N552   C994      1.26439      .   S
    N552   H587      0.88080      .   S
    N553   C995      1.26439      .   S
    N553   H588      0.88080      .   S
    N554   C996      1.26439      .   S
    N554   H589      0.88080      .   S
    C808   C773      1.42467      .   S
    C808   C843      1.31172      .   S
    C809   C774      1.42467      .   S
    C809   C844      1.31172      .   S
    C807   C772      1.42467      .   S
    C807   C842      1.31172      .   S
    C994   O155      1.13307      .   S
    C995   O156      1.13307  1_455   S
    C996   O157      1.13307  1_565   S
    C772   C702      1.41715      .   S
    C774   C704      1.41715      .   S
    C773   C703      1.41715      .   S
    H878   C843      0.94698      .   S
    H877   C842      0.94698      .   S
    H879   C844      0.94698      .   S
    O295   C1375     1.27106      .   S
    O294   C1374     1.27106      .   S
    O293   C1373     1.27106      .   S
    C842   C912      1.43040      .   S
    C843   C913      1.43040      .   S
    C844   C914      1.43040      .   S
    O366   C2273     1.14833      .   S
    O365   C2272     1.14833      .   S
    O364   C2271     1.14833      .   S
    C702   H737      0.95051      .   S
    C702   C658      1.37472      .   S
    C703   H738      0.95051  1_455   S
    C703   C659      1.37472      .   S
    C704   H739      0.95051  1_565   S
    C704   C660      1.37472      .   S
    H1634  C1599     0.94598      .   S
    H1635  C1600     0.94598      .   S
    H1636  C1601     0.94598      .   S
    C914   C660      1.44574      .   S
    C914   H961      0.94937      .   S
    C913   C659      1.44574      .   S
    C913   H960      0.94937      .   S
    C912   C658      1.44574      .   S
    C912   H959      0.94937      .   S
    C660   C624      1.47957      .   S
    C658   C622      1.47957      .   S
    C659   C623      1.47957      .   S
    C2273  N2135     1.49425      .   S
    C2273  N2205     1.46938      .   S
    C2272  N2134     1.49425      .   S
    C2272  N2204     1.46938      .   S
    C2271  N2133     1.49425      .   S
    C2271  N2203     1.46938      .   S
    C1375  O256      1.24881      .   S
    C1375  C1410     1.52151      .   S
    C1374  O255      1.24881      .   S
    C1374  C1409     1.52151      .   S
    C1373  O254      1.24881      .   S
    C1373  C1408     1.52151      .   S
    C1600  C1409     1.32211      .   S
    C1600  C1565     1.44525      .   S
    C1599  C1408     1.32211      .   S
    C1599  C1564     1.44525      .   S
    C1601  C1410     1.32211      .   S
    C1601  C1566     1.44525      .   S
    H2169  N2134     0.87878      .   S
    H2168  N2133     0.87878      .   S
    H2170  N2135     0.87878      .   S
    N2133  C1564     1.38928  1_455   S
    N2135  C1566     1.38928      .   S
    N2134  C1565     1.38928  1_565   S
    C622   O83       1.22516      .   S
    C622   O118      1.34273      .   S
    C623   O84       1.22516  1_455   S
    C623   O119      1.34273      .   S
    C624   O85       1.22516  1_565   S
    C624   O120      1.34273      .   S
    C1409  C1444     1.38417      .   S
    C1408  C1443     1.38417      .   S
    C1410  C1445     1.38417      .   S
    H2239  N2204     0.87926      .   S
    H2240  N2205     0.87926      .   S
    H2238  N2203     0.87926      .   S
    N2205  C1917     1.36686      .   S
    N2204  C1916     1.36686      .   S
    N2203  C1915     1.36686      .   S
    C1564  C1529     1.31386      .   S
    C1565  C1530     1.31386      .   S
    C1566  C1531     1.31386      .   S
    C1443  H1479     0.95075      .   S
    C1443  C1476     1.43854      .   S
    C1444  H1480     0.95075      .   S
    C1444  C1477     1.43854      .   S
    C1445  H1481     0.95075      .   S
    C1445  C1478     1.43854      .   S
    C1531  C1478     1.38180      .   S
    C1531  C1671     1.41515      .   S
    C1530  C1477     1.38180      .   S
    C1530  C1670     1.41515  1_545   S
    C1529  C1476     1.38180      .   S
    C1529  C1669     1.41515  1_655   S
    C1915  C1669     1.41521      .   S
    C1915  C1844     1.33862      .   S
    C1916  C1670     1.41521      .   S
    C1916  C1845     1.33862      .   S
    C1917  C1671     1.41521      .   S
    C1917  C1846     1.33862      .   S
    C1476  N1958     1.44860      .   S
    C1477  N1959     1.44860      .   S
    C1478  N1960     1.44860      .   S
    H1881  C1846     0.94802      .   S
    H1880  C1845     0.94802      .   S
    H1879  C1844     0.94802      .   S
    C1671  C1706     1.43562      .   S
    C1670  C1705     1.43562      .   S
    C1669  C1704     1.43562      .   S
    C1844  C1809     1.37475      .   S
    C1845  C1810     1.37475      .   S
    C1846  C1811     1.37475      .   S
    O428   C1945     1.19042      .   S
    O427   C1944     1.19042      .   S
    O429   C1946     1.19042      .   S
    O349   C2119     1.12166      .   S
    O350   C2120     1.12166      .   S
    O351   C2121     1.12166      .   S
    H1994  N1959     0.87778      .   S
    H1995  N1960     0.87778      .   S
    H1993  N1958     0.87778      .   S
    N1958  C2098     1.46454      .   S
    N1960  C2100     1.46454      .   S
    N1959  C2099     1.46454      .   S
    H1797  C1762     0.94808      .   S
    H1795  C1760     0.94808      .   S
    H1796  C1761     0.94808      .   S
    H2085  N2050     0.88301      .   S
    H2086  N2051     0.88301      .   S
    H2084  N2049     0.88301      .   S
    C1704  C1739     1.33681      .   S
    C1704  N2028     1.48041  1_455   S
    C1706  C1741     1.33681      .   S
    C1706  N2030     1.48041      .   S
    C1705  C1740     1.33681      .   S
    C1705  N2029     1.48041  1_565   S
    C1811  C1741     1.42566      .   S
    C1811  C936      1.55459      .   S
    C1810  C1740     1.42566      .   S
    C1810  C935      1.55459      .   S
    C1809  C1739     1.42566      .   S
    C1809  C934      1.55459      .   S
    C1946  O464      1.33972      .   S
    C1946  C1832     1.55459      .   S
    C1945  O463      1.33972      .   S
    C1945  C1831     1.55459      .   S
    C1944  O462      1.33972      .   S
    C1944  C1830     1.55459      .   S
    C2121  N2051     1.44487      .   S
    C2121  N1981     1.46454      .   S
    C2119  N2049     1.44487      .   S
    C2119  N1979     1.46454      .   S
    C2120  N2050     1.44487      .   S
    C2120  N1980     1.46454      .   S
    O443   C936      1.33972      .   S
    O442   C935      1.33972      .   S
    O441   C934      1.33972      .   S
    N2049  C1725     1.48041      .   S
    N2050  C1726     1.48041      .   S
    N2051  C1727     1.48041      .   S
    C1761  C1831     1.42566      .   S
    C1761  C1726     1.33681      .   S
    C1762  C1832     1.42566      .   S
    C1762  C1727     1.33681      .   S
    C1760  C1830     1.42566      .   S
    C1760  C1725     1.33681      .   S
    C1741  H1776     0.94808      .   S
    C1739  H1774     0.94808      .   S
    C1740  H1775     0.94808      .   S
    N2030  C2100     1.44487      .   S
    N2030  H2065     0.88301      .   S
    N2029  C2099     1.44487      .   S
    N2029  H2064     0.88301      .   S
    N2028  C2098     1.44487      .   S
    N2028  H2063     0.88301      .   S
    C2100  O330      1.12166      .   S
    C2099  O329      1.12166      .   S
    C2098  O328      1.12166      .   S
    C936   O408      1.19042      .   S
    C935   O363      1.19042      .   S
    C934   O362      1.19042      .   S
    C1830  C1865     1.37475      .   S
    C1831  C1866     1.37475      .   S
    C1832  C1867     1.37475      .   S
    C1725  C1690     1.43562      .   S
    C1727  C1692     1.43562      .   S
    C1726  C1691     1.43562      .   S
    N1981  H2016     0.87778      .   S
    N1981  C1517     1.44860      .   S
    N1980  H2015     0.87778      .   S
    N1980  C1516     1.44860      .   S
    N1979  H2014     0.87778      .   S
    N1979  C1515     1.44860      .   S
    C1865  H1900     0.94802      .   S
    C1865  C1936     1.33862      .   S
    C1866  H1901     0.94802      .   S
    C1866  C1937     1.33862      .   S
    C1867  H1902     0.94802      .   S
    C1867  C1938     1.33862      .   S
    C1692  C1938     1.41521      .   S
    C1692  C1552     1.41515      .   S
    C1691  C1937     1.41521      .   S
    C1691  C1551     1.41515      .   S
    C1690  C1936     1.41521      .   S
    C1690  C1550     1.41515      .   S
    C1516  C1551     1.38180      .   S
    C1516  C1465     1.43854      .   S
    C1517  C1552     1.38180      .   S
    C1517  C1466     1.43854      .   S
    C1515  C1550     1.38180      .   S
    C1515  C1464     1.43854      .   S
    C1938  N2226     1.36686      .   S
    C1937  N2225     1.36686      .   S
    C1936  N2224     1.36686      .   S
    H688   C1466     0.95075      .   S
    H687   C1465     0.95075      .   S
    H686   C1464     0.95075      .   S
    C1550  C1585     1.31386      .   S
    C1551  C1586     1.31386      .   S
    C1552  C1587     1.31386      .   S
    C1466  C1431     1.38417      .   S
    C1465  C1430     1.38417      .   S
    C1464  C1429     1.38417      .   S
    O142   C644      1.34273      .   S
    O143   C645      1.34273      .   S
    O141   C643      1.34273      .   S
    C1586  N2155     1.38928      .   S
    C1586  C1621     1.44525      .   S
    C1585  N2154     1.38928      .   S
    C1585  C1620     1.44525      .   S
    C1587  N2156     1.38928      .   S
    C1587  C1622     1.44525      .   S
    N2224  H2259     0.87926      .   S
    N2224  C2292     1.46938      .   S
    N2225  H2260     0.87926      .   S
    N2225  C2293     1.46938      .   S
    N2226  H2261     0.87926      .   S
    N2226  C2294     1.46938      .   S
    O106   C645      1.22516      .   S
    O104   C643      1.22516      .   S
    O105   C644      1.22516      .   S
    C1429  C1620     1.32211      .   S
    C1429  C1394     1.52151      .   S
    C1430  C1621     1.32211      .   S
    C1430  C1395     1.52151      .   S
    C1431  C1622     1.32211      .   S
    C1431  C1396     1.52151      .   S
    C645   C681      1.47957      .   S
    C644   C680      1.47957      .   S
    C643   C679      1.47957      .   S
    O74    C1396     1.24881      .   S
    O73    C1395     1.24881      .   S
    O72    C1394     1.24881      .   S
    N2156  H2191     0.87878      .   S
    N2156  C2294     1.49425      .   S
    N2154  H2189     0.87878      .   S
    N2154  C2292     1.49425      .   S
    N2155  H2190     0.87878      .   S
    N2155  C2293     1.49425      .   S
    C1622  H1657     0.94598      .   S
    C1621  H1656     0.94598      .   S
    C1620  H1655     0.94598      .   S
    C1395  O315      1.27106      .   S
    C1396  O316      1.27106      .   S
    C1394  O314      1.27106      .   S
    C2292  O385      1.14833      .   S
    C2293  O386      1.14833      .   S
    C2294  O387      1.14833      .   S
    H982   C406      0.94937      .   S
    H981   C405      0.94937      .   S
    H980   C404      0.94937      .   S
    C679   C404      1.44574      .   S
    C679   C723      1.37472      .   S
    C680   C405      1.44574      .   S
    C680   C724      1.37472      .   S
    C681   C406      1.44574      .   S
    C681   C725      1.37472      .   S
    H758   C723      0.95051      .   S
    H759   C724      0.95051      .   S
    H760   C725      0.95051      .   S
    C405   C864      1.43040      .   S
    C406   C865      1.43040      .   S
    C404   C863      1.43040      .   S
    C723   C793      1.41715      .   S
    C724   C794      1.41715      .   S
    C725   C795      1.41715      .   S
    C863   H898      0.94698      .   S
    C863   C828      1.31172      .   S
    C864   H899      0.94698      .   S
    C864   C829      1.31172      .   S
    C865   H900      0.94698      .   S
    C865   C830      1.31172      .   S
    H608   N573      0.88080  1_655   S
    H610   N575      0.88080  1_545   S
    H609   N574      0.88080      .   S
    C795   C830      1.42467      .   S
    C795   N505      1.43139      .   S
    C794   C829      1.42467      .   S
    C794   N504      1.43139      .   S
    C793   C828      1.42467      .   S
    C793   N503      1.43139      .   S
    O176   C1015     1.13307  1_655   S
    O178   C1017     1.13307  1_545   S
    O177   C1016     1.13307      .   S
    C1017  N575      1.26439      .   S
    C1017  N505      1.46906      .   S
    C1016  N574      1.26439      .   S
    C1016  N504      1.46906      .   S
    C1015  N573      1.26439      .   S
    C1015  N503      1.46906      .   S
    C830   C1052     1.42151      .   S
    C829   C1051     1.42151      .   S
    C828   C1050     1.42151      .   S
    N575   C1087     1.47250      .   S
    N574   C1086     1.47250      .   S
    N573   C1085     1.47250      .   S
    N503   H538      0.88291      .   S
    N505   H540      0.88291      .   S
    N504   H539      0.88291      .   S
    C1052  C1087     1.45249      .   S
    C1052  C1297     1.48748      .   S
    C1051  C1086     1.45249      .   S
    C1051  C1296     1.48748      .   S
    C1050  C1085     1.45249      .   S
    C1050  C1295     1.48748      .   S
    C1086  C1121     1.38515      .   S
    C1085  C1120     1.38515      .   S
    C1087  C1122     1.38515      .   S
    C1120  H1155     0.94932  1_455   S
    C1120  C1190     1.43713      .   S
    C1121  H1156     0.94932      .   S
    C1121  C1191     1.43713      .   S
    C1122  H1157     0.94932  1_565   S
    C1122  C1192     1.43713      .   S
    C1296  H1331     0.95056      .   S
    C1296  C1226     1.28209      .   S
    C1297  H1332     0.95056      .   S
    C1297  C1227     1.28209      .   S
    C1295  H1330     0.95056      .   S
    C1295  C1225     1.28209      .   S
    O242   C1361     1.51592      .   S
    O241   C1360     1.51592      .   S
    O240   C1359     1.51592      .   S
    O207   C1361     1.16042      .   S
    O206   C1360     1.16042      .   S
    O205   C1359     1.16042      .   S
    C1359  C1184     1.53367      .   S
    C1360  C1185     1.53367      .   S
    C1361  C1186     1.53367      .   S
    H1256  C1221     0.95170      .   S
    H1255  C1220     0.95170      .   S
    H1254  C1219     0.95170      .   S
    C1190  C1225     1.41245      .   S
    C1190  C1365     1.53367      .   S
    C1191  C1226     1.41245      .   S
    C1191  C1366     1.53367      .   S
    C1192  C1227     1.41245      .   S
    C1192  C1367     1.53367      .   S
    C1226  H1261     0.95170      .   S
    C1227  H1262     0.95170      .   S
    C1225  H1260     0.95170      .   S
    C1220  C1185     1.41245      .   S
    C1220  C1290     1.28209      .   S
    C1221  C1186     1.41245      .   S
    C1221  C1291     1.28209      .   S
    C1219  C1184     1.41245      .   S
    C1219  C1289     1.28209      .   S
    C1186  C1116     1.43713      .   S
    C1185  C1115     1.43713      .   S
    C1184  C1114     1.43713      .   S
    C1367  O213      1.16042  1_565   S
    C1367  O248      1.51592      .   S
    C1366  O212      1.16042      .   S
    C1366  O247      1.51592      .   S
    C1365  O211      1.16042  1_455   S
    C1365  O246      1.51592      .   S
    H1326  C1291     0.95056      .   S
    H1325  C1290     0.95056      .   S
    H1324  C1289     0.95056      .   S
    H1151  C1116     0.94932      .   S
    H1150  C1115     0.94932      .   S
    H1149  C1114     0.94932      .   S
    C1291  C1046     1.48748      .   S
    C1290  C1045     1.48748      .   S
    C1289  C1044     1.48748      .   S
    C1114  C1079     1.38515      .   S
    C1115  C1080     1.38515      .   S
    C1116  C1081     1.38515      .   S
    C1081  C1046     1.45249      .   S
    C1081  N569      1.47250      .   S
    C1079  C1044     1.45249      .   S
    C1079  N567      1.47250      .   S
    C1080  C1045     1.45249      .   S
    C1080  N568      1.47250      .   S
    C1044  C822      1.42151  1_545   S
    C1045  C823      1.42151  1_655   S
    C1046  C824      1.42151      .   S
    H532   N497      0.88291      .   S
    H533   N498      0.88291      .   S
    H534   N499      0.88291      .   S
    N498   C1010     1.46906  1_455   S
    N498   C788      1.43139      .   S
    N497   C1009     1.46906  1_565   S
    N497   C787      1.43139      .   S
    N499   C1011     1.46906      .   S
    N499   C789      1.43139      .   S
    N569   C1011     1.26439      .   S
    N569   H604      0.88080      .   S
    N568   C1010     1.26439      .   S
    N568   H603      0.88080      .   S
    N567   C1009     1.26439      .   S
    N567   H602      0.88080      .   S
    C824   C789      1.42467      .   S
    C824   C859      1.31172      .   S
    C823   C788      1.42467      .   S
    C823   C858      1.31172      .   S
    C822   C787      1.42467      .   S
    C822   C857      1.31172      .   S
    C1009  O170      1.13307      .   S
    C1010  O171      1.13307      .   S
    C1011  O172      1.13307      .   S
    C788   C718      1.41715      .   S
    C787   C717      1.41715      .   S
    C789   C719      1.41715      .   S
    H894   C859      0.94698      .   S
    H893   C858      0.94698      .   S
    H892   C857      0.94698      .   S
    O322   C1402     1.27106      .   S
    O320   C1400     1.27106      .   S
    O321   C1401     1.27106      .   S
    C857   C398      1.43040      .   S
    C858   C399      1.43040      .   S
    C859   C400      1.43040      .   S
    O391   C2298     1.14833      .   S
    O392   C2299     1.14833      .   S
    O393   C2300     1.14833      .   S
    C717   H752      0.95051      .   S
    C717   C673      1.37472      .   S
    C719   H754      0.95051      .   S
    C719   C675      1.37472      .   S
    C718   H753      0.95051      .   S
    C718   C674      1.37472      .   S
    H1661  C1626     0.94598      .   S
    H1662  C1627     0.94598      .   S
    H1663  C1628     0.94598      .   S
    C399   C674      1.44574      .   S
    C399   H975      0.94937      .   S
    C398   C673      1.44574      .   S
    C398   H974      0.94937      .   S
    C400   C675      1.44574      .   S
    C400   H976      0.94937      .   S
    C675   C639      1.47957      .   S
    C673   C637      1.47957      .   S
    C674   C638      1.47957      .   S
    C2300  N2162     1.49425      .   S
    C2300  N2232     1.46938      .   S
    C2299  N2161     1.49425      .   S
    C2299  N2231     1.46938      .   S
    C2298  N2160     1.49425      .   S
    C2298  N2230     1.46938      .   S
    C1401  O286      1.24881      .   S
    C1401  C1436     1.52151      .   S
    C1402  O287      1.24881      .   S
    C1402  C1437     1.52151      .   S
    C1400  O285      1.24881      .   S
    C1400  C1435     1.52151      .   S
    C1626  C1435     1.32211      .   S
    C1626  C1591     1.44525      .   S
    C1627  C1436     1.32211      .   S
    C1627  C1592     1.44525      .   S
    C1628  C1437     1.32211      .   S
    C1628  C1593     1.44525      .   S
    H2197  N2162     0.87878      .   S
    H2196  N2161     0.87878      .   S
    H2195  N2160     0.87878      .   S
    N2162  C1593     1.38928      .   S
    N2161  C1592     1.38928      .   S
    N2160  C1591     1.38928      .   S
    C638   O99       1.22516      .   S
    C638   O68       1.34273      .   S
    C639   O100      1.22516      .   S
    C639   O137      1.34273      .   S
    C637   O98       1.22516      .   S
    C637   O67       1.34273      .   S
    C1435  C1470     1.38417      .   S
    C1437  C1472     1.38417      .   S
    C1436  C1471     1.38417      .   S
    H2266  N2231     0.87926      .   S
    H2265  N2230     0.87926      .   S
    H2267  N2232     0.87926      .   S
    N2232  C926      1.36686      .   S
    N2230  C924      1.36686      .   S
    N2231  C925      1.36686      .   S
    C1593  C1558     1.31386      .   S
    C1592  C1557     1.31386      .   S
    C1591  C1556     1.31386      .   S
    C1470  H692      0.95075      .   S
    C1470  C1521     1.43854      .   S
    C1472  H694      0.95075      .   S
    C1472  C1523     1.43854      .   S
    C1471  H693      0.95075      .   S
    C1471  C1522     1.43854      .   S
    C1558  C1523     1.38180      .   S
    C1558  C1698     1.41515      .   S
    C1556  C1521     1.38180      .   S
    C1556  C1696     1.41515      .   S
    C1557  C1522     1.38180      .   S
    C1557  C1697     1.41515      .   S
    C925   C1697     1.41521      .   S
    C925   C1872     1.33862      .   S
    C924   C1696     1.41521      .   S
    C924   C1871     1.33862      .   S
    C926   C1698     1.41521      .   S
    C926   C1873     1.33862      .   S
    C1522  N1986     1.44860      .   S
    C1521  N1985     1.44860      .   S
    C1523  N1987     1.44860      .   S
    H1906  C1871     0.94802      .   S
    H1907  C1872     0.94802      .   S
    H1908  C1873     0.94802      .   S
    C1697  C1732     1.43562      .   S
    C1698  C1733     1.43562      .   S
    C1696  C1731     1.43562      .   S
    C1873  C1838     1.37475      .   S
    C1872  C1837     1.37475      .   S
    C1871  C1836     1.37475      .   S
    O426   C1943     1.19042      .   S
    O425   C1942     1.19042      .   S
    O424   C1941     1.19042      .   S
    O348   C2118     1.12166      .   S
    O347   C2117     1.12166      .   S
    O346   C2116     1.12166      .   S
    H2022  N1987     0.87778      .   S
    H2021  N1986     0.87778      .   S
    H2020  N1985     0.87778      .   S
    N1986  C2126     1.46454      .   S
    N1985  C2125     1.46454      .   S
    N1987  C2127     1.46454      .   S
    H1794  C1759     0.94808      .   S
    H1793  C1758     0.94808      .   S
    H1792  C1757     0.94808      .   S
    H2083  N2048     0.88301      .   S
    H2082  N2047     0.88301      .   S
    H2081  N2046     0.88301      .   S
    C1733  C1768     1.33681      .   S
    C1733  N2057     1.48041      .   S
    C1731  C1766     1.33681      .   S
    C1731  N2055     1.48041      .   S
    C1732  C1767     1.33681      .   S
    C1732  N2056     1.48041      .   S
    C1837  C1767     1.42566      .   S
    C1837  C1951     1.55459      .   S
    C1838  C1768     1.42566      .   S
    C1838  C1952     1.55459      .   S
    C1836  C1766     1.42566      .   S
    C1836  C1950     1.55459      .   S
    C1943  O461      1.33972      .   S
    C1943  C1829     1.55459      .   S
    C1942  O460      1.33972      .   S
    C1942  C1828     1.55459      .   S
    C1941  O459      1.33972      .   S
    C1941  C1827     1.55459      .   S
    C2118  N2048     1.44487      .   S
    C2118  N1978     1.46454      .   S
    C2117  N2047     1.44487      .   S
    C2117  N1977     1.46454      .   S
    C2116  N2046     1.44487      .   S
    C2116  N1976     1.46454      .   S
    O468   C1950     1.33972      .   S
    O469   C1951     1.33972      .   S
    O470   C1952     1.33972      .   S
    N2047  C1723     1.48041      .   S
    N2048  C1724     1.48041      .   S
    N2046  C1722     1.48041      .   S
    C1757  C1827     1.42566      .   S
    C1757  C1722     1.33681      .   S
    C1759  C1829     1.42566      .   S
    C1759  C1724     1.33681      .   S
    C1758  C1828     1.42566      .   S
    C1758  C1723     1.33681      .   S
    C1766  H1801     0.94808      .   S
    C1768  H1803     0.94808      .   S
    C1767  H1802     0.94808      .   S
    N2055  C2125     1.44487      .   S
    N2055  H2090     0.88301      .   S
    N2056  C2126     1.44487      .   S
    N2056  H2091     0.88301      .   S
    N2057  C2127     1.44487      .   S
    N2057  H2092     0.88301      .   S
    C2127  O357      1.12166      .   S
    C2125  O355      1.12166      .   S
    C2126  O356      1.12166      .   S
    C1950  O433      1.19042      .   S
    C1951  O434      1.19042      .   S
    C1952  O435      1.19042      .   S
    C1827  C1862     1.37475      .   S
    C1829  C1864     1.37475      .   S
    C1828  C1863     1.37475      .   S
    C1724  C1689     1.43562      .   S
    C1723  C1688     1.43562      .   S
    C1722  C1687     1.43562      .   S
    N1977  H2012     0.87778      .   S
    N1977  C1513     1.44860      .   S
    N1976  H2011     0.87778      .   S
    N1976  C1512     1.44860      .   S
    N1978  H2013     0.87778      .   S
    N1978  C1514     1.44860      .   S
    C1862  H1897     0.94802      .   S
    C1862  C1933     1.33862      .   S
    C1863  H1898     0.94802      .   S
    C1863  C1934     1.33862      .   S
    C1864  H1899     0.94802      .   S
    C1864  C1935     1.33862      .   S
    C1688  C1934     1.41521      .   S
    C1688  C1548     1.41515      .   S
    C1687  C1933     1.41521      .   S
    C1687  C1547     1.41515      .   S
    C1689  C1935     1.41521      .   S
    C1689  C1549     1.41515      .   S
    C1513  C1548     1.38180      .   S
    C1513  C1462     1.43854      .   S
    C1514  C1549     1.38180      .   S
    C1514  C1463     1.43854      .   S
    C1512  C1547     1.38180      .   S
    C1512  C1461     1.43854      .   S
    C1934  N2222     1.36686      .   S
    C1933  N2221     1.36686      .   S
    C1935  N2223     1.36686      .   S
    H685   C1463     0.95075      .   S
    H683   C1461     0.95075      .   S
    H684   C1462     0.95075      .   S
    C1548  C1583     1.31386      .   S
    C1547  C1582     1.31386      .   S
    C1549  C1584     1.31386      .   S
    C1461  C1426     1.38417      .   S
    C1462  C1427     1.38417      .   S
    C1463  C1428     1.38417      .   S
    O124   C628      1.34273      .   S
    O125   C629      1.34273      .   S
    O126   C630      1.34273      .   S
    C1584  N2153     1.38928      .   S
    C1584  C1619     1.44525      .   S
    C1583  N2152     1.38928      .   S
    C1583  C1618     1.44525      .   S
    C1582  N2151     1.38928      .   S
    C1582  C1617     1.44525      .   S
    N2221  H2256     0.87926      .   S
    N2221  C2289     1.46938      .   S
    N2223  H2258     0.87926      .   S
    N2223  C2291     1.46938      .   S
    N2222  H2257     0.87926      .   S
    N2222  C2290     1.46938      .   S
    O89    C628      1.22516      .   S
    O90    C629      1.22516      .   S
    O91    C630      1.22516      .   S
    C1428  C1619     1.32211      .   S
    C1428  C1393     1.52151      .   S
    C1426  C1617     1.32211      .   S
    C1426  C1391     1.52151      .   S
    C1427  C1618     1.32211      .   S
    C1427  C1392     1.52151      .   S
    C629   C665      1.47957      .   S
    C630   C666      1.47957      .   S
    C628   C664      1.47957      .   S
    O272   C1391     1.24881      .   S
    O273   C1392     1.24881      .   S
    O71    C1393     1.24881      .   S
    N2151  H2186     0.87878      .   S
    N2151  C2289     1.49425      .   S
    N2152  H2187     0.87878      .   S
    N2152  C2290     1.49425      .   S
    N2153  H2188     0.87878      .   S
    N2153  C2291     1.49425      .   S
    C1619  H1654     0.94598      .   S
    C1618  H1653     0.94598      .   S
    C1617  H1652     0.94598      .   S
    C1392  O312      1.27106      .   S
    C1391  O311      1.27106      .   S
    C1393  O313      1.27106      .   S
    C2289  O382      1.14833      .   S
    C2291  O384      1.14833      .   S
    C2290  O383      1.14833      .   S
    H965   C918      0.94937      .   S
    H966   C919      0.94937      .   S
    H967   C920      0.94937      .   S
    C666   C920      1.44574      .   S
    C666   C710      1.37472      .   S
    C665   C919      1.44574      .   S
    C665   C709      1.37472      .   S
    C664   C918      1.44574      .   S
    C664   C708      1.37472      .   S
    C919   C849      1.43040      .   S
    C918   C848      1.43040      .   S
    C920   C850      1.43040      .   S
    H745   C710      0.95051      .   S
    H744   C709      0.95051      .   S
    H743   C708      0.95051      .   S
    C710   C780      1.41715      .   S
    C709   C779      1.41715      .   S
    C708   C778      1.41715      .   S
    C850   H885      0.94698      .   S
    C850   C815      1.31172      .   S
    C849   H884      0.94698      .   S
    C849   C814      1.31172      .   S
    C848   H883      0.94698      .   S
    C848   C813      1.31172      .   S
    H595   N560      0.88080      .   S
    H593   N558      0.88080      .   S
    H594   N559      0.88080      .   S
    C778   C813      1.42467      .   S
    C778   N488      1.43139      .   S
    C779   C814      1.42467      .   S
    C779   N489      1.43139      .   S
    C780   C815      1.42467      .   S
    C780   N490      1.43139      .   S
    O161   C1000     1.13307      .   S
    O163   C1002     1.13307      .   S
    O162   C1001     1.13307      .   S
    C1002  N560      1.26439      .   S
    C1002  N490      1.46906      .   S
    C1001  N559      1.26439      .   S
    C1001  N489      1.46906  1_565   S
    C1000  N558      1.26439      .   S
    C1000  N488      1.46906  1_455   S
    C814   C1036     1.42151  1_545   S
    C813   C1035     1.42151  1_655   S
    C815   C1037     1.42151      .   S
    N560   C1072     1.47250      .   S
    N559   C1071     1.47250      .   S
    N558   C1070     1.47250      .   S
    N488   H523      0.88291      .   S
    N489   H524      0.88291      .   S
    N490   H525      0.88291      .   S
    C1035  C1070     1.45249      .   S
    C1035  C1280     1.48748      .   S
    C1036  C1071     1.45249      .   S
    C1036  C1281     1.48748      .   S
    C1037  C1072     1.45249      .   S
    C1037  C1282     1.48748      .   S
    C1072  C1107     1.38515      .   S
    C1071  C1106     1.38515      .   S
    C1070  C1105     1.38515      .   S
    C1106  H1141     0.94932      .   S
    C1106  C1176     1.43713      .   S
    C1107  H1142     0.94932      .   S
    C1107  C1177     1.43713      .   S
    C1105  H1140     0.94932      .   S
    C1105  C1175     1.43713      .   S
    C1282  H1317     0.95056      .   S
    C1282  C1212     1.28209      .   S
    C1281  H1316     0.95056      .   S
    C1281  C1211     1.28209      .   S
    C1280  H1315     0.95056      .   S
    C1280  C1210     1.28209      .   S
    O237   C1356     1.51592      .   S
    O238   C1357     1.51592      .   S
    O239   C1358     1.51592      .   S
    O202   C1356     1.16042  1_565   S
    O203   C1357     1.16042      .   S
    O204   C1358     1.16042  1_455   S
    C1358  C1183     1.53367      .   S
    C1357  C1182     1.53367      .   S
    C1356  C1181     1.53367      .   S
    H1251  C1216     0.95170      .   S
    H1252  C1217     0.95170      .   S
    H1253  C1218     0.95170      .   S
    C1175  C1210     1.41245      .   S
    C1175  C1350     1.53367      .   S
    C1176  C1211     1.41245      .   S
    C1176  C1351     1.53367      .   S
    C1177  C1212     1.41245      .   S
    C1177  C1352     1.53367      .   S
    C1210  H1245     0.95170      .   S
    C1211  H1246     0.95170      .   S
    C1212  H1247     0.95170      .   S
    C1217  C1182     1.41245      .   S
    C1217  C1287     1.28209      .   S
    C1216  C1181     1.41245      .   S
    C1216  C1286     1.28209      .   S
    C1218  C1183     1.41245      .   S
    C1218  C1288     1.28209      .   S
    C1183  C1113     1.43713      .   S
    C1181  C1111     1.43713      .   S
    C1182  C1112     1.43713      .   S
    C1351  O197      1.16042      .   S
    C1351  O232      1.51592      .   S
    C1350  O196      1.16042      .   S
    C1350  O231      1.51592      .   S
    C1352  O198      1.16042      .   S
    C1352  O233      1.51592      .   S
    H1321  C1286     0.95056      .   S
    H1323  C1288     0.95056      .   S
    H1322  C1287     0.95056      .   S
    H1146  C1111     0.94932  1_565   S
    H1147  C1112     0.94932      .   S
    H1148  C1113     0.94932  1_455   S
    C1286  C1041     1.48748      .   S
    C1287  C1042     1.48748      .   S
    C1288  C1043     1.48748      .   S
    C1112  C1077     1.38515      .   S
    C1113  C1078     1.38515      .   S
    C1111  C1076     1.38515      .   S
    C1078  C1043     1.45249      .   S
    C1078  N566      1.47250      .   S
    C1077  C1042     1.45249      .   S
    C1077  N565      1.47250      .   S
    C1076  C1041     1.45249      .   S
    C1076  N564      1.47250      .   S
    C1041  C819      1.42151      .   S
    C1042  C820      1.42151      .   S
    C1043  C821      1.42151      .   S
    H530   N495      0.88291      .   S
    H529   N494      0.88291      .   S
    H531   N496      0.88291      .   S
    N495   C1007     1.46906      .   S
    N495   C785      1.43139      .   S
    N496   C1008     1.46906      .   S
    N496   C786      1.43139      .   S
    N494   C1006     1.46906      .   S
    N494   C784      1.43139      .   S
    N565   C1007     1.26439      .   S
    N565   H600      0.88080      .   S
    N564   C1006     1.26439      .   S
    N564   H599      0.88080  1_545   S
    N566   C1008     1.26439      .   S
    N566   H601      0.88080  1_655   S
    C820   C785      1.42467      .   S
    C820   C855      1.31172      .   S
    C819   C784      1.42467      .   S
    C819   C854      1.31172      .   S
    C821   C786      1.42467      .   S
    C821   C856      1.31172      .   S
    C1008  O169      1.13307  1_655   S
    C1006  O167      1.13307  1_545   S
    C1007  O168      1.13307      .   S
    C786   C716      1.41715      .   S
    C785   C715      1.41715      .   S
    C784   C714      1.41715      .   S
    H889   C854      0.94698      .   S
    H891   C856      0.94698      .   S
    H890   C855      0.94698      .   S
    O307   C1387     1.27106      .   S
    O306   C1386     1.27106      .   S
    O305   C1385     1.27106      .   S
    C854   C395      1.43040      .   S
    C856   C397      1.43040      .   S
    C855   C396      1.43040      .   S
    O378   C2285     1.14833      .   S
    O377   C2284     1.14833      .   S
    O376   C2283     1.14833      .   S
    C716   H751      0.95051      .   S
    C716   C672      1.37472      .   S
    C715   H750      0.95051      .   S
    C715   C671      1.37472      .   S
    C714   H749      0.95051      .   S
    C714   C670      1.37472      .   S
    H1647  C1612     0.94598      .   S
    H1646  C1611     0.94598      .   S
    H1648  C1613     0.94598      .   S
    C397   C672      1.44574      .   S
    C397   H973      0.94937      .   S
    C396   C671      1.44574      .   S
    C396   H972      0.94937      .   S
    C395   C670      1.44574      .   S
    C395   H971      0.94937      .   S
    C671   C635      1.47957      .   S
    C672   C636      1.47957      .   S
    C670   C634      1.47957      .   S
    C2284  N2146     1.49425      .   S
    C2284  N2216     1.46938      .   S
    C2285  N2147     1.49425      .   S
    C2285  N2217     1.46938      .   S
    C2283  N2145     1.49425      .   S
    C2283  N2215     1.46938      .   S
    C1385  O266      1.24881      .   S
    C1385  C1420     1.52151      .   S
    C1386  O267      1.24881      .   S
    C1386  C1421     1.52151      .   S
    C1387  O268      1.24881      .   S
    C1387  C1422     1.52151      .   S
    C1611  C1420     1.32211      .   S
    C1611  C1576     1.44525      .   S
    C1613  C1422     1.32211      .   S
    C1613  C1578     1.44525      .   S
    C1612  C1421     1.32211      .   S
    C1612  C1577     1.44525      .   S
    H2180  N2145     0.87878      .   S
    H2181  N2146     0.87878      .   S
    H2182  N2147     0.87878      .   S
    N2147  C1578     1.38928      .   S
    N2146  C1577     1.38928      .   S
    N2145  C1576     1.38928      .   S
    C634   O95       1.22516      .   S
    C634   O130      1.34273      .   S
    C636   O97       1.22516      .   S
    C636   O66       1.34273      .   S
    C635   O96       1.22516      .   S
    C635   O65       1.34273      .   S
    C1422  C1457     1.38417      .   S
    C1421  C1456     1.38417      .   S
    C1420  C1455     1.38417      .   S
    H2251  N2216     0.87926      .   S
    H2252  N2217     0.87926      .   S
    H2250  N2215     0.87926      .   S
    N2216  C1928     1.36686      .   S
    N2217  C1929     1.36686      .   S
    N2215  C1927     1.36686      .   S
    C1577  C1542     1.31386      .   S
    C1576  C1541     1.31386      .   S
    C1578  C1543     1.31386      .   S
    C1456  H1492     0.95075      .   S
    C1456  C1507     1.43854      .   S
    C1455  H1491     0.95075      .   S
    C1455  C1506     1.43854      .   S
    C1457  H1493     0.95075      .   S
    C1457  C1508     1.43854      .   S
    C1542  C1507     1.38180      .   S
    C1542  C1682     1.41515      .   S
    C1541  C1506     1.38180      .   S
    C1541  C1681     1.41515      .   S
    C1543  C1508     1.38180      .   S
    C1543  C1683     1.41515      .   S
    C1928  C1682     1.41521      .   S
    C1928  C1857     1.33862      .   S
    C1927  C1681     1.41521      .   S
    C1927  C1856     1.33862      .   S
    C1929  C1683     1.41521      .   S
    C1929  C1858     1.33862      .   S
    C1508  N1972     1.44860      .   S
    C1507  N1971     1.44860      .   S
    C1506  N1970     1.44860      .   S
    H1893  C1858     0.94802      .   S
    H1892  C1857     0.94802      .   S
    H1891  C1856     0.94802      .   S
    C1683  C1718     1.43562      .   S
    C1682  C1717     1.43562      .   S
    C1681  C1716     1.43562      .   S
    C1856  C1821     1.37475      .   S
    C1858  C1823     1.37475      .   S
    C1857  C1822     1.37475      .   S
    O12    C54       1.19042      .   S
    O361   C933      1.19042      .   S
    O136   C932      1.19042      .   S
    O10    C27       1.12166      .   S
    O291   C2061     1.12166      .   S
    O292   C2062     1.12166      .   S
    H2007  N1972     0.87778      .   S
    H2005  N1970     0.87778      .   S
    H2006  N1971     0.87778      .   S
    N1970  C2110     1.46454      .   S
    N1971  C2111     1.46454      .   S
    N1972  C2112     1.46454      .   S
    H49    C48       0.94808      .   S
    H1738  C1703     0.94808      .   S
    H1737  C1702     0.94808      .   S
    H2027  N1992     0.88301      .   S
    H58    N57       0.88301      .   S
    H2026  N1991     0.88301      .   S
    C1718  C1753     1.33681      .   S
    C1718  N2042     1.48041      .   S
    C1716  C1751     1.33681      .   S
    C1716  N2040     1.48041      .   S
    C1717  C1752     1.33681      .   S
    C1717  N2041     1.48041      .   S
    C1823  C1753     1.42566      .   S
    C1823  C948      1.55459      .   S
    C1821  C1751     1.42566      .   S
    C1821  C946      1.55459      .   S
    C1822  C1752     1.42566      .   S
    C1822  C947      1.55459      .   S
    C54    O13       1.33972      .   S
    C54    C50       1.55459      .   S
    C932   O134      1.33972      .   S
    C932   C1772     1.55459      .   S
    C933   O135      1.33972      .   S
    C933   C1773     1.55459      .   S
    C27    N57       1.44487      .   S
    C27    N55       1.46454      .   S
    C2061  N1991     1.44487      .   S
    C2061  N930      1.46454      .   S
    C2062  N1992     1.44487      .   S
    C2062  N931      1.46454      .   S
    O455   C948      1.33972      .   S
    O454   C947      1.33972      .   S
    O453   C946      1.33972      .   S
    N1992  C1668     1.48041      .   S
    N1991  C1667     1.48041  1_455   S
    N57    C47       1.48041  1_565   S
    C48    C50       1.42566      .   S
    C48    C47       1.33681      .   S
    C1702  C1772     1.42566      .   S
    C1702  C1667     1.33681      .   S
    C1703  C1773     1.42566      .   S
    C1703  C1668     1.33681      .   S
    C1751  H1786     0.94808      .   S
    C1752  H1787     0.94808      .   S
    C1753  H1788     0.94808      .   S
    N2040  C2110     1.44487      .   S
    N2040  H2075     0.88301      .   S
    N2041  C2111     1.44487      .   S
    N2041  H2076     0.88301      .   S
    N2042  C2112     1.44487      .   S
    N2042  H2077     0.88301      .   S
    C2112  O342      1.12166      .   S
    C2111  O341      1.12166      .   S
    C2110  O340      1.12166      .   S
    C948   O420      1.19042      .   S
    C947   O419      1.19042      .   S
    C946   O418      1.19042      .   S
    C50    C51       1.37475      .   S
    C1773  C1808     1.37475      .   S
    C1772  C1807     1.37475      .   S
    C47    C46       1.43562      .   S
    C1667  C1632     1.43562      .   S
    C1668  C1633     1.43562      .   S
    N930   H1956     0.87778      .   S
    N930   C700      1.44860      .   S
    N931   H1957     0.87778      .   S
    N931   C701      1.44860      .   S
    N55    H56       0.87778      .   S
    N55    C41       1.44860      .   S
    C1808  H1843     0.94802      .   S
    C1808  C1878     1.33862      .   S
    C1807  H1842     0.94802      .   S
    C1807  C1877     1.33862      .   S
    C51    H52       0.94802      .   S
    C51    C53       1.33862      .   S
    C1632  C1877     1.41521      .   S
    C1632  C698      1.41515  1_655   S
    C1633  C1878     1.41521      .   S
    C1633  C699      1.41515      .   S
    C46    C53       1.41521      .   S
    C46    C42       1.41515  1_545   S
    C41    C42       1.38180      .   S
    C41    C39       1.43854      .   S
    C700   C698      1.38180      .   S
    C700   C1406     1.43854      .   S
    C701   C699      1.38180      .   S
    C701   C1407     1.43854      .   S
    C1878  N2167     1.36686      .   S
    C53    N61       1.36686      .   S
    C1877  N2166     1.36686      .   S
    H40    C39       0.95075      .   S
    H1442  C1407     0.95075      .   S
    H1441  C1406     0.95075      .   S
    C698   C1527     1.31386      .   S
    C42    C43       1.31386      .   S
    C699   C1528     1.31386      .   S
    C1406  C1371     1.38417      .   S
    C1407  C1372     1.38417      .   S
    C39    C38       1.38417      .   S
    O117   C621      1.34273      .   S
    O116   C620      1.34273      .   S
    O115   C619      1.34273      .   S
    C1527  N2096     1.38928  1_455   S
    C1527  C1562     1.44525      .   S
    C1528  N2097     1.38928      .   S
    C1528  C1563     1.44525      .   S
    C43    N59       1.38928  1_565   S
    C43    C44       1.44525      .   S
    N2166  H2201     0.87926      .   S
    N2166  C2236     1.46938      .   S
    N2167  H2202     0.87926      .   S
    N2167  C2237     1.46938      .   S
    N61    H62       0.87926      .   S
    N61    C63       1.46938      .   S
    O81    C620      1.22516  1_565   S
    O82    C621      1.22516  1_455   S
    O80    C619      1.22516      .   S
    C1372  C1563     1.32211      .   S
    C1372  C1337     1.52151      .   S
    C38    C44       1.32211      .   S
    C38    C37       1.52151      .   S
    C1371  C1562     1.32211      .   S
    C1371  C1336     1.52151      .   S
    C619   C655      1.47957      .   S
    C621   C657      1.47957      .   S
    C620   C656      1.47957      .   S
    O218   C1337     1.24881      .   S
    O8     C37       1.24881      .   S
    O217   C1336     1.24881      .   S
    N59    H60       0.87878      .   S
    N59    C63       1.49425      .   S
    N2096  H2131     0.87878      .   S
    N2096  C2236     1.49425      .   S
    N2097  H2132     0.87878      .   S
    N2097  C2237     1.49425      .   S
    C44    H45       0.94598      .   S
    C1563  H1598     0.94598      .   S
    C1562  H1597     0.94598      .   S
    C1336  O252      1.27106      .   S
    C37    O9        1.27106      .   S
    C1337  O253      1.27106      .   S
    C63    O11       1.14833      .   S
    C2236  O326      1.14833      .   S
    C2237  O327      1.14833      .   S
    H958   C911      0.94937      .   S
    H957   C910      0.94937      .   S
    H956   C909      0.94937      .   S
    C655   C909      1.44574      .   S
    C655   C649      1.37472      .   S
    C657   C911      1.44574      .   S
    C657   C651      1.37472      .   S
    C656   C910      1.44574      .   S
    C656   C650      1.37472      .   S
    H735   C650      0.95051  1_565   S
    H734   C649      0.95051      .   S
    C911   C841      1.43040      .   S
    C909   C839      1.43040      .   S
    C910   C840      1.43040      .   S
    H736   C651      0.95051  1_455   S
    C649   C769      1.41715      .   S
    C651   C771      1.41715      .   S
    C650   C770      1.41715      .   S
    C841   H876      0.94698      .   S
    C841   C806      1.31172      .   S
    C839   H874      0.94698      .   S
    C839   C804      1.31172      .   S
    C840   H875      0.94698      .   S
    C840   C805      1.31172      .   S
    H584   N549      0.88080      .   S
    H585   N550      0.88080      .   S
    H586   N551      0.88080      .   S
    C769   C804      1.42467      .   S
    C769   N479      1.43139      .   S
    C770   C805      1.42467      .   S
    C770   N480      1.43139      .   S
    C771   C806      1.42467      .   S
    C771   N481      1.43139      .   S
    O152   C991      1.13307      .   S
    O153   C992      1.13307  1_565   S
    O154   C993      1.13307  1_455   S
    C993   N551      1.26439      .   S
    C993   N481      1.46906      .   S
    C992   N550      1.26439      .   S
    C992   N480      1.46906      .   S
    C991   N549      1.26439      .   S
    C991   N479      1.46906      .   S
    C806   C1028     1.42151      .   S
    C804   C1026     1.42151      .   S
    C805   C1027     1.42151      .   S
    N549   C1061     1.47250      .   S
    N551   C1063     1.47250      .   S
    N550   C1062     1.47250      .   S
    N481   H516      0.88291  1_655   S
    N480   H515      0.88291  1_545   S
    N479   H514      0.88291      .   S
    C1028  C1063     1.45249      .   S
    C1028  C1273     1.48748      .   S
    C1027  C1062     1.45249      .   S
    C1027  C1272     1.48748      .   S
    C1026  C1061     1.45249      .   S
    C1026  C1271     1.48748      .   S
    C1063  C1098     1.38515      .   S
    C1061  C1096     1.38515      .   S
    C1062  C1097     1.38515      .   S
    C1096  H1131     0.94932      .   S
    C1096  C1166     1.43713      .   S
    C1097  H1132     0.94932      .   S
    C1097  C1167     1.43713      .   S
    C1098  H1133     0.94932      .   S
    C1098  C1168     1.43713      .   S
    C1272  H1307     0.95056      .   S
    C1272  C1202     1.28209      .   S
    C1273  H1308     0.95056      .   S
    C1273  C1203     1.28209      .   S
    C1271  H1306     0.95056      .   S
    C1271  C1201     1.28209      .   S
    O7     C36       1.51592      .   S
    O182   C1301     1.51592      .   S
    O183   C1302     1.51592      .   S
    O6     C36       1.16042      .   S
    O147   C1301     1.16042      .   S
    O148   C1302     1.16042      .   S
    C36    C31       1.53367      .   S
    C1301  C1126     1.53367      .   S
    C1302  C1127     1.53367      .   S
    H1197  C1162     0.95170      .   S
    H1196  C1161     0.95170      .   S
    H33    C32       0.95170      .   S
    C1168  C1203     1.41245      .   S
    C1168  C1343     1.53367      .   S
    C1167  C1202     1.41245      .   S
    C1167  C1342     1.53367      .   S
    C1166  C1201     1.41245      .   S
    C1166  C1341     1.53367      .   S
    C1203  H1238     0.95170      .   S
    C1202  H1237     0.95170      .   S
    C1201  H1236     0.95170      .   S
    C1162  C1127     1.41245      .   S
    C1162  C1232     1.28209      .   S
    C1161  C1126     1.41245      .   S
    C1161  C1231     1.28209      .   S
    C32    C31       1.41245      .   S
    C32    C34       1.28209      .   S
    C31    C29       1.43713      .   S
    C1126  C1056     1.43713      .   S
    C1127  C1057     1.43713      .   S
    C1343  O189      1.16042      .   S
    C1343  O224      1.51592      .   S
    C1342  O188      1.16042      .   S
    C1342  O223      1.51592      .   S
    C1341  O187      1.16042      .   S
    C1341  O222      1.51592      .   S
    H35    C34       0.95056      .   S
    H1266  C1231     0.95056      .   S
    H1267  C1232     0.95056      .   S
    H30    C29       0.94932      .   S
    H1091  C1056     0.94932      .   S
    H1092  C1057     0.94932      .   S
    C34    C0        1.48748      .   S
    C1231  C986      1.48748      .   S
    C1232  C987      1.48748      .   S
    C29    C28       1.38515      .   S
    C1056  C1021     1.38515      .   S
    C1057  C1022     1.38515      .   S
    C28    C0        1.45249      .   S
    C28    N14       1.47250      .   S
    C1021  C986      1.45249      .   S
    C1021  N509      1.47250      .   S
    C1022  C987      1.45249      .   S
    C1022  N510      1.47250      .   S
    C0     C21       1.42151      .   S
    C986   C764      1.42151      .   S
    C987   C765      1.42151      .   S
    H474   N439      0.88291  1_545   S
    H475   N440      0.88291  1_655   S
    H2     N1        0.88291      .   S
    N439   C951      1.46906      .   S
    N439   C729      1.43139      .   S
    N1     C26       1.46906      .   S
    N1     C20       1.43139      .   S
    N440   C952      1.46906      .   S
    N440   C730      1.43139      .   S
    N14    C26       1.26439      .   S
    N14    H15       0.88080      .   S
    N509   C951      1.26439      .   S
    N509   H544      0.88080      .   S
    N510   C952      1.26439      .   S
    N510   H545      0.88080      .   S
    C21    C20       1.42467      .   S
    C21    C22       1.31172      .   S
    C764   C729      1.42467      .   S
    C764   C799      1.31172      .   S
    C765   C730      1.42467      .   S
    C765   C800      1.31172      .   S
    C26    O5        1.13307      .   S
    C952   O111      1.13307  1_455   S
    C951   O110      1.13307  1_565   S
    C729   C278      1.41715      .   S
    C730   C279      1.41715      .   S
    C20    C18       1.41715      .   S
    H23    C22       0.94698      .   S
    H835   C800      0.94698      .   S
    H834   C799      0.94698      .   S
    O296   C1376     1.27106      .   S
    O297   C1377     1.27106      .   S
    O298   C1378     1.27106      .   S
    C800   C870      1.43040      .   S
    C799   C869      1.43040      .   S
    C22    C24       1.43040      .   S
    O367   C2274     1.14833      .   S
    O368   C2275     1.14833      .   S
    O369   C2276     1.14833      .   S
    C18    H19       0.95051      .   S
    C18    C17       1.37472      .   S
    C278   H276      0.95051  1_565   S
    C278   C614      1.37472      .   S
    C279   H277      0.95051  1_455   S
    C279   C615      1.37472      .   S
    H1639  C1604     0.94598      .   S
    H1637  C1602     0.94598      .   S
    H1638  C1603     0.94598      .   S
    C870   C615      1.44574      .   S
    C870   H905      0.94937      .   S
    C869   C614      1.44574      .   S
    C869   H904      0.94937      .   S
    C24    C17       1.44574      .   S
    C24    H25       0.94937      .   S
    C615   C580      1.47957      .   S
    C17    C16       1.47957      .   S
    C614   C579      1.47957      .   S
    C2274  N2136     1.49425      .   S
    C2274  N2206     1.46938      .   S
    C2275  N2137     1.49425      .   S
    C2275  N2207     1.46938      .   S
    C2276  N2138     1.49425      .   S
    C2276  N2208     1.46938      .   S
    C1376  O257      1.24881      .   S
    C1376  C1411     1.52151      .   S
    C1377  O258      1.24881      .   S
    C1377  C1412     1.52151      .   S
    C1378  O259      1.24881      .   S
    C1378  C1413     1.52151      .   S
    C1602  C1411     1.32211      .   S
    C1602  C1567     1.44525      .   S
    C1603  C1412     1.32211      .   S
    C1603  C1568     1.44525      .   S
    C1604  C1413     1.32211      .   S
    C1604  C1569     1.44525      .   S
    H2172  N2137     0.87878      .   S
    H2171  N2136     0.87878      .   S
    H2173  N2138     0.87878      .   S
    N2137  C1568     1.38928  1_455   S
    N2136  C1567     1.38928  1_565   S
    N2138  C1569     1.38928      .   S
    C579   O69       1.22516  1_565   S
    C579   O64       1.34273      .   S
    C580   O70       1.22516  1_455   S
    C580   O76       1.34273      .   S
    C16    O3        1.22516      .   S
    C16    O4        1.34273      .   S
    C1412  C1447     1.38417      .   S
    C1411  C1446     1.38417      .   S
    C1413  C1448     1.38417      .   S
    H2242  N2207     0.87926      .   S
    H2241  N2206     0.87926      .   S
    H2243  N2208     0.87926      .   S
    N2207  C1919     1.36686      .   S
    N2208  C1920     1.36686      .   S
    N2206  C1918     1.36686      .   S
    C1568  C1533     1.31386      .   S
    C1569  C1534     1.31386      .   S
    C1567  C1532     1.31386      .   S
    C1446  H1482     0.95075      .   S
    C1446  C1497     1.43854      .   S
    C1447  H1483     0.95075      .   S
    C1447  C1498     1.43854      .   S
    C1448  H1484     0.95075      .   S
    C1448  C1499     1.43854      .   S
    C1534  C1499     1.38180      .   S
    C1534  C1674     1.41515      .   S
    C1533  C1498     1.38180      .   S
    C1533  C1673     1.41515  1_655   S
    C1532  C1497     1.38180      .   S
    C1532  C1672     1.41515  1_545   S
    C1918  C1672     1.41521      .   S
    C1918  C1847     1.33862      .   S
    C1919  C1673     1.41521      .   S
    C1919  C1848     1.33862      .   S
    C1920  C1674     1.41521      .   S
    C1920  C1849     1.33862      .   S
    C1497  N1961     1.44860      .   S
    C1498  N1962     1.44860      .   S
    C1499  N1963     1.44860      .   S
    H1882  C1847     0.94802      .   S
    H1883  C1848     0.94802      .   S
    H1884  C1849     0.94802      .   S
    C1674  C1709     1.43562      .   S
    C1673  C1708     1.43562      .   S
    C1672  C1707     1.43562      .   S
    C1849  C1814     1.37475      .   S
    C1848  C1813     1.37475      .   S
    C1847  C1812     1.37475      .   S
    O438   C1955     1.19042      .   S
    O437   C1954     1.19042      .   S
    O436   C1953     1.19042      .   S
    O358   C2128     1.12166      .   S
    O359   C2129     1.12166      .   S
    O360   C2130     1.12166      .   S
    H1996  N1961     0.87778      .   S
    H1997  N1962     0.87778      .   S
    H1998  N1963     0.87778      .   S
    N1963  C2103     1.46454      .   S
    N1962  C2102     1.46454      .   S
    N1961  C2101     1.46454      .   S
    H1806  C1771     0.94808      .   S
    H1805  C1770     0.94808      .   S
    H1804  C1769     0.94808      .   S
    H2095  N2060     0.88301      .   S
    H2094  N2059     0.88301      .   S
    H2093  N2058     0.88301      .   S
    C1709  C1744     1.33681      .   S
    C1709  N2033     1.48041      .   S
    C1707  C1742     1.33681      .   S
    C1707  N2031     1.48041  1_565   S
    C1708  C1743     1.33681      .   S
    C1708  N2032     1.48041  1_455   S
    C1812  C1742     1.42566      .   S
    C1812  C937      1.55459      .   S
    C1813  C1743     1.42566      .   S
    C1813  C938      1.55459      .   S
    C1814  C1744     1.42566      .   S
    C1814  C939      1.55459      .   S
    C1955  O473      1.33972      .   S
    C1955  C1841     1.55459      .   S
    C1954  O472      1.33972      .   S
    C1954  C1840     1.55459      .   S
    C1953  O471      1.33972      .   S
    C1953  C1839     1.55459      .   S
    C2130  N2060     1.44487      .   S
    C2130  N1990     1.46454      .   S
    C2128  N2058     1.44487      .   S
    C2128  N1988     1.46454      .   S
    C2129  N2059     1.44487      .   S
    C2129  N1989     1.46454      .   S
    O445   C938      1.33972      .   S
    O444   C937      1.33972      .   S
    O446   C939      1.33972      .   S
    N2060  C1736     1.48041      .   S
    N2059  C1735     1.48041      .   S
    N2058  C1734     1.48041      .   S
    C1771  C1841     1.42566      .   S
    C1771  C1736     1.33681      .   S
    C1770  C1840     1.42566      .   S
    C1770  C1735     1.33681      .   S
    C1769  C1839     1.42566      .   S
    C1769  C1734     1.33681      .   S
    C1744  H1779     0.94808      .   S
    C1743  H1778     0.94808      .   S
    C1742  H1777     0.94808      .   S
    N2033  C2103     1.44487      .   S
    N2033  H2068     0.88301      .   S
    N2031  C2101     1.44487      .   S
    N2031  H2066     0.88301      .   S
    N2032  C2102     1.44487      .   S
    N2032  H2067     0.88301      .   S
    C2103  O333      1.12166      .   S
    C2101  O331      1.12166      .   S
    C2102  O332      1.12166      .   S
    C939   O411      1.19042      .   S
    C938   O410      1.19042      .   S
    C937   O409      1.19042      .   S
    C1840  C1875     1.37475      .   S
    C1841  C1876     1.37475      .   S
    C1839  C1874     1.37475      .   S
    C1734  C1699     1.43562      .   S
    C1736  C1701     1.43562      .   S
    C1735  C1700     1.43562      .   S
    N1990  H2025     0.87778      .   S
    N1990  C1526     1.44860      .   S
    N1989  H2024     0.87778      .   S
    N1989  C1525     1.44860      .   S
    N1988  H2023     0.87778      .   S
    N1988  C1524     1.44860      .   S
    C1874  H1909     0.94802      .   S
    C1874  C927      1.33862      .   S
    C1875  H1910     0.94802      .   S
    C1875  C928      1.33862      .   S
    C1876  H1911     0.94802      .   S
    C1876  C929      1.33862      .   S
    C1701  C929      1.41521      .   S
    C1701  C1561     1.41515      .   S
    C1699  C927      1.41521      .   S
    C1699  C1559     1.41515      .   S
    C1700  C928      1.41521      .   S
    C1700  C1560     1.41515      .   S
    C1524  C1559     1.38180      .   S
    C1524  C1473     1.43854      .   S
    C1525  C1560     1.38180      .   S
    C1525  C1474     1.43854      .   S
    C1526  C1561     1.38180      .   S
    C1526  C1475     1.43854      .   S
    C929   N2235     1.36686      .   S
    C928   N2234     1.36686      .   S
    C927   N2233     1.36686      .   S
    H695   C1473     0.95075      .   S
    H696   C1474     0.95075      .   S
    H697   C1475     0.95075      .   S
    C1561  C1596     1.31386      .   S
    C1560  C1595     1.31386      .   S
    C1559  C1594     1.31386      .   S
    C1475  C1440     1.38417      .   S
    C1473  C1438     1.38417      .   S
    C1474  C1439     1.38417      .   S
    O138   C640      1.34273      .   S
    O139   C641      1.34273      .   S
    O140   C642      1.34273      .   S
    C1595  N2164     1.38928      .   S
    C1595  C1630     1.44525      .   S
    C1594  N2163     1.38928      .   S
    C1594  C1629     1.44525      .   S
    C1596  N2165     1.38928      .   S
    C1596  C1631     1.44525      .   S
    N2233  H2268     0.87926      .   S
    N2233  C2301     1.46938      .   S
    N2234  H2269     0.87926      .   S
    N2234  C2302     1.46938      .   S
    N2235  H2270     0.87926      .   S
    N2235  C2303     1.46938      .   S
    O103   C642      1.22516      .   S
    O102   C641      1.22516      .   S
    O101   C640      1.22516      .   S
    C1438  C1629     1.32211      .   S
    C1438  C1403     1.52151      .   S
    C1439  C1630     1.32211      .   S
    C1439  C1404     1.52151      .   S
    C1440  C1631     1.32211      .   S
    C1440  C1405     1.52151      .   S
    C641   C677      1.47957      .   S
    C640   C676      1.47957      .   S
    C642   C678      1.47957      .   S
    O288   C1403     1.24881      .   S
    O289   C1404     1.24881      .   S
    O290   C1405     1.24881      .   S
    N2165  H2200     0.87878      .   S
    N2165  C2303     1.49425      .   S
    N2164  H2199     0.87878      .   S
    N2164  C2302     1.49425      .   S
    N2163  H2198     0.87878      .   S
    N2163  C2301     1.49425      .   S
    C1629  H1664     0.94598      .   S
    C1630  H1665     0.94598      .   S
    C1631  H1666     0.94598      .   S
    C1405  O325      1.27106      .   S
    C1404  O324      1.27106      .   S
    C1403  O323      1.27106      .   S
    C2303  O133      1.14833      .   S
    C2302  O132      1.14833      .   S
    C2301  O131      1.14833      .   S
    H977   C401      0.94937      .   S
    H978   C402      0.94937      .   S
    H979   C403      0.94937      .   S
    C676   C401      1.44574      .   S
    C676   C720      1.37472      .   S
    C677   C402      1.44574      .   S
    C677   C721      1.37472      .   S
    C678   C403      1.44574      .   S
    C678   C722      1.37472      .   S
    C403   C862      1.43040      .   S
    C401   C860      1.43040      .   S
    C402   C861      1.43040      .   S
    H755   C720      0.95051      .   S
    H756   C721      0.95051      .   S
    H757   C722      0.95051      .   S
    C720   C790      1.41715      .   S
    C721   C791      1.41715      .   S
    C722   C792      1.41715      .   S
    C862   H897      0.94698      .   S
    C862   C827      1.31172      .   S
    C861   H896      0.94698      .   S
    C861   C826      1.31172      .   S
    C860   H895      0.94698      .   S
    C860   C825      1.31172      .   S
    H605   N570      0.88080  1_545   S
    H607   N572      0.88080  1_655   S
    H606   N571      0.88080      .   S
    C791   C826      1.42467      .   S
    C791   N501      1.43139      .   S
    C792   C827      1.42467      .   S
    C792   N502      1.43139      .   S
    C790   C825      1.42467      .   S
    C790   N500      1.43139      .   S
    O175   C1014     1.13307  1_655   S
    O174   C1013     1.13307      .   S
    O173   C1012     1.13307  1_545   S
    C1012  N570      1.26439      .   S
    C1012  N500      1.46906      .   S
    C1014  N572      1.26439      .   S
    C1014  N502      1.46906      .   S
    C1013  N571      1.26439      .   S
    C1013  N501      1.46906      .   S
    C827   C1049     1.42151      .   S
    C825   C1047     1.42151      .   S
    C826   C1048     1.42151      .   S
    N570   C1082     1.47250      .   S
    N572   C1084     1.47250      .   S
    N571   C1083     1.47250      .   S
    N502   H537      0.88291      .   S
    N501   H536      0.88291      .   S
    N500   H535      0.88291      .   S
    C1049  C1084     1.45249      .   S
    C1049  C1294     1.48748      .   S
    C1048  C1083     1.45249      .   S
    C1048  C1293     1.48748      .   S
    C1047  C1082     1.45249      .   S
    C1047  C1292     1.48748      .   S
    C1082  C1117     1.38515      .   S
    C1083  C1118     1.38515      .   S
    C1084  C1119     1.38515      .   S
    C1119  H1154     0.94932  1_455   S
    C1119  C1189     1.43713      .   S
    C1118  H1153     0.94932      .   S
    C1118  C1188     1.43713      .   S
    C1117  H1152     0.94932  1_565   S
    C1117  C1187     1.43713      .   S
    C1294  H1329     0.95056      .   S
    C1294  C1224     1.28209      .   S
    C1293  H1328     0.95056      .   S
    C1293  C1223     1.28209      .   S
    C1292  H1327     0.95056      .   S
    C1292  C1222     1.28209      .   S
    O251   C1370     1.51592      .   S
    O249   C1368     1.51592      .   S
    O250   C1369     1.51592      .   S
    O215   C1369     1.16042      .   S
    O216   C1370     1.16042      .   S
    O214   C1368     1.16042      .   S
    C1369  C1194     1.53367      .   S
    C1370  C1195     1.53367      .   S
    C1368  C1193     1.53367      .   S
    H1265  C1230     0.95170      .   S
    H1264  C1229     0.95170      .   S
    H1263  C1228     0.95170      .   S
    C1187  C1222     1.41245      .   S
    C1187  C1362     1.53367      .   S
    C1189  C1224     1.41245      .   S
    C1189  C1364     1.53367      .   S
    C1188  C1223     1.41245      .   S
    C1188  C1363     1.53367      .   S
    C1224  H1259     0.95170      .   S
    C1223  H1258     0.95170      .   S
    C1222  H1257     0.95170      .   S
    C1230  C1195     1.41245      .   S
    C1230  C1300     1.28209      .   S
    C1228  C1193     1.41245      .   S
    C1228  C1298     1.28209      .   S
    C1229  C1194     1.41245      .   S
    C1229  C1299     1.28209      .   S
    C1195  C1125     1.43713      .   S
    C1193  C1123     1.43713      .   S
    C1194  C1124     1.43713      .   S
    C1364  O210      1.16042  1_455   S
    C1364  O245      1.51592      .   S
    C1362  O208      1.16042  1_565   S
    C1362  O243      1.51592      .   S
    C1363  O209      1.16042      .   S
    C1363  O244      1.51592      .   S
    H1335  C1300     0.95056      .   S
    H1333  C1298     0.95056      .   S
    H1334  C1299     0.95056      .   S
    H1160  C1125     0.94932      .   S
    H1159  C1124     0.94932      .   S
    H1158  C1123     0.94932      .   S
    C1300  C1055     1.48748      .   S
    C1299  C1054     1.48748      .   S
    C1298  C1053     1.48748      .   S
    C1123  C1088     1.38515      .   S
    C1124  C1089     1.38515      .   S
    C1125  C1090     1.38515      .   S
    C1090  C1055     1.45249      .   S
    C1090  N578      1.47250      .   S
    C1088  C1053     1.45249      .   S
    C1088  N576      1.47250      .   S
    C1089  C1054     1.45249      .   S
    C1089  N577      1.47250      .   S
    C1053  C831      1.42151  1_655   S
    C1054  C832      1.42151  1_545   S
    C1055  C833      1.42151      .   S
    H543   N508      0.88291      .   S
    H542   N507      0.88291      .   S
    H541   N506      0.88291      .   S
    N508   C1020     1.46906      .   S
    N508   C798      1.43139      .   S
    N507   C1019     1.46906  1_565   S
    N507   C797      1.43139      .   S
    N506   C1018     1.46906  1_455   S
    N506   C796      1.43139      .   S
    N577   C1019     1.26439      .   S
    N577   H612      0.88080      .   S
    N576   C1018     1.26439      .   S
    N576   H611      0.88080      .   S
    N578   C1020     1.26439      .   S
    N578   H613      0.88080      .   S
    C831   C796      1.42467      .   S
    C831   C866      1.31172      .   S
    C832   C797      1.42467      .   S
    C832   C867      1.31172      .   S
    C833   C798      1.42467      .   S
    C833   C868      1.31172      .   S
    C1020  O181      1.13307      .   S
    C1018  O179      1.13307      .   S
    C1019  O180      1.13307      .   S
    C798   C728      1.41715      .   S
    C797   C727      1.41715      .   S
    C796   C726      1.41715      .   S
    H903   C868      0.94698      .   S
    H902   C867      0.94698      .   S
    H901   C866      0.94698      .   S
    O318   C1398     1.27106      .   S
    O317   C1397     1.27106      .   S
    O319   C1399     1.27106      .   S
    C866   C407      1.43040      .   S
    C867   C949      1.43040      .   S
    C868   C950      1.43040      .   S
    O390   C2297     1.14833      .   S
    O389   C2296     1.14833      .   S
    O388   C2295     1.14833      .   S
    C726   H761      0.95051      .   S
    C726   C682      1.37472      .   S
    C728   H763      0.95051      .   S
    C728   C275      1.37472      .   S
    C727   H762      0.95051      .   S
    C727   C274      1.37472      .   S
    H1660  C1625     0.94598      .   S
    H1659  C1624     0.94598      .   S
    H1658  C1623     0.94598      .   S
    C950   C275      1.44574      .   S
    C950   H985      0.94937      .   S
    C949   C274      1.44574      .   S
    C949   H984      0.94937      .   S
    C407   C682      1.44574      .   S
    C407   H983      0.94937      .   S
    C274   C647      1.47957      .   S
    C275   C648      1.47957      .   S
    C682   C646      1.47957      .   S
    C2296  N2158     1.49425      .   S
    C2296  N2228     1.46938      .   S
    C2295  N2157     1.49425      .   S
    C2295  N2227     1.46938      .   S
    C2297  N2159     1.49425      .   S
    C2297  N2229     1.46938      .   S
    C1398  O283      1.24881      .   S
    C1398  C1433     1.52151      .   S
    C1397  O75       1.24881      .   S
    C1397  C1432     1.52151      .   S
    C1399  O284      1.24881      .   S
    C1399  C1434     1.52151      .   S
    C1623  C1432     1.32211      .   S
    C1623  C1588     1.44525      .   S
    C1624  C1433     1.32211      .   S
    C1624  C1589     1.44525      .   S
    C1625  C1434     1.32211      .   S
    C1625  C1590     1.44525      .   S
    H2192  N2157     0.87878      .   S
    H2193  N2158     0.87878      .   S
    H2194  N2159     0.87878      .   S
    N2158  C1589     1.38928      .   S
    N2157  C1588     1.38928      .   S
    N2159  C1590     1.38928      .   S
    C648   O109      1.22516      .   S
    C648   O146      1.34273      .   S
    C646   O107      1.22516      .   S
    C646   O144      1.34273      .   S
    C647   O108      1.22516      .   S
    C647   O145      1.34273      .   S
    C1433  C1468     1.38417      .   S
    C1434  C1469     1.38417      .   S
    C1432  C1467     1.38417      .   S
    H2262  N2227     0.87926      .   S
    H2264  N2229     0.87926      .   S
    H2263  N2228     0.87926      .   S
    N2227  C1939     1.36686      .   S
    N2228  C1940     1.36686      .   S
    N2229  C923      1.36686      .   S
    C1589  C1554     1.31386      .   S
    C1588  C1553     1.31386      .   S
    C1590  C1555     1.31386      .   S
    C1467  H689      0.95075      .   S
    C1467  C1518     1.43854      .   S
    C1469  H691      0.95075      .   S
    C1469  C1520     1.43854      .   S
    C1468  H690      0.95075      .   S
    C1468  C1519     1.43854      .   S
    C1554  C1519     1.38180      .   S
    C1554  C1694     1.41515      .   S
    C1553  C1518     1.38180      .   S
    C1553  C1693     1.41515      .   S
    C1555  C1520     1.38180      .   S
    C1555  C1695     1.41515      .   S
    C1939  C1693     1.41521      .   S
    C1939  C1868     1.33862      .   S
    C923   C1695     1.41521      .   S
    C923   C1870     1.33862      .   S
    C1940  C1694     1.41521      .   S
    C1940  C1869     1.33862      .   S
    C1520  N1984     1.44860      .   S
    C1519  N1983     1.44860      .   S
    C1518  N1982     1.44860      .   S
    H1903  C1868     0.94802      .   S
    H1905  C1870     0.94802      .   S
    H1904  C1869     0.94802      .   S
    C1694  C1729     1.43562      .   S
    C1693  C1728     1.43562      .   S
    C1695  C1730     1.43562      .   S
    C1870  C1835     1.37475      .   S
    C1869  C1834     1.37475      .   S
    C1868  C1833     1.37475      .   S
    O415   C943      1.19042      .   S
    O417   C945      1.19042      .   S
    O416   C944      1.19042      .   S
    O338   C2108     1.12166      .   S
    O337   C2107     1.12166      .   S
    O339   C2109     1.12166      .   S
    H2017  N1982     0.87778      .   S
    H2018  N1983     0.87778      .   S
    H2019  N1984     0.87778      .   S
    N1983  C2123     1.46454      .   S
    N1982  C2122     1.46454      .   S
    N1984  C2124     1.46454      .   S
    H1783  C1748     0.94808      .   S
    H1784  C1749     0.94808      .   S
    H1785  C1750     0.94808      .   S
    H2072  N2037     0.88301      .   S
    H2073  N2038     0.88301      .   S
    H2074  N2039     0.88301      .   S
    C1730  C1765     1.33681      .   S
    C1730  N2054     1.48041      .   S
    C1728  C1763     1.33681      .   S
    C1728  N2052     1.48041      .   S
    C1729  C1764     1.33681      .   S
    C1729  N2053     1.48041      .   S
    C1835  C1765     1.42566      .   S
    C1835  C1949     1.55459      .   S
    C1834  C1764     1.42566      .   S
    C1834  C1948     1.55459      .   S
    C1833  C1763     1.42566      .   S
    C1833  C1947     1.55459      .   S
    C943   O450      1.33972      .   S
    C943   C1818     1.55459      .   S
    C944   O451      1.33972      .   S
    C944   C1819     1.55459      .   S
    C945   O452      1.33972      .   S
    C945   C1820     1.55459      .   S
    C2108  N2038     1.44487      .   S
    C2108  N1968     1.46454      .   S
    C2107  N2037     1.44487      .   S
    C2107  N1967     1.46454      .   S
    C2109  N2039     1.44487      .   S
    C2109  N1969     1.46454      .   S
    O465   C1947     1.33972      .   S
    O466   C1948     1.33972      .   S
    O467   C1949     1.33972      .   S
    N2037  C1713     1.48041      .   S
    N2038  C1714     1.48041      .   S
    N2039  C1715     1.48041      .   S
    C1750  C1820     1.42566      .   S
    C1750  C1715     1.33681      .   S
    C1748  C1818     1.42566      .   S
    C1748  C1713     1.33681      .   S
    C1749  C1819     1.42566      .   S
    C1749  C1714     1.33681      .   S
    C1763  H1798     0.94808      .   S
    C1764  H1799     0.94808      .   S
    C1765  H1800     0.94808      .   S
    N2053  C2123     1.44487      .   S
    N2053  H2088     0.88301      .   S
    N2054  C2124     1.44487      .   S
    N2054  H2089     0.88301      .   S
    N2052  C2122     1.44487      .   S
    N2052  H2087     0.88301      .   S
    C2123  O353      1.12166      .   S
    C2122  O352      1.12166      .   S
    C2124  O354      1.12166      .   S
    C1947  O430      1.19042      .   S
    C1949  O432      1.19042      .   S
    C1948  O431      1.19042      .   S
    C1818  C1853     1.37475      .   S
    C1820  C1855     1.37475      .   S
    C1819  C1854     1.37475      .   S
    C1714  C1679     1.43562      .   S
    C1713  C1678     1.43562      .   S
    C1715  C1680     1.43562      .   S
    N1967  H2002     0.87778      .   S
    N1967  C1503     1.44860      .   S
    N1968  H2003     0.87778      .   S
    N1968  C1504     1.44860      .   S
    N1969  H2004     0.87778      .   S
    N1969  C1505     1.44860      .   S
    C1853  H1888     0.94802      .   S
    C1853  C1924     1.33862      .   S
    C1854  H1889     0.94802      .   S
    C1854  C1925     1.33862      .   S
    C1855  H1890     0.94802      .   S
    C1855  C1926     1.33862      .   S
    C1680  C1926     1.41521      .   S
    C1680  C1540     1.41515      .   S
    C1678  C1924     1.41521      .   S
    C1678  C1538     1.41515      .   S
    C1679  C1925     1.41521      .   S
    C1679  C1539     1.41515      .   S
    C1505  C1540     1.38180      .   S
    C1505  C1454     1.43854      .   S
    C1503  C1538     1.38180      .   S
    C1503  C1452     1.43854      .   S
    C1504  C1539     1.38180      .   S
    C1504  C1453     1.43854      .   S
    C1925  N2213     1.36686      .   S
    C1926  N2214     1.36686      .   S
    C1924  N2212     1.36686      .   S
    H1490  C1454     0.95075      .   S
    H1489  C1453     0.95075      .   S
    H1488  C1452     0.95075      .   S
    C1540  C1575     1.31386      .   S
    C1539  C1574     1.31386      .   S
    C1538  C1573     1.31386      .   S
    C1453  C1418     1.38417      .   S
    C1452  C1417     1.38417      .   S
    C1454  C1419     1.38417      .   S
    O127   C631      1.34273      .   S
    O128   C632      1.34273      .   S
    O129   C633      1.34273      .   S
    C1575  N2144     1.38928      .   S
    C1575  C1610     1.44525      .   S
    C1573  N2142     1.38928      .   S
    C1573  C1608     1.44525      .   S
    C1574  N2143     1.38928      .   S
    C1574  C1609     1.44525      .   S
    N2212  H2247     0.87926      .   S
    N2212  C2280     1.46938      .   S
    N2213  H2248     0.87926      .   S
    N2213  C2281     1.46938      .   S
    N2214  H2249     0.87926      .   S
    N2214  C2282     1.46938      .   S
    O93    C632      1.22516      .   S
    O94    C633      1.22516      .   S
    O92    C631      1.22516      .   S
    C1419  C1610     1.32211      .   S
    C1419  C1384     1.52151      .   S
    C1418  C1609     1.32211      .   S
    C1418  C1383     1.52151      .   S
    C1417  C1608     1.32211      .   S
    C1417  C1382     1.52151      .   S
    C633   C669      1.47957      .   S
    C631   C667      1.47957      .   S
    C632   C668      1.47957      .   S
    O264   C1383     1.24881      .   S
    O263   C1382     1.24881      .   S
    O265   C1384     1.24881      .   S
    N2144  H2179     0.87878      .   S
    N2144  C2282     1.49425      .   S
    N2143  H2178     0.87878      .   S
    N2143  C2281     1.49425      .   S
    N2142  H2177     0.87878      .   S
    N2142  C2280     1.49425      .   S
    C1609  H1644     0.94598      .   S
    C1610  H1645     0.94598      .   S
    C1608  H1643     0.94598      .   S
    C1382  O302      1.27106      .   S
    C1383  O303      1.27106      .   S
    C1384  O304      1.27106      .   S
    C2282  O375      1.14833      .   S
    C2281  O374      1.14833      .   S
    C2280  O373      1.14833      .   S
    H970   C394      0.94937      .   S
    H969   C922      0.94937      .   S
    H968   C921      0.94937      .   S
    C669   C394      1.44574      .   S
    C669   C713      1.37472      .   S
    C667   C921      1.44574      .   S
    C667   C711      1.37472      .   S
    C668   C922      1.44574      .   S
    C668   C712      1.37472      .   S
    H747   C712      0.95051      .   S
    C922   C852      1.43040      .   S
    H748   C713      0.95051      .   S
    C394   C853      1.43040      .   S
    H746   C711      0.95051      .   S
    C921   C851      1.43040      .   S
    C712   C782      1.41715      .   S
    C713   C783      1.41715      .   S
    C711   C781      1.41715      .   S
    C851   H886      0.94698      .   S
    C851   C816      1.31172      .   S
    C852   H887      0.94698      .   S
    C852   C817      1.31172      .   S
    C853   H888      0.94698      .   S
    C853   C818      1.31172      .   S
    H598   N563      0.88080      .   S
    H596   N561      0.88080      .   S
    H597   N562      0.88080      .   S
    C781   C816      1.42467      .   S
    C781   N491      1.43139      .   S
    C783   C818      1.42467      .   S
    C783   N493      1.43139      .   S
    C782   C817      1.42467      .   S
    C782   N492      1.43139      .   S
    O166   C1005     1.13307      .   S
    O164   C1003     1.13307      .   S
    O165   C1004     1.13307      .   S
    C1005  N563      1.26439      .   S
    C1005  N493      1.46906      .   S
    C1003  N561      1.26439      .   S
    C1003  N491      1.46906  1_565   S
    C1004  N562      1.26439      .   S
    C1004  N492      1.46906  1_455   S
    C816   C1038     1.42151  1_545   S
    C817   C1039     1.42151  1_655   S
    C818   C1040     1.42151      .   S
    N562   C1074     1.47250      .   S
    N563   C1075     1.47250      .   S
    N561   C1073     1.47250      .   S
    N492   H527      0.88291      .   S
    N491   H526      0.88291      .   S
    N493   H528      0.88291      .   S
    C1040  C1075     1.45249      .   S
    C1040  C1285     1.48748      .   S
    C1038  C1073     1.45249      .   S
    C1038  C1283     1.48748      .   S
    C1039  C1074     1.45249      .   S
    C1039  C1284     1.48748      .   S
    C1073  C1108     1.38515      .   S
    C1074  C1109     1.38515      .   S
    C1075  C1110     1.38515      .   S
    C1110  H1145     0.94932      .   S
    C1110  C1180     1.43713      .   S
    C1109  H1144     0.94932      .   S
    C1109  C1179     1.43713      .   S
    C1108  H1143     0.94932      .   S
    C1108  C1178     1.43713      .   S
    C1283  H1318     0.95056      .   S
    C1283  C1213     1.28209      .   S
    C1284  H1319     0.95056      .   S
    C1284  C1214     1.28209      .   S
    C1285  H1320     0.95056      .   S
    C1285  C1215     1.28209      .   S
    O229   C1348     1.51592      .   S
    O230   C1349     1.51592      .   S
    O228   C1347     1.51592      .   S
    O193   C1347     1.16042  1_455   S
    O195   C1349     1.16042  1_565   S
    O194   C1348     1.16042      .   S
    C1349  C1174     1.53367      .   S
    C1348  C1173     1.53367      .   S
    C1347  C1172     1.53367      .   S
    H1243  C1208     0.95170      .   S
    H1242  C1207     0.95170      .   S
    H1244  C1209     0.95170      .   S
    C1180  C1215     1.41245      .   S
    C1180  C1355     1.53367      .   S
    C1179  C1214     1.41245      .   S
    C1179  C1354     1.53367      .   S
    C1178  C1213     1.41245      .   S
    C1178  C1353     1.53367      .   S
    C1215  H1250     0.95170      .   S
    C1214  H1249     0.95170      .   S
    C1213  H1248     0.95170      .   S
    C1209  C1174     1.41245      .   S
    C1209  C1279     1.28209      .   S
    C1208  C1173     1.41245      .   S
    C1208  C1278     1.28209      .   S
    C1207  C1172     1.41245      .   S
    C1207  C1277     1.28209      .   S
    C1174  C1104     1.43713      .   S
    C1173  C1103     1.43713      .   S
    C1172  C1102     1.43713      .   S
    C1355  O201      1.16042      .   S
    C1355  O236      1.51592      .   S
    C1353  O199      1.16042      .   S
    C1353  O234      1.51592      .   S
    C1354  O200      1.16042      .   S
    C1354  O235      1.51592      .   S
    H1313  C1278     0.95056      .   S
    H1314  C1279     0.95056      .   S
    H1312  C1277     0.95056      .   S
    H1137  C1102     0.94932  1_455   S
    H1138  C1103     0.94932      .   S
    H1139  C1104     0.94932  1_565   S
    C1277  C1032     1.48748      .   S
    C1278  C1033     1.48748      .   S
    C1279  C1034     1.48748      .   S
    C1102  C1067     1.38515      .   S
    C1103  C1068     1.38515      .   S
    C1104  C1069     1.38515      .   S
    C1067  C1032     1.45249      .   S
    C1067  N555      1.47250      .   S
    C1068  C1033     1.45249      .   S
    C1068  N556      1.47250      .   S
    C1069  C1034     1.45249      .   S
    C1069  N557      1.47250      .   S
    C1034  C812      1.42151      .   S
    C1033  C811      1.42151      .   S
    C1032  C810      1.42151      .   S
    H520   N485      0.88291      .   S
    H521   N486      0.88291      .   S
    H522   N487      0.88291      .   S
    N487   C999      1.46906      .   S
    N487   C777      1.43139      .   S
    N486   C998      1.46906      .   S
    N486   C776      1.43139      .   S
    N485   C997      1.46906      .   S
    N485   C775      1.43139      .   S
    N557   C999      1.26439      .   S
    N557   H592      0.88080  1_545   S
    N556   C998      1.26439      .   S
    N556   H591      0.88080      .   S
    N555   C997      1.26439      .   S
    N555   H590      0.88080  1_655   S
    C812   C777      1.42467      .   S
    C812   C847      1.31172      .   S
    C810   C775      1.42467      .   S
    C810   C845      1.31172      .   S
    C811   C776      1.42467      .   S
    C811   C846      1.31172      .   S
    C998   O159      1.13307      .   S
    C999   O160      1.13307  1_545   S
    C997   O158      1.13307  1_655   S
    C775   C705      1.41715      .   S
    C776   C706      1.41715      .   S
    C777   C707      1.41715      .   S
    H882   C847      0.94698      .   S
    H881   C846      0.94698      .   S
    H880   C845      0.94698      .   S
    O308   C1388     1.27106      .   S
    O309   C1389     1.27106      .   S
    O310   C1390     1.27106      .   S
    C847   C917      1.43040      .   S
    C846   C916      1.43040      .   S
    C845   C915      1.43040      .   S
    O379   C2286     1.14833      .   S
    O380   C2287     1.14833      .   S
    O381   C2288     1.14833      .   S
    C707   H742      0.95051      .   S
    C707   C663      1.37472      .   S
    C706   H741      0.95051      .   S
    C706   C662      1.37472      .   S
    C705   H740      0.95051      .   S
    C705   C661      1.37472      .   S
    H1649  C1614     0.94598      .   S
    H1651  C1616     0.94598      .   S
    H1650  C1615     0.94598      .   S
    C916   C662      1.44574      .   S
    C916   H963      0.94937      .   S
    C917   C663      1.44574      .   S
    C917   H964      0.94937      .   S
    C915   C661      1.44574      .   S
    C915   H962      0.94937      .   S
    C662   C626      1.47957      .   S
    C663   C627      1.47957      .   S
    C661   C625      1.47957      .   S
    C2286  N2148     1.49425      .   S
    C2286  N2218     1.46938      .   S
    C2287  N2149     1.49425      .   S
    C2287  N2219     1.46938      .   S
    C2288  N2150     1.49425      .   S
    C2288  N2220     1.46938      .   S
    C1388  O269      1.24881      .   S
    C1388  C1423     1.52151      .   S
    C1389  O270      1.24881      .   S
    C1389  C1424     1.52151      .   S
    C1390  O271      1.24881      .   S
    C1390  C1425     1.52151      .   S
    C1616  C1425     1.32211      .   S
    C1616  C1581     1.44525      .   S
    C1615  C1424     1.32211      .   S
    C1615  C1580     1.44525      .   S
    C1614  C1423     1.32211      .   S
    C1614  C1579     1.44525      .   S
    H2185  N2150     0.87878      .   S
    H2184  N2149     0.87878      .   S
    H2183  N2148     0.87878      .   S
    N2148  C1579     1.38928      .   S
    N2149  C1580     1.38928      .   S
    N2150  C1581     1.38928      .   S
    C625   O86       1.22516      .   S
    C625   O121      1.34273      .   S
    C626   O87       1.22516      .   S
    C626   O122      1.34273      .   S
    C627   O88       1.22516      .   S
    C627   O123      1.34273      .   S
    C1423  C1458     1.38417      .   S
    C1424  C1459     1.38417      .   S
    C1425  C1460     1.38417      .   S
    H2254  N2219     0.87926      .   S
    H2255  N2220     0.87926      .   S
    H2253  N2218     0.87926      .   S
    N2218  C1930     1.36686      .   S
    N2219  C1931     1.36686      .   S
    N2220  C1932     1.36686      .   S
    C1579  C1544     1.31386      .   S
    C1580  C1545     1.31386      .   S
    C1581  C1546     1.31386      .   S
    C1460  H1496     0.95075      .   S
    C1460  C1511     1.43854      .   S
    C1459  H1495     0.95075      .   S
    C1459  C1510     1.43854      .   S
    C1458  H1494     0.95075      .   S
    C1458  C1509     1.43854      .   S
    C1546  C1511     1.38180      .   S
    C1546  C1686     1.41515      .   S
    C1544  C1509     1.38180      .   S
    C1544  C1684     1.41515      .   S
    C1545  C1510     1.38180      .   S
    C1545  C1685     1.41515      .   S
    C1930  C1684     1.41521      .   S
    C1930  C1859     1.33862      .   S
    C1931  C1685     1.41521      .   S
    C1931  C1860     1.33862      .   S
    C1932  C1686     1.41521      .   S
    C1932  C1861     1.33862      .   S
    C1509  N1973     1.44860      .   S
    C1510  N1974     1.44860      .   S
    C1511  N1975     1.44860      .   S
    H1894  C1859     0.94802      .   S
    H1895  C1860     0.94802      .   S
    H1896  C1861     0.94802      .   S
    C1684  C1719     1.43562      .   S
    C1685  C1720     1.43562      .   S
    C1686  C1721     1.43562      .   S
    C1861  C1826     1.37475      .   S
    C1859  C1824     1.37475      .   S
    C1860  C1825     1.37475      .   S
    O414   C942      1.19042      .   S
    O413   C941      1.19042      .   S
    O412   C940      1.19042      .   S
    O334   C2104     1.12166      .   S
    O335   C2105     1.12166      .   S
    O336   C2106     1.12166      .   S
    H2010  N1975     0.87778      .   S
    H2009  N1974     0.87778      .   S
    H2008  N1973     0.87778      .   S
    N1973  C2113     1.46454      .   S
    N1974  C2114     1.46454      .   S
    N1975  C2115     1.46454      .   S
    H1782  C1747     0.94808      .   S
    H1780  C1745     0.94808      .   S
    H1781  C1746     0.94808      .   S
    H2069  N2034     0.88301      .   S
    H2070  N2035     0.88301      .   S
    H2071  N2036     0.88301      .   S
    C1721  C1756     1.33681      .   S
    C1721  N2045     1.48041      .   S
    C1719  C1754     1.33681      .   S
    C1719  N2043     1.48041      .   S
    C1720  C1755     1.33681      .   S
    C1720  N2044     1.48041      .   S
    C1825  C1755     1.42566      .   S
    C1825  C1913     1.55459      .   S
    C1826  C1756     1.42566      .   S
    C1826  C1914     1.55459      .   S
    C1824  C1754     1.42566      .   S
    C1824  C1912     1.55459      .   S
    C942   O449      1.33972      .   S
    C942   C1817     1.55459      .   S
    C941   O448      1.33972      .   S
    C941   C1816     1.55459      .   S
    C940   O447      1.33972      .   S
    C940   C1815     1.55459      .   S
    C2104  N2034     1.44487      .   S
    C2104  N1964     1.46454      .   S
    C2105  N2035     1.44487      .   S
    C2105  N1965     1.46454      .   S
    C2106  N2036     1.44487      .   S
    C2106  N1966     1.46454      .   S
    O456   C1912     1.33972      .   S
    O457   C1913     1.33972      .   S
    O458   C1914     1.33972      .   S
    N2036  C1712     1.48041      .   S
    N2035  C1711     1.48041  1_565   S
    N2034  C1710     1.48041  1_455   S
    C1747  C1817     1.42566      .   S
    C1747  C1712     1.33681      .   S
    C1746  C1816     1.42566      .   S
    C1746  C1711     1.33681      .   S
    C1745  C1815     1.42566      .   S
    C1745  C1710     1.33681      .   S
    C1754  H1789     0.94808      .   S
    C1756  H1791     0.94808      .   S
    C1755  H1790     0.94808      .   S
    N2045  C2115     1.44487      .   S
    N2045  H2080     0.88301      .   S
    N2043  C2113     1.44487      .   S
    N2043  H2078     0.88301      .   S
    N2044  C2114     1.44487      .   S
    N2044  H2079     0.88301      .   S
    C2113  O343      1.12166      .   S
    C2114  O344      1.12166      .   S
    C2115  O345      1.12166      .   S
    C1914  O423      1.19042      .   S
    C1912  O421      1.19042      .   S
    C1913  O422      1.19042      .   S
    C1816  C1851     1.37475      .   S
    C1817  C1852     1.37475      .   S
    C1815  C1850     1.37475      .   S
    C1712  C1677     1.43562      .   S
    C1711  C1676     1.43562      .   S
    C1710  C1675     1.43562      .   S
    N1966  H2001     0.87778      .   S
    N1966  C1502     1.44860      .   S
    N1964  H1999     0.87778      .   S
    N1964  C1500     1.44860      .   S
    N1965  H2000     0.87778      .   S
    N1965  C1501     1.44860      .   S
    C1852  H1887     0.94802      .   S
    C1852  C1923     1.33862      .   S
    C1851  H1886     0.94802      .   S
    C1851  C1922     1.33862      .   S
    C1850  H1885     0.94802      .   S
    C1850  C1921     1.33862      .   S
    C1675  C1921     1.41521      .   S
    C1675  C1535     1.41515  1_655   S
    C1676  C1922     1.41521      .   S
    C1676  C1536     1.41515  1_545   S
    C1677  C1923     1.41521      .   S
    C1677  C1537     1.41515      .   S
    C1501  C1536     1.38180      .   S
    C1501  C1450     1.43854      .   S
    C1502  C1537     1.38180      .   S
    C1502  C1451     1.43854      .   S
    C1500  C1535     1.38180      .   S
    C1500  C1449     1.43854      .   S
    C1921  N2209     1.36686      .   S
    C1923  N2211     1.36686      .   S
    C1922  N2210     1.36686      .   S
    H1487  C1451     0.95075      .   S
    H1486  C1450     0.95075      .   S
    H1485  C1449     0.95075      .   S
    C1535  C1570     1.31386      .   S
    C1536  C1571     1.31386      .   S
    C1537  C1572     1.31386      .   S
    C1451  C1416     1.38417      .   S
    C1450  C1415     1.38417      .   S
    C1449  C1414     1.38417      .   S
    O114   C618      1.34273      .   S
    O113   C617      1.34273      .   S
    O112   C616      1.34273      .   S
    C1572  N2141     1.38928      .   S
    C1572  C1607     1.44525      .   S
    C1571  N2140     1.38928  1_565   S
    C1571  C1606     1.44525      .   S
    C1570  N2139     1.38928  1_455   S
    C1570  C1605     1.44525      .   S
    N2210  H2245     0.87926      .   S
    N2210  C2278     1.46938      .   S
    N2211  H2246     0.87926      .   S
    N2211  C2279     1.46938      .   S
    N2209  H2244     0.87926      .   S
    N2209  C2277     1.46938      .   S
    O77    C616      1.22516      .   S
    O78    C617      1.22516  1_455   S
    O79    C618      1.22516  1_565   S
    C1414  C1605     1.32211      .   S
    C1414  C1379     1.52151      .   S
    C1415  C1606     1.32211      .   S
    C1415  C1380     1.52151      .   S
    C1416  C1607     1.32211      .   S
    C1416  C1381     1.52151      .   S
    C616   C652      1.47957      .   S
    C617   C653      1.47957      .   S
    C618   C654      1.47957      .   S
    O262   C1381     1.24881      .   S
    O261   C1380     1.24881      .   S
    O260   C1379     1.24881      .   S
    N2139  H2174     0.87878      .   S
    N2139  C2277     1.49425      .   S
    N2141  H2176     0.87878      .   S
    N2141  C2279     1.49425      .   S
    N2140  H2175     0.87878      .   S
    N2140  C2278     1.49425      .   S
    C1605  H1640     0.94598      .   S
    C1606  H1641     0.94598      .   S
    C1607  H1642     0.94598      .   S
    C1381  O301      1.27106      .   S
    C1380  O300      1.27106      .   S
    C1379  O299      1.27106      .   S
    C2277  O370      1.14833      .   S
    C2278  O371      1.14833      .   S
    C2279  O372      1.14833      .   S
    H953   C906      0.94937      .   S
    H954   C907      0.94937      .   S
    H955   C908      0.94937      .   S
    C652   C906      1.44574      .   S
    C652   C280      1.37472      .   S
    C653   C907      1.44574      .   S
    C653   C281      1.37472      .   S
    C654   C908      1.44574      .   S
    C654   C282      1.37472      .   S
    C907   C837      1.43040      .   S
    C906   C836      1.43040      .   S
    C908   C838      1.43040      .   S
    H732   C281      0.95051  1_455   S
    H731   C280      0.95051      .   S
    H733   C282      0.95051  1_565   S
    C280   C766      1.41715      .   S
    C282   C768      1.41715      .   S
    C281   C767      1.41715      .   S
    C838   H873      0.94698      .   S
    C838   C803      1.31172      .   S
    C837   H872      0.94698      .   S
    C837   C802      1.31172      .   S
    C836   H871      0.94698      .   S
    C836   C801      1.31172      .   S
    H583   N548      0.88080      .   S
    H581   N546      0.88080      .   S
    H582   N547      0.88080      .   S
    C768   C803      1.42467      .   S
    C768   N478      1.43139      .   S
    C767   C802      1.42467      .   S
    C767   N477      1.43139      .   S
    C766   C801      1.42467      .   S
    C766   N476      1.43139      .   S
    O151   C990      1.13307  1_565   S
    O150   C989      1.13307  1_455   S
    O149   C988      1.13307      .   S
    C990   N548      1.26439      .   S
    C990   N478      1.46906      .   S
    C988   N546      1.26439      .   S
    C988   N476      1.46906      .   S
    C989   N547      1.26439      .   S
    C989   N477      1.46906      .   S
    C803   C1025     1.42151      .   S
    C802   C1024     1.42151      .   S
    C801   C1023     1.42151      .   S
    N546   C1058     1.47250      .   S
    N548   C1060     1.47250      .   S
    N547   C1059     1.47250      .   S
    N476   H511      0.88291      .   S
    N477   H512      0.88291  1_655   S
    N478   H513      0.88291  1_545   S
    C1023  C1058     1.45249      .   S
    C1023  C1268     1.48748      .   S
    C1024  C1059     1.45249      .   S
    C1024  C1269     1.48748      .   S
    C1025  C1060     1.45249      .   S
    C1025  C1270     1.48748      .   S
    C1058  C1093     1.38515      .   S
    C1059  C1094     1.38515      .   S
    C1060  C1095     1.38515      .   S
    C1093  H1128     0.94932      .   S
    C1093  C1163     1.43713      .   S
    C1094  H1129     0.94932      .   S
    C1094  C1164     1.43713      .   S
    C1095  H1130     0.94932      .   S
    C1095  C1165     1.43713      .   S
    C1268  H1303     0.95056      .   S
    C1268  C1198     1.28209      .   S
    C1270  H1305     0.95056      .   S
    C1270  C1200     1.28209      .   S
    C1269  H1304     0.95056      .   S
    C1269  C1199     1.28209      .   S
    O227   C1346     1.51592      .   S
    O226   C1345     1.51592      .   S
    O225   C1344     1.51592      .   S
    O190   C1344     1.16042      .   S
    O191   C1345     1.16042      .   S
    O192   C1346     1.16042      .   S
    C1164  C1199     1.41245      .   S
    C1165  C1200     1.41245      .   S
    C1163  C1198     1.41245      .   S
