# CIF file generated by openbabel 2.4.90, see http://openbabel.sf.net
data_I
_chemical_name_common ''
_cell_length_a 24.4635
_cell_length_b 24.4635
_cell_length_c 112.996
_cell_angle_alpha 90
_cell_angle_beta 90
_cell_angle_gamma 120
_space_group_name_H-M_alt 'P 1'
_space_group_name_Hall 'P 1'
loop_
    _symmetry_equiv_pos_as_xyz
    x,y,z
loop_
    _atom_site_label
    _atom_site_type_symbol
    _atom_site_fract_x
    _atom_site_fract_y
    _atom_site_fract_z
    _atom_site_occupancy
    Zn0     Zn   0.00000   0.00000   0.57964   1.000
    Zn1     Zn   0.97026   0.05473   0.55658   1.000
    Zn2     Zn   0.24871   0.61158   0.48622   1.000
    Zn3     Zn   0.33330   0.66670   0.46351   1.000
    O4      O    0.00000   0.00000   0.56245   1.000
    O5      O    0.33330   0.66670   0.48022   1.000
    Zn6     Zn   0.58220   0.30359   0.77675   1.000
    Zn7     Zn   0.05509   0.97046   0.81955   1.000
    Zn8     Zn   0.02954   0.08462   0.81955   1.000
    Zn9     Zn   0.94527   0.91553   0.55658   1.000
    Zn10    Zn   0.00000   0.00000   0.92036   1.000
    Zn11    Zn   0.00000   0.00000   0.42036   1.000
    Zn12    Zn   0.00000   0.00000   0.07964   1.000
    Zn13    Zn   0.66667   0.33333   0.91297   1.000
    Zn14    Zn   0.66667   0.33333   0.25369   1.000
    Zn15    Zn   0.66667   0.33333   0.75369   1.000
    Zn16    Zn   0.66667   0.33333   0.41297   1.000
    Zn17    Zn   0.33333   0.66667   0.24631   1.000
    Zn18    Zn   0.33333   0.66667   0.58703   1.000
    Zn19    Zn   0.33333   0.66667   0.08703   1.000
    Zn20    Zn   0.33333   0.66667   0.74631   1.000
    Zn21    Zn   0.38842   0.63713   0.48622   1.000
    Zn22    Zn   0.36287   0.75129   0.48622   1.000
    Zn23    Zn   0.08447   0.02974   0.55658   1.000
    Zn24    Zn   0.05473   0.97026   0.94342   1.000
    Zn25    Zn   0.91553   0.94527   0.94342   1.000
    Zn26    Zn   0.02974   0.08447   0.94342   1.000
    Zn27    Zn   0.02974   0.94527   0.44342   1.000
    Zn28    Zn   0.05473   0.08447   0.44342   1.000
    Zn29    Zn   0.91553   0.97026   0.44342   1.000
    Zn30    Zn   0.94527   0.02974   0.05658   1.000
    Zn31    Zn   0.08447   0.05473   0.05658   1.000
    Zn32    Zn   0.97026   0.91553   0.05658   1.000
    Zn33    Zn   0.63693   0.38806   0.88991   1.000
    Zn34    Zn   0.61194   0.24886   0.88991   1.000
    Zn35    Zn   0.75114   0.36307   0.88991   1.000
    Zn36    Zn   0.72140   0.30359   0.27675   1.000
    Zn37    Zn   0.58220   0.27860   0.27675   1.000
    Zn38    Zn   0.69641   0.41780   0.27675   1.000
    Zn39    Zn   0.69641   0.27860   0.77675   1.000
    Zn40    Zn   0.72140   0.41780   0.77675   1.000
    O41     O    0.66663   0.33337   0.64689   1.000
    Zn42    Zn   0.61194   0.36307   0.38991   1.000
    Zn43    Zn   0.75114   0.38806   0.38991   1.000
    Zn44    Zn   0.63693   0.24886   0.38991   1.000
    Zn45    Zn   0.30359   0.72140   0.22325   1.000
    Zn46    Zn   0.27860   0.58220   0.22325   1.000
    Zn47    Zn   0.41780   0.69641   0.22325   1.000
    Zn48    Zn   0.38806   0.63693   0.61009   1.000
    Zn49    Zn   0.24886   0.61194   0.61009   1.000
    Zn50    Zn   0.36307   0.75114   0.61009   1.000
    Zn51    Zn   0.36307   0.61194   0.11009   1.000
    Zn52    Zn   0.38806   0.75114   0.11009   1.000
    Zn53    Zn   0.24886   0.63693   0.11009   1.000
    Zn54    Zn   0.27860   0.69641   0.72325   1.000
    Zn55    Zn   0.41780   0.72140   0.72325   1.000
    Zn56    Zn   0.30359   0.58220   0.72325   1.000
    Zn57    Zn   0.66670   0.33330   0.03649   1.000
    Zn58    Zn   0.61158   0.24871   0.01378   1.000
    Zn59    Zn   0.63713   0.38842   0.01378   1.000
    Zn60    Zn   0.75129   0.36287   0.01378   1.000
    Zn61    Zn   0.75129   0.38842   0.51378   1.000
    Zn62    Zn   0.61158   0.36287   0.51378   1.000
    Zn63    Zn   0.63713   0.24871   0.51378   1.000
    Zn64    Zn   0.38842   0.75129   0.98622   1.000
    Zn65    Zn   0.36287   0.61158   0.98622   1.000
    Zn66    Zn   0.24871   0.63713   0.98622   1.000
    Zn67    Zn   0.91538   0.94491   0.81955   1.000
    Zn68    Zn   0.27825   0.58204   0.34711   1.000
    Zn69    Zn   0.30380   0.72175   0.34711   1.000
    Zn70    Zn   0.41796   0.69620   0.34711   1.000
    Zn71    Zn   0.41796   0.72175   0.84711   1.000
    Zn72    Zn   0.27825   0.69620   0.84711   1.000
    Zn73    Zn   0.30380   0.58204   0.84711   1.000
    Zn74    Zn   0.05509   0.08462   0.31955   1.000
    Zn75    Zn   0.02954   0.94491   0.31955   1.000
    Zn76    Zn   0.91538   0.97046   0.31955   1.000
    Zn77    Zn   0.58204   0.27825   0.15289   1.000
    Zn78    Zn   0.72175   0.30380   0.15289   1.000
    Zn79    Zn   0.69620   0.41796   0.15289   1.000
    Zn80    Zn   0.94491   0.91538   0.68045   1.000
    Zn81    Zn   0.97046   0.05509   0.68045   1.000
    Zn82    Zn   0.08462   0.02954   0.68045   1.000
    Zn83    Zn   0.08462   0.05509   0.18045   1.000
    Zn84    Zn   0.94491   0.02954   0.18045   1.000
    Zn85    Zn   0.97046   0.91538   0.18045   1.000
    Zn86    Zn   0.72175   0.41796   0.65289   1.000
    Zn87    Zn   0.69620   0.27825   0.65289   1.000
    Zn88    Zn   0.58204   0.30380   0.65289   1.000
    O89     O    0.00000   0.00000   0.93755   1.000
    O90     O    0.00000   0.00000   0.43755   1.000
    Zn91    Zn   0.66670   0.33330   0.53649   1.000
    Zn92    Zn   0.33330   0.66670   0.96351   1.000
    Zn93    Zn   0.99997   0.00003   0.79684   1.000
    Zn94    Zn   0.99997   0.99993   0.79684   1.000
    Zn95    Zn   0.00007   0.00003   0.79684   1.000
    Zn96    Zn   0.33337   0.66663   0.36982   1.000
    Zn97    Zn   0.33337   0.66663   0.86982   1.000
    Zn98    Zn   0.99997   0.00003   0.29684   1.000
    Zn99    Zn   0.00007   0.00003   0.29684   1.000
    Zn100   Zn   0.99997   0.99993   0.29684   1.000
    Zn101   Zn   0.66663   0.33337   0.13018   1.000
    Zn102   Zn   0.00003   0.99997   0.70316   1.000
    Zn103   Zn   0.99993   0.99997   0.70316   1.000
    Zn104   Zn   0.00003   0.00007   0.70316   1.000
    Zn105   Zn   0.00003   0.99997   0.20316   1.000
    Zn106   Zn   0.00003   0.00007   0.20316   1.000
    Zn107   Zn   0.99993   0.99997   0.20316   1.000
    Zn108   Zn   0.66663   0.33337   0.63018   1.000
    O109    O    0.00000   0.00000   0.06245   1.000
    O110    O    0.66667   0.33333   0.89578   1.000
    O111    O    0.66667   0.33333   0.27088   1.000
    O112    O    0.66667   0.33333   0.77088   1.000
    O113    O    0.66667   0.33333   0.39578   1.000
    O114    O    0.33333   0.66667   0.22912   1.000
    O115    O    0.33333   0.66667   0.60422   1.000
    O116    O    0.33333   0.66667   0.10422   1.000
    O117    O    0.33333   0.66667   0.72912   1.000
    O118    O    0.66670   0.33330   0.01978   1.000
    O119    O    0.66670   0.33330   0.51978   1.000
    O120    O    0.33330   0.66670   0.98022   1.000
    O121    O    0.99997   0.00003   0.81355   1.000
    O122    O    0.99997   0.99993   0.81355   1.000
    O123    O    0.00007   0.00003   0.81355   1.000
    O124    O    0.33337   0.66663   0.35311   1.000
    O125    O    0.33337   0.66663   0.85311   1.000
    O126    O    0.99997   0.00003   0.31355   1.000
    O127    O    0.00007   0.00003   0.31355   1.000
    O128    O    0.99997   0.99993   0.31355   1.000
    O129    O    0.66663   0.33337   0.14689   1.000
    O130    O    0.00003   0.99997   0.68645   1.000
    O131    O    0.99993   0.99997   0.68645   1.000
    O132    O    0.00003   0.00007   0.68645   1.000
    O133    O    0.00003   0.99997   0.18645   1.000
    O134    O    0.00003   0.00007   0.18645   1.000
    O135    O    0.99993   0.99997   0.18645   1.000
loop_
    _geom_bond_atom_site_label_1
    _geom_bond_atom_site_label_2
    _geom_bond_distance
    _geom_bond_site_symmetry_2
    _ccdc_geom_bond_type
    Zn60   O118      1.94120      .   S
    O118   Zn57      1.88816      .   S
    Zn31   O109      1.93287      .   S
    Zn30   O109      1.93287  1_655   S
    O116   Zn51      1.93287      .   S
    O116   Zn52      1.93287      .   S
    Zn101  O129      1.88816      .   S
    O129   Zn79      1.94120      .   S
    Zn83   O134      1.94120      .   S
    Zn84   O135      1.94120  1_545   S
    Zn85   O133      1.94120  1_655   S
    O135   Zn107     1.88816      .   S
    O134   Zn106     1.88816      .   S
    O133   Zn105     1.88816      .   S
    Zn47   O114      1.93287      .   S
    Zn45   O114      1.93287      .   S
    O111   Zn36      1.93287      .   S
    O111   Zn38      1.93287      .   S
    Zn100  O128      1.88816      .   S
    Zn99   O127      1.88816      .   S
    Zn98   O126      1.88816      .   S
    O127   Zn74      1.94120      .   S
    O126   Zn76      1.94120  1_545   S
    O128   Zn75      1.94120  1_655   S
    Zn70   O124      1.94120      .   S
    O124   Zn96      1.88816      .   S
    Zn42   O113      1.93287      .   S
    Zn44   O113      1.93287      .   S
    O90    Zn27      1.93287  1_545   S
    O90    Zn28      1.93287      .   S
    Zn3    O5        1.88816      .   S
    O5     Zn22      1.94120      .   S
    Zn63   O119      1.94120      .   S
    O119   Zn91      1.88816      .   S
    Zn1    O4        1.93287  1_655   S
    Zn23   O4        1.93287      .   S
    O115   Zn48      1.93287      .   S
    O115   Zn50      1.93287      .   S
    Zn108  O41       1.88816      .   S
    O41    Zn88      1.94120      .   S
    Zn82   O130      1.94120  1_545   S
    Zn81   O132      1.94120  1_655   S
    Zn80   O131      1.94120      .   S
    O130   Zn102     1.88816      .   S
    O131   Zn103     1.88816      .   S
    O132   Zn104     1.88816      .   S
    Zn54   O117      1.93287      .   S
    Zn55   O117      1.93287      .   S
    O112   Zn40      1.93287      .   S
    O112   Zn39      1.93287      .   S
    Zn94   O122      1.88816      .   S
    Zn93   O121      1.88816      .   S
    Zn95   O123      1.88816      .   S
    O123   Zn7       1.94120  1_545   S
    O122   Zn67      1.94120      .   S
    O121   Zn8       1.94120  1_655   S
    Zn73   O125      1.94120      .   S
    O125   Zn97      1.88816      .   S
    Zn33   O110      1.93287      .   S
    Zn34   O110      1.93287      .   S
    O89    Zn25      1.93287  1_445   S
    O89    Zn24      1.93287  1_545   S
    Zn92   O120      1.88816      .   S
    O120   Zn66      1.94120      .   S
    O4     Zn0       1.94240      .   S
    O4     Zn9       1.93287  1_445   S
    O5     Zn2       1.94160      .   S
    O5     Zn21      1.94336      .   S
    O89    Zn10      1.94240      .   S
    O89    Zn26      1.93287      .   S
    O90    Zn11      1.94240      .   S
    O90    Zn29      1.93287  1_445   S
    O109   Zn12      1.94240      .   S
    O109   Zn32      1.93287  1_445   S
    O110   Zn13      1.94240      .   S
    O110   Zn35      1.93287      .   S
    O111   Zn14      1.94240      .   S
    O111   Zn37      1.93287      .   S
    O112   Zn15      1.94240      .   S
    O112   Zn6       1.93287      .   S
    O113   Zn16      1.94240      .   S
    O113   Zn43      1.93287      .   S
    O114   Zn17      1.94240      .   S
    O114   Zn46      1.93287      .   S
    O115   Zn18      1.94240      .   S
    O115   Zn49      1.93287      .   S
    O116   Zn19      1.94240      .   S
    O116   Zn53      1.93287      .   S
    O117   Zn20      1.94240      .   S
    O117   Zn56      1.93287      .   S
    O118   Zn58      1.94160      .   S
    O118   Zn59      1.94336      .   S
    O119   Zn61      1.94160      .   S
    O119   Zn62      1.94336      .   S
    O120   Zn64      1.94160      .   S
    O120   Zn65      1.94336      .   S
    O121   Zn67      1.94160  1_545   S
    O121   Zn7       1.94336  1_645   S
    O121   Zn94      1.88816  1_545   S
    O121   Zn95      1.88816  1_655   S
    O122   Zn7       1.94160  1_655   S
    O122   Zn8       1.94336  1_665   S
    O122   Zn93      1.88816  1_565   S
    O122   Zn95      1.88816  1_665   S
    O123   Zn67      1.94336  1_445   S
    O123   Zn8       1.94160      .   S
    O123   Zn93      1.88816  1_455   S
    O123   Zn94      1.88816  1_445   S
    O124   Zn68      1.94160      .   S
    O124   Zn69      1.94336      .   S
    O125   Zn71      1.94160      .   S
    O125   Zn72      1.94336      .   S
    O126   Zn74      1.94160  1_655   S
    O126   Zn75      1.94336  1_645   S
    O126   Zn99      1.88816  1_655   S
    O126   Zn100     1.88816  1_545   S
    O127   Zn75      1.94160  1_545   S
    O127   Zn76      1.94336  1_445   S
    O127   Zn98      1.88816  1_455   S
    O127   Zn100     1.88816  1_445   S
    O128   Zn74      1.94336  1_665   S
    O128   Zn76      1.94160      .   S
    O128   Zn98      1.88816  1_565   S
    O128   Zn99      1.88816  1_665   S
    O129   Zn77      1.94160      .   S
    O129   Zn78      1.94336      .   S
    O130   Zn80      1.94160  1_455   S
    O130   Zn81      1.94336  1_465   S
    O130   Zn103     1.88816  1_455   S
    O130   Zn104     1.88816  1_565   S
    O131   Zn81      1.94160  1_565   S
    O131   Zn82      1.94336  1_665   S
    O131   Zn102     1.88816  1_655   S
    O131   Zn104     1.88816  1_665   S
    O132   Zn80      1.94336  1_445   S
    O132   Zn82      1.94160      .   S
    O132   Zn102     1.88816  1_545   S
    O132   Zn103     1.88816  1_445   S
    O133   Zn83      1.94160  1_565   S
    O133   Zn84      1.94336  1_465   S
    O133   Zn106     1.88816  1_565   S
    O133   Zn107     1.88816  1_455   S
    O134   Zn84      1.94160  1_455   S
    O134   Zn85      1.94336  1_445   S
    O134   Zn105     1.88816  1_545   S
    O134   Zn107     1.88816  1_445   S
    O135   Zn83      1.94336  1_665   S
    O135   Zn85      1.94160      .   S
    O135   Zn105     1.88816  1_655   S
    O135   Zn106     1.88816  1_665   S
    O41    Zn86      1.94160      .   S
    O41    Zn87      1.94336      .   S
