# CIF file generated by openbabel 2.4.90, see http://openbabel.sf.net
data_I
_chemical_name_common ''
_cell_length_a 24.4635
_cell_length_b 24.4635
_cell_length_c 112.996
_cell_angle_alpha 90
_cell_angle_beta 90
_cell_angle_gamma 120
_space_group_name_H-M_alt 'P 1'
_space_group_name_Hall 'P 1'
loop_
    _symmetry_equiv_pos_as_xyz
    x,y,z
loop_
    _atom_site_label
    _atom_site_type_symbol
    _atom_site_fract_x
    _atom_site_fract_y
    _atom_site_fract_z
    _atom_site_occupancy
    N0      N    0.50650   0.99767   0.43781   1.000
    N1      N    0.00233   0.49350   0.93781   1.000
    N2      N    0.49117   0.99767   0.93781   1.000
    N3      N    0.50650   0.50883   0.93781   1.000
    N4      N    0.17316   0.33100   0.77115   1.000
    N5      N    0.66900   0.84216   0.77115   1.000
    N6      N    0.15784   0.82684   0.77115   1.000
    N7      N    0.66433   0.83983   0.39552   1.000
    N8      N    0.17550   0.33567   0.39552   1.000
    N9      N    0.16017   0.82450   0.39552   1.000
    N10     N    0.16017   0.33567   0.89552   1.000
    N11     N    0.66433   0.82450   0.89552   1.000
    N12     N    0.17550   0.83983   0.89552   1.000
    N13     N    0.66900   0.82684   0.27115   1.000
    N14     N    0.15784   0.33100   0.27115   1.000
    N15     N    0.17316   0.84216   0.27115   1.000
    N16     N    0.83983   0.66433   0.10448   1.000
    N17     N    0.33567   0.17550   0.10448   1.000
    N18     N    0.82450   0.16017   0.10448   1.000
    N19     N    0.33100   0.17316   0.72885   1.000
    N20     N    0.84216   0.66900   0.72885   1.000
    N21     N    0.82684   0.15784   0.72885   1.000
    N22     N    0.82684   0.66900   0.22885   1.000
    N23     N    0.33100   0.15784   0.22885   1.000
    N24     N    0.84216   0.17316   0.22885   1.000
    N25     N    0.33567   0.16017   0.60448   1.000
    N26     N    0.82450   0.66433   0.60448   1.000
    N27     N    0.83983   0.17550   0.60448   1.000
    N28     N    0.00233   0.50883   0.43781   1.000
    N29     N    0.49117   0.49350   0.43781   1.000
    N30     N    0.99767   0.50650   0.06219   1.000
    N31     N    0.50883   0.00233   0.06219   1.000
    N32     N    0.49350   0.49117   0.06219   1.000
    N33     N    0.49350   0.00233   0.56219   1.000
    N34     N    0.99767   0.49117   0.56219   1.000
    N35     N    0.50883   0.50650   0.56219   1.000
    N36     N    0.21162   0.33075   0.52022   1.000
    N37     N    0.21420   0.33591   0.64645   1.000
    N38     N    0.12171   0.78580   0.64645   1.000
    N39     N    0.12171   0.33591   0.14645   1.000
    N40     N    0.66409   0.78580   0.14645   1.000
    N41     N    0.21420   0.87829   0.14645   1.000
    N42     N    0.00258   0.45504   0.68689   1.000
    N43     N    0.45246   0.99742   0.68689   1.000
    N44     N    0.54496   0.54754   0.68689   1.000
    N45     N    0.66925   0.88087   0.52022   1.000
    N46     N    0.11913   0.78838   0.52022   1.000
    N47     N    0.33075   0.21162   0.97978   1.000
    N48     N    0.88087   0.66925   0.97978   1.000
    N49     N    0.78838   0.11913   0.97978   1.000
    N50     N    0.78838   0.66925   0.47978   1.000
    N51     N    0.33075   0.11913   0.47978   1.000
    N52     N    0.88087   0.21162   0.47978   1.000
    N53     N    0.66925   0.78838   0.02022   1.000
    N54     N    0.11913   0.33075   0.02022   1.000
    N55     N    0.21162   0.88087   0.02022   1.000
    N56     N    0.87829   0.66409   0.85355   1.000
    N57     N    0.33591   0.21420   0.85355   1.000
    N58     N    0.78580   0.12171   0.85355   1.000
    N59     N    0.99742   0.54496   0.31311   1.000
    N60     N    0.54754   0.00258   0.31311   1.000
    N61     N    0.45504   0.45246   0.31311   1.000
    N62     N    0.45504   0.00258   0.81311   1.000
    N63     N    0.99742   0.45246   0.81311   1.000
    N64     N    0.54754   0.54496   0.81311   1.000
    N65     N    0.33591   0.12171   0.35355   1.000
    N66     N    0.78580   0.66409   0.35355   1.000
    N67     N    0.87829   0.21420   0.35355   1.000
    N68     N    0.54496   0.99742   0.18689   1.000
    N69     N    0.00258   0.54754   0.18689   1.000
    N70     N    0.45246   0.45504   0.18689   1.000
    N71     N    0.66409   0.87829   0.64645   1.000
    Zr72    Zr   0.00000   0.00000   0.80998   1.000
    Zr73    Zr   0.33335   0.66665   0.35286   1.000
    Zr74    Zr   0.33333   0.66667   0.72903   1.000
    Zr75    Zr   0.66667   0.33333   0.39570   1.000
    Zr76    Zr   0.00000   0.00000   0.93763   1.000
    Zr77    Zr   0.00000   0.00000   0.43763   1.000
    Zr78    Zr   0.66667   0.33333   0.27097   1.000
    Zr79    Zr   0.66667   0.33333   0.77097   1.000
    Zr80    Zr   0.33333   0.66667   0.60430   1.000
    Zr81    Zr   0.00000   0.00000   0.56237   1.000
    Zr82    Zr   0.33333   0.66667   0.22903   1.000
    Zr83    Zr   0.66667   0.33333   0.89570   1.000
    Zr84    Zr   0.33335   0.66665   0.85286   1.000
    Zr85    Zr   0.00000   0.00000   0.30998   1.000
    Zr86    Zr   0.33333   0.66667   0.10430   1.000
    Zr87    Zr   0.33332   0.66668   0.48048   1.000
    Zr88    Zr   0.66668   0.33332   0.01952   1.000
    Zr89    Zr   0.66668   0.33332   0.51952   1.000
    Zr90    Zr   0.33332   0.66668   0.98048   1.000
    Zr91    Zr   0.00000   0.00000   0.06237   1.000
    Zr92    Zr   0.66665   0.33335   0.14714   1.000
    Zr93    Zr   0.00000   0.00000   0.69002   1.000
    Zr94    Zr   0.00000   0.00000   0.19002   1.000
    Zr95    Zr   0.66665   0.33335   0.64714   1.000
    O96     O    0.38504   0.61653   0.96712   1.000
    O97     O    0.61901   0.38899   0.90883   1.000
    O98     O    0.43520   0.71838   0.36621   1.000
    O99     O    0.89668   0.95234   0.42450   1.000
    O100    O    0.56335   0.27767   0.25783   1.000
    O101    O    0.93380   0.03785   0.82415   1.000
    O102    O    0.96215   0.89596   0.82415   1.000
    O103    O    0.10404   0.06620   0.82415   1.000
    O104    O    0.93415   0.03633   0.95071   1.000
    O105    O    0.70452   0.26713   0.00727   1.000
    O106    O    0.70300   0.43552   0.38262   1.000
    O107    O    0.93380   0.89596   0.32415   1.000
    O108    O    0.39918   0.63033   0.71596   1.000
    O109    O    0.43665   0.72233   0.74217   1.000
    O110    O    0.27767   0.71433   0.74217   1.000
    O111    O    0.23115   0.60082   0.71596   1.000
    O112    O    0.36967   0.76885   0.71596   1.000
    O113    O    0.28567   0.56335   0.74217   1.000
    O114    O    0.05566   0.95234   0.92450   1.000
    O115    O    0.28320   0.71838   0.86621   1.000
    O116    O    0.56480   0.28320   0.13379   1.000
    O117    O    0.10332   0.05566   0.07550   1.000
    O118    O    0.23001   0.61101   0.59117   1.000
    O119    O    0.76854   0.38347   0.53288   1.000
    O120    O    0.96366   0.89781   0.95071   1.000
    O121    O    0.10219   0.06585   0.95071   1.000
    O122    O    0.89668   0.94434   0.92450   1.000
    O123    O    0.04766   0.10332   0.92450   1.000
    O124    O    0.61101   0.38099   0.40883   1.000
    O125    O    0.73252   0.29700   0.38262   1.000
    O126    O    0.56448   0.26748   0.38262   1.000
    O127    O    0.76999   0.38899   0.40883   1.000
    O128    O    0.61901   0.23001   0.40883   1.000
    O129    O    0.43552   0.70300   0.11738   1.000
    O130    O    0.89596   0.93380   0.17585   1.000
    O131    O    0.03634   0.93415   0.54929   1.000
    O132    O    0.26713   0.70452   0.49273   1.000
    O133    O    0.23115   0.63033   0.21596   1.000
    O134    O    0.77070   0.39954   0.15940   1.000
    O135    O    0.95234   0.05566   0.57550   1.000
    O136    O    0.10332   0.04766   0.57550   1.000
    O137    O    0.06585   0.10219   0.54929   1.000
    O138    O    0.89781   0.96366   0.54929   1.000
    O139    O    0.94434   0.89668   0.57550   1.000
    O140    O    0.39954   0.62881   0.84060   1.000
    O141    O    0.37119   0.77070   0.84060   1.000
    O142    O    0.43520   0.71680   0.86621   1.000
    O143    O    0.22930   0.60046   0.84060   1.000
    O144    O    0.28162   0.56480   0.86621   1.000
    O145    O    0.70300   0.26748   0.88262   1.000
    O146    O    0.73287   0.43737   0.00727   1.000
    O147    O    0.38899   0.61901   0.59117   1.000
    O148    O    0.61653   0.38504   0.53288   1.000
    O149    O    0.62881   0.39954   0.65940   1.000
    O150    O    0.73287   0.29548   0.50727   1.000
    O151    O    0.96367   0.06585   0.45071   1.000
    O152    O    0.26713   0.56263   0.99273   1.000
    O153    O    0.03633   0.10219   0.04929   1.000
    O154    O    0.73252   0.43552   0.88262   1.000
    O155    O    0.70452   0.43737   0.50727   1.000
    O156    O    0.93415   0.89781   0.45071   1.000
    O157    O    0.23001   0.61901   0.09117   1.000
    O158    O    0.38099   0.61101   0.09117   1.000
    O159    O    0.29700   0.73252   0.11738   1.000
    O160    O    0.26748   0.56448   0.11738   1.000
    O161    O    0.38899   0.76999   0.09117   1.000
    O162    O    0.38347   0.61496   0.46712   1.000
    O163    O    0.76854   0.38504   0.03288   1.000
    O164    O    0.90254   0.95351   0.79736   1.000
    O165    O    0.96215   0.06620   0.32415   1.000
    O166    O    0.10404   0.03785   0.32415   1.000
    O167    O    0.05097   0.95351   0.29736   1.000
    O168    O    0.28567   0.72233   0.24217   1.000
    O169    O    0.71680   0.28162   0.13379   1.000
    O170    O    0.94434   0.04766   0.07550   1.000
    O171    O    0.71838   0.28320   0.63379   1.000
    O172    O    0.63033   0.39918   0.78404   1.000
    O173    O    0.23146   0.61653   0.46712   1.000
    O174    O    0.29548   0.56263   0.49273   1.000
    O175    O    0.43737   0.73287   0.49273   1.000
    O176    O    0.38504   0.76854   0.46712   1.000
    O177    O    0.04649   0.94903   0.79736   1.000
    O178    O    0.37119   0.60046   0.34060   1.000
    O179    O    0.60082   0.36967   0.28404   1.000
    O180    O    0.43552   0.73252   0.61738   1.000
    O181    O    0.29700   0.56448   0.61738   1.000
    O182    O    0.38099   0.76999   0.59117   1.000
    O183    O    0.26748   0.70300   0.61738   1.000
    O184    O    0.72233   0.43665   0.75783   1.000
    O185    O    0.77070   0.37119   0.65940   1.000
    O186    O    0.95351   0.90254   0.70264   1.000
    O187    O    0.89596   0.96215   0.67585   1.000
    O188    O    0.06620   0.10404   0.67585   1.000
    O189    O    0.03785   0.93380   0.67585   1.000
    O190    O    0.56263   0.26713   0.50727   1.000
    O191    O    0.61496   0.23146   0.53288   1.000
    O192    O    0.56263   0.29548   0.00727   1.000
    O193    O    0.04649   0.09746   0.29736   1.000
    O194    O    0.27767   0.56335   0.24217   1.000
    O195    O    0.61496   0.38347   0.03288   1.000
    O196    O    0.36967   0.60082   0.21596   1.000
    O197    O    0.39918   0.76885   0.21596   1.000
    O198    O    0.43665   0.71433   0.24217   1.000
    O199    O    0.39954   0.77070   0.34060   1.000
    O200    O    0.63033   0.23115   0.28404   1.000
    O201    O    0.60046   0.37119   0.15940   1.000
    O202    O    0.29548   0.73287   0.99273   1.000
    O203    O    0.06585   0.96366   0.04929   1.000
    O204    O    0.60046   0.22930   0.65940   1.000
    O205    O    0.56480   0.28162   0.63379   1.000
    O206    O    0.71680   0.43520   0.63379   1.000
    O207    O    0.61653   0.23146   0.03288   1.000
    O208    O    0.22930   0.62881   0.34060   1.000
    O209    O    0.28320   0.56480   0.36621   1.000
    O210    O    0.28162   0.71680   0.36621   1.000
    O211    O    0.76885   0.39918   0.28404   1.000
    O212    O    0.10219   0.03634   0.45071   1.000
    O213    O    0.60082   0.23115   0.78404   1.000
    O214    O    0.43737   0.70452   0.99273   1.000
    O215    O    0.38347   0.76854   0.96712   1.000
    O216    O    0.23146   0.61496   0.96712   1.000
    O217    O    0.05566   0.10332   0.42450   1.000
    O218    O    0.04766   0.94434   0.42450   1.000
    O219    O    0.71433   0.43665   0.25783   1.000
    O220    O    0.72233   0.28567   0.25783   1.000
    O221    O    0.71433   0.27767   0.75783   1.000
    O222    O    0.56335   0.28567   0.75783   1.000
    O223    O    0.76885   0.36967   0.78404   1.000
    O224    O    0.62881   0.22930   0.15940   1.000
    O225    O    0.71838   0.43520   0.13379   1.000
    O226    O    0.89781   0.93415   0.04929   1.000
    O227    O    0.56448   0.29700   0.88262   1.000
    O228    O    0.06620   0.96215   0.17585   1.000
    O229    O    0.94903   0.04649   0.70264   1.000
    O230    O    0.95234   0.89668   0.07550   1.000
    O231    O    0.09746   0.05097   0.70264   1.000
    O232    O    0.03785   0.10404   0.17585   1.000
    O233    O    0.09746   0.04649   0.20264   1.000
    O234    O    0.94903   0.90254   0.20264   1.000
    O235    O    0.95351   0.05097   0.20264   1.000
    O236    O    0.05097   0.09746   0.79736   1.000
    O237    O    0.90254   0.94903   0.29736   1.000
    O238    O    0.61101   0.23001   0.90883   1.000
    O239    O    0.76999   0.38099   0.90883   1.000
loop_
    _geom_bond_atom_site_label_1
    _geom_bond_atom_site_label_2
    _geom_bond_distance
    _geom_bond_site_symmetry_2
    _ccdc_geom_bond_type
    N3     O96       5.87939      .   S
    Zr90   O96       2.63347      .   S
    N3     O97       5.91297      .   S
    Zr83   O97       2.64638      .   S
    N7     O98       5.87894      .   S
    Zr73   O98       2.63323      .   S
    N7     O99       5.91297      .   S
    Zr77   O99       2.64638  1_445   S
    N23    O100      5.91297      .   S
    Zr78   O100      2.64638      .   S
    Zr72   O101      2.74626  1_455   S
    N58    O101      5.98208      .   S
    Zr72   O102      2.74626  1_445   S
    N56    O102      5.98208      .   S
    Zr72   O103      2.74626      .   S
    N57    O103      5.98208      .   S
    N49    O104      5.90194      .   S
    Zr76   O104      2.64574  1_455   S
    N49    O105      5.86449  1_556   S
    Zr88   O105      2.62584      .   S
    N66    O106      5.90194      .   S
    Zr75   O106      2.64574      .   S
    N66    O107      5.98208      .   S
    Zr85   O107      2.74626  1_445   S
    Zr74   O108      2.64574      .   S
    N44    O108      5.90194      .   S
    Zr74   O109      2.64638      .   S
    N5     O109      5.91297      .   S
    Zr74   O110      2.64638      .   S
    N6     O110      5.91297      .   S
    Zr74   O111      2.64574      .   S
    N42    O111      5.90194      .   S
    Zr74   O112      2.64574      .   S
    N43    O112      5.90194      .   S
    Zr74   O113      2.64638      .   S
    N4     O113      5.91297      .   S
    N12    O114      5.91297      .   S
    Zr76   O114      2.64638  1_545   S
    N12    O115      5.87939      .   S
    Zr84   O115      2.63347      .   S
    N17    O116      5.87892      .   S
    Zr92   O116      2.63323      .   S
    N17    O117      5.91297      .   S
    Zr91   O117      2.64638      .   S
    N34    O118      5.91297  1_655   S
    Zr80   O118      2.64638      .   S
    N34    O119      5.87892      .   S
    Zr89   O119      2.63323      .   S
    Zr76   O120      2.64574  1_445   S
    N48    O120      5.90194      .   S
    Zr76   O121      2.64574      .   S
    N47    O121      5.90194      .   S
    Zr76   O122      2.64638  1_445   S
    N11    O122      5.91297      .   S
    Zr76   O123      2.64638      .   S
    N10    O123      5.91297      .   S
    Zr75   O124      2.64638      .   S
    N29    O124      5.91297      .   S
    Zr75   O125      2.64574      .   S
    N67    O125      5.90194      .   S
    Zr75   O126      2.64574      .   S
    N65    O126      5.90194      .   S
    Zr75   O127      2.64638      .   S
    N28    O127      5.91297  1_455   S
    Zr75   O128      2.64638      .   S
    N0     O128      5.91297  1_565   S
    N40    O129      5.90194      .   S
    Zr86   O129      2.64574      .   S
    N40    O130      5.98208      .   S
    Zr94   O130      2.74626  1_445   S
    N46    O131      5.90194      .   S
    Zr81   O131      2.64574  1_545   S
    N46    O132      5.86449      .   S
    Zr87   O132      2.62584      .   S
    N69    O133      5.90194      .   S
    Zr82   O133      2.64574      .   S
    N69    O134      5.86481  1_455   S
    Zr92   O134      2.62616      .   S
    Zr81   O135      2.64638  1_455   S
    N27    O135      5.91297      .   S
    Zr81   O136      2.64638      .   S
    N25    O136      5.91297      .   S
    Zr81   O137      2.64574      .   S
    N36    O137      5.90194      .   S
    Zr81   O138      2.64574  1_445   S
    N45    O138      5.90194      .   S
    Zr81   O139      2.64638  1_445   S
    N26    O139      5.91297      .   S
    Zr84   O140      2.62584      .   S
    N64    O140      5.86449      .   S
    Zr84   O141      2.62623      .   S
    N62    O141      5.86487  1_545   S
    Zr84   O142      2.63323      .   S
    N11    O142      5.87892      .   S
    Zr84   O143      2.62616      .   S
    N63    O143      5.86481  1_655   S
    Zr84   O144      2.63323      .   S
    N10    O144      5.87894      .   S
    N58    O145      5.90194      .   S
    Zr83   O145      2.64574      .   S
    N48    O146      5.86481  1_556   S
    Zr88   O146      2.62616      .   S
    N35    O147      5.91297      .   S
    Zr80   O147      2.64638      .   S
    N35    O148      5.87939      .   S
    Zr89   O148      2.63347      .   S
    N44    O149      5.86449      .   S
    Zr95   O149      2.62584      .   S
    N52    O150      5.86449      .   S
    Zr89   O150      2.62584      .   S
    N52    O151      5.90194      .   S
    Zr77   O151      2.64574  1_455   S
    N54    O152      5.86481  1_554   S
    Zr90   O152      2.62616      .   S
    N54    O153      5.90194      .   S
    Zr91   O153      2.64574      .   S
    N56    O154      5.90194      .   S
    Zr83   O154      2.64574      .   S
    N50    O155      5.86487      .   S
    Zr89   O155      2.62623      .   S
    N50    O156      5.90194      .   S
    Zr77   O156      2.64574  1_445   S
    Zr86   O157      2.64638      .   S
    N30    O157      5.91297  1_655   S
    Zr86   O158      2.64638      .   S
    N32    O158      5.91297      .   S
    Zr86   O159      2.64574      .   S
    N41    O159      5.90194      .   S
    Zr86   O160      2.64574      .   S
    N39    O160      5.90194      .   S
    Zr86   O161      2.64638      .   S
    N31    O161      5.91297  1_545   S
    N29    O162      5.87939      .   S
    Zr87   O162      2.63347      .   S
    N30    O163      5.87894      .   S
    Zr88   O163      2.63323      .   S
    N5     O164      5.76794      .   S
    Zr72   O164      2.51034  1_445   S
    Zr85   O165      2.74626  1_455   S
    N67    O165      5.98208      .   S
    Zr85   O166      2.74626      .   S
    N65    O166      5.98208      .   S
    N15    O167      5.76794      .   S
    Zr85   O167      2.51034  1_545   S
    N15    O168      5.91297      .   S
    Zr82   O168      2.64638      .   S
    N18    O169      5.87939      .   S
    Zr92   O169      2.63347      .   S
    N18    O170      5.91297      .   S
    Zr91   O170      2.64638  1_455   S
    N27    O171      5.87939      .   S
    Zr95   O171      2.63347      .   S
    N64    O172      5.90194      .   S
    Zr79   O172      2.64574      .   S
    Zr87   O173      2.63323      .   S
    N28    O173      5.87892      .   S
    Zr87   O174      2.62623      .   S
    N36    O174      5.86487      .   S
    Zr87   O175      2.62616      .   S
    N45    O175      5.86481      .   S
    Zr87   O176      2.63323      .   S
    N0     O176      5.87894      .   S
    N6     O177      5.76794      .   S
    Zr72   O177      2.51034  1_545   S
    N61    O178      5.86449      .   S
    Zr73   O178      2.62584      .   S
    N61    O179      5.90194      .   S
    Zr78   O179      2.64574      .   S
    Zr80   O180      2.64574      .   S
    N71    O180      5.90194      .   S
    Zr80   O181      2.64574      .   S
    N37    O181      5.90194      .   S
    Zr80   O182      2.64638      .   S
    N33    O182      5.91297  1_545   S
    Zr80   O183      2.64574      .   S
    N38    O183      5.90194      .   S
    N20    O184      5.91297      .   S
    Zr79   O184      2.64638      .   S
    N42    O185      5.86487  1_455   S
    Zr95   O185      2.62623      .   S
    Zr93   O186      2.51034  1_445   S
    N20    O186      5.76794      .   S
    Zr93   O187      2.74626  1_445   S
    N71    O187      5.98208      .   S
    Zr93   O188      2.74626      .   S
    N37    O188      5.98208      .   S
    Zr93   O189      2.74626  1_545   S
    N38    O189      5.98208      .   S
    Zr89   O190      2.62616      .   S
    N51    O190      5.86481      .   S
    Zr89   O191      2.63323      .   S
    N33    O191      5.87894      .   S
    N47    O192      5.86487  1_556   S
    Zr88   O192      2.62623      .   S
    N14    O193      5.76794      .   S
    Zr85   O193      2.51034      .   S
    N14    O194      5.91297      .   S
    Zr82   O194      2.64638      .   S
    N32    O195      5.87939      .   S
    Zr88   O195      2.63347      .   S
    Zr82   O196      2.64574      .   S
    N70    O196      5.90194      .   S
    Zr82   O197      2.64574      .   S
    N68    O197      5.90194      .   S
    Zr82   O198      2.64638      .   S
    N13    O198      5.91297      .   S
    N60    O199      5.86481  1_545   S
    Zr73   O199      2.62616      .   S
    N60    O200      5.90194      .   S
    Zr78   O200      2.64574      .   S
    N70    O201      5.86449      .   S
    Zr92   O201      2.62584      .   S
    N55    O202      5.86449  1_554   S
    Zr90   O202      2.62584      .   S
    N55    O203      5.90194      .   S
    Zr91   O203      2.64574  1_545   S
    Zr95   O204      2.62616      .   S
    N43    O204      5.86481  1_565   S
    Zr95   O205      2.63323      .   S
    N25    O205      5.87894      .   S
    Zr95   O206      2.63323      .   S
    N26    O206      5.87892      .   S
    Zr88   O207      2.63323      .   S
    N31    O207      5.87892      .   S
    Zr73   O208      2.62623      .   S
    N59    O208      5.86487  1_655   S
    Zr73   O209      2.63323      .   S
    N8     O209      5.87892      .   S
    Zr73   O210      2.63347      .   S
    N9     O210      5.87939      .   S
    N59    O211      5.90194      .   S
    Zr78   O211      2.64574      .   S
    N51    O212      5.90194      .   S
    Zr77   O212      2.64574      .   S
    N62    O213      5.90194      .   S
    Zr79   O213      2.64574      .   S
    Zr90   O214      2.62623      .   S
    N53    O214      5.86487  1_554   S
    Zr90   O215      2.63323      .   S
    N2     O215      5.87892      .   S
    Zr90   O216      2.63323      .   S
    N1     O216      5.87894      .   S
    Zr77   O217      2.64638      .   S
    N8     O217      5.91297      .   S
    Zr77   O218      2.64638  1_545   S
    N9     O218      5.91297      .   S
    Zr78   O219      2.64638      .   S
    N22    O219      5.91297      .   S
    Zr78   O220      2.64638      .   S
    N24    O220      5.91297      .   S
    Zr79   O221      2.64638      .   S
    N21    O221      5.91297      .   S
    Zr79   O222      2.64638      .   S
    N19    O222      5.91297      .   S
    Zr79   O223      2.64574      .   S
    N63    O223      5.90194      .   S
    Zr92   O224      2.62623      .   S
    N68    O224      5.86487  1_565   S
    Zr92   O225      2.63323      .   S
    N16    O225      5.87894      .   S
    N53    O226      5.90194      .   S
    Zr91   O226      2.64574  1_445   S
    N57    O227      5.90194      .   S
    Zr83   O227      2.64574      .   S
    N41    O228      5.98208      .   S
    Zr94   O228      2.74626  1_545   S
    N21    O229      5.76794      .   S
    Zr93   O229      2.51034  1_455   S
    N16    O230      5.91297      .   S
    Zr91   O230      2.64638  1_445   S
    N19    O231      5.76794      .   S
    Zr93   O231      2.51034      .   S
    N39    O232      5.98208      .   S
    Zr94   O232      2.74626      .   S
    Zr94   O233      2.51034      .   S
    N23    O233      5.76794      .   S
    Zr94   O234      2.51034  1_445   S
    N22    O234      5.76794      .   S
    Zr94   O235      2.51034  1_455   S
    N24    O235      5.76794      .   S
    N4     O236      5.76794      .   S
    Zr72   O236      2.51034      .   S
    N13    O237      5.76794      .   S
    Zr85   O237      2.51034  1_445   S
    N2     O238      5.91297  1_565   S
    Zr83   O238      2.64638      .   S
    Zr83   O239      2.64638      .   S
    N1     O239      5.91297  1_455   S
