# CIF file generated by openbabel 2.4.90, see http://openbabel.sf.net
data_I
_chemical_name_common ''
_cell_length_a 24.4635
_cell_length_b 24.4635
_cell_length_c 112.996
_cell_angle_alpha 90
_cell_angle_beta 90
_cell_angle_gamma 120
_space_group_name_H-M_alt 'P 1'
_space_group_name_Hall 'P 1'
loop_
    _symmetry_equiv_pos_as_xyz
    x,y,z
loop_
    _atom_site_label
    _atom_site_type_symbol
    _atom_site_fract_x
    _atom_site_fract_y
    _atom_site_fract_z
    _atom_site_occupancy
    Zr0     Zr   0.00000   0.00000   0.57964   1.000
    Zr1     Zr   0.97026   0.05473   0.55658   1.000
    Zr2     Zr   0.24871   0.61158   0.48622   1.000
    Zr3     Zr   0.33330   0.66670   0.46351   1.000
    Zr4     Zr   0.00000   0.00000   0.56245   1.000
    Zr5     Zr   0.33330   0.66670   0.48022   1.000
    Zr6     Zr   0.00000   0.00000   0.92036   1.000
    Zr7     Zr   0.00000   0.00000   0.42036   1.000
    Zr8     Zr   0.00000   0.00000   0.07964   1.000
    Zr9     Zr   0.66667   0.33333   0.91297   1.000
    Zr10    Zr   0.66667   0.33333   0.25369   1.000
    Zr11    Zr   0.66667   0.33333   0.75369   1.000
    Zr12    Zr   0.66667   0.33333   0.41297   1.000
    Zr13    Zr   0.33333   0.66667   0.24631   1.000
    Zr14    Zr   0.33333   0.66667   0.58703   1.000
    Zr15    Zr   0.33333   0.66667   0.08703   1.000
    Zr16    Zr   0.33333   0.66667   0.74631   1.000
    Zr17    Zr   0.94527   0.91553   0.55658   1.000
    Zr18    Zr   0.08447   0.02974   0.55658   1.000
    Zr19    Zr   0.05473   0.97026   0.94342   1.000
    Zr20    Zr   0.91553   0.94527   0.94342   1.000
    Zr21    Zr   0.02974   0.08447   0.94342   1.000
    Zr22    Zr   0.02974   0.94527   0.44342   1.000
    Zr23    Zr   0.05473   0.08447   0.44342   1.000
    Zr24    Zr   0.91553   0.97026   0.44342   1.000
    Zr25    Zr   0.94527   0.02974   0.05658   1.000
    Zr26    Zr   0.08447   0.05473   0.05658   1.000
    Zr27    Zr   0.97026   0.91553   0.05658   1.000
    Zr28    Zr   0.63693   0.38806   0.88991   1.000
    Zr29    Zr   0.61194   0.24886   0.88991   1.000
    Zr30    Zr   0.75114   0.36307   0.88991   1.000
    Zr31    Zr   0.72140   0.30359   0.27675   1.000
    Zr32    Zr   0.58220   0.27860   0.27675   1.000
    Zr33    Zr   0.69641   0.41780   0.27675   1.000
    Zr34    Zr   0.69641   0.27860   0.77675   1.000
    Zr35    Zr   0.72140   0.41780   0.77675   1.000
    Zr36    Zr   0.58220   0.30359   0.77675   1.000
    Zr37    Zr   0.61194   0.36307   0.38991   1.000
    Zr38    Zr   0.75114   0.38806   0.38991   1.000
    Zr39    Zr   0.63693   0.24886   0.38991   1.000
    Zr40    Zr   0.30359   0.72140   0.22325   1.000
    Zr41    Zr   0.27860   0.58220   0.22325   1.000
    Zr42    Zr   0.41780   0.69641   0.22325   1.000
    Zr43    Zr   0.38806   0.63693   0.61009   1.000
    Zr44    Zr   0.24886   0.61194   0.61009   1.000
    Zr45    Zr   0.36307   0.75114   0.61009   1.000
    Zr46    Zr   0.36307   0.61194   0.11009   1.000
    Zr47    Zr   0.38806   0.75114   0.11009   1.000
    Zr48    Zr   0.24886   0.63693   0.11009   1.000
    Zr49    Zr   0.27860   0.69641   0.72325   1.000
    Zr50    Zr   0.41780   0.72140   0.72325   1.000
    Zr51    Zr   0.30359   0.58220   0.72325   1.000
    Zr52    Zr   0.38842   0.63713   0.48622   1.000
    Zr53    Zr   0.36287   0.75129   0.48622   1.000
    Zr54    Zr   0.61158   0.24871   0.01378   1.000
    Zr55    Zr   0.63713   0.38842   0.01378   1.000
    Zr56    Zr   0.75129   0.36287   0.01378   1.000
    Zr57    Zr   0.75129   0.38842   0.51378   1.000
    Zr58    Zr   0.61158   0.36287   0.51378   1.000
    Zr59    Zr   0.63713   0.24871   0.51378   1.000
    Zr60    Zr   0.38842   0.75129   0.98622   1.000
    Zr61    Zr   0.36287   0.61158   0.98622   1.000
    Zr62    Zr   0.24871   0.63713   0.98622   1.000
    Zr63    Zr   0.91538   0.94491   0.81955   1.000
    Zr64    Zr   0.05509   0.97046   0.81955   1.000
    Zr65    Zr   0.02954   0.08462   0.81955   1.000
    Zr66    Zr   0.27825   0.58204   0.34711   1.000
    Zr67    Zr   0.30380   0.72175   0.34711   1.000
    Zr68    Zr   0.41796   0.69620   0.34711   1.000
    Zr69    Zr   0.41796   0.72175   0.84711   1.000
    Zr70    Zr   0.27825   0.69620   0.84711   1.000
    Zr71    Zr   0.30380   0.58204   0.84711   1.000
    Zr72    Zr   0.05509   0.08462   0.31955   1.000
    Zr73    Zr   0.02954   0.94491   0.31955   1.000
    Zr74    Zr   0.91538   0.97046   0.31955   1.000
    Zr75    Zr   0.58204   0.27825   0.15289   1.000
    Zr76    Zr   0.72175   0.30380   0.15289   1.000
    Zr77    Zr   0.69620   0.41796   0.15289   1.000
    Zr78    Zr   0.94491   0.91538   0.68045   1.000
    Zr79    Zr   0.97046   0.05509   0.68045   1.000
    Zr80    Zr   0.08462   0.02954   0.68045   1.000
    Zr81    Zr   0.08462   0.05509   0.18045   1.000
    Zr82    Zr   0.94491   0.02954   0.18045   1.000
    Zr83    Zr   0.97046   0.91538   0.18045   1.000
    Zr84    Zr   0.72175   0.41796   0.65289   1.000
    Zr85    Zr   0.69620   0.27825   0.65289   1.000
    Zr86    Zr   0.58204   0.30380   0.65289   1.000
    Zr87    Zr   0.66670   0.33330   0.03649   1.000
    Zr88    Zr   0.66670   0.33330   0.53649   1.000
    Zr89    Zr   0.33330   0.66670   0.96351   1.000
    Zr90    Zr   0.99997   0.00003   0.79684   1.000
    Zr91    Zr   0.99997   0.99993   0.79684   1.000
    Zr92    Zr   0.00007   0.00003   0.79684   1.000
    Zr93    Zr   0.33337   0.66663   0.36982   1.000
    Zr94    Zr   0.33337   0.66663   0.86982   1.000
    Zr95    Zr   0.99997   0.00003   0.29684   1.000
    Zr96    Zr   0.00007   0.00003   0.29684   1.000
    Zr97    Zr   0.99997   0.99993   0.29684   1.000
    Zr98    Zr   0.66663   0.33337   0.13018   1.000
    Zr99    Zr   0.00003   0.99997   0.70316   1.000
    Zr100   Zr   0.99993   0.99997   0.70316   1.000
    Zr101   Zr   0.00003   0.00007   0.70316   1.000
    Zr102   Zr   0.00003   0.99997   0.20316   1.000
    Zr103   Zr   0.00003   0.00007   0.20316   1.000
    Zr104   Zr   0.99993   0.99997   0.20316   1.000
    Zr105   Zr   0.66663   0.33337   0.63018   1.000
    Zr106   Zr   0.00000   0.00000   0.93755   1.000
    Zr107   Zr   0.00000   0.00000   0.43755   1.000
    Zr108   Zr   0.00000   0.00000   0.06245   1.000
    Zr109   Zr   0.66667   0.33333   0.89578   1.000
    Zr110   Zr   0.66667   0.33333   0.27088   1.000
    Zr111   Zr   0.66667   0.33333   0.77088   1.000
    Zr112   Zr   0.66667   0.33333   0.39578   1.000
    Zr113   Zr   0.33333   0.66667   0.22912   1.000
    Zr114   Zr   0.33333   0.66667   0.60422   1.000
    Zr115   Zr   0.33333   0.66667   0.10422   1.000
    Zr116   Zr   0.33333   0.66667   0.72912   1.000
    Zr117   Zr   0.66670   0.33330   0.01978   1.000
    Zr118   Zr   0.66670   0.33330   0.51978   1.000
    Zr119   Zr   0.33330   0.66670   0.98022   1.000
    Zr120   Zr   0.99997   0.00003   0.81355   1.000
    Zr121   Zr   0.99997   0.99993   0.81355   1.000
    Zr122   Zr   0.00007   0.00003   0.81355   1.000
    Zr123   Zr   0.33337   0.66663   0.35311   1.000
    Zr124   Zr   0.33337   0.66663   0.85311   1.000
    Zr125   Zr   0.99997   0.00003   0.31355   1.000
    Zr126   Zr   0.00007   0.00003   0.31355   1.000
    Zr127   Zr   0.99997   0.99993   0.31355   1.000
    Zr128   Zr   0.66663   0.33337   0.14689   1.000
    Zr129   Zr   0.00003   0.99997   0.68645   1.000
    Zr130   Zr   0.99993   0.99997   0.68645   1.000
    Zr131   Zr   0.00003   0.00007   0.68645   1.000
    Zr132   Zr   0.00003   0.99997   0.18645   1.000
    Zr133   Zr   0.00003   0.00007   0.18645   1.000
    Zr134   Zr   0.99993   0.99997   0.18645   1.000
    Zr135   Zr   0.66663   0.33337   0.64689   1.000
    O136    O    0.70900   0.34809   0.01678   1.000
    O137    O    0.66670   0.33330   0.02813   1.000
    O138    O    0.04224   0.02737   0.05952   1.000
    O139    O    0.97264   0.01487   0.05952   1.000
    O140    O    0.34820   0.63930   0.10715   1.000
    O141    O    0.36070   0.70890   0.10715   1.000
    O142    O    0.66663   0.33337   0.13853   1.000
    O143    O    0.68142   0.37566   0.14989   1.000
    O144    O    0.04233   0.02758   0.18345   1.000
    O145    O    0.97242   0.01475   0.18345   1.000
    O146    O    0.98525   0.95767   0.18345   1.000
    O147    O    0.99993   0.99997   0.19480   1.000
    O148    O    0.00003   0.00007   0.19480   1.000
    O149    O    0.00003   0.99997   0.19480   1.000
    O150    O    0.37557   0.68154   0.22618   1.000
    O151    O    0.31846   0.69403   0.22618   1.000
    O152    O    0.69403   0.31846   0.27382   1.000
    O153    O    0.68154   0.37557   0.27382   1.000
    O154    O    0.99997   0.99993   0.30520   1.000
    O155    O    0.00007   0.00003   0.30520   1.000
    O156    O    0.99997   0.00003   0.30520   1.000
    O157    O    0.02758   0.04233   0.31655   1.000
    O158    O    0.95767   0.98525   0.31655   1.000
    O159    O    0.01475   0.97242   0.31655   1.000
    O160    O    0.37566   0.68142   0.35011   1.000
    O161    O    0.33337   0.66663   0.36147   1.000
    O162    O    0.63930   0.34820   0.39285   1.000
    O163    O    0.65180   0.29110   0.39285   1.000
    O164    O    0.01487   0.97264   0.44048   1.000
    O165    O    0.02737   0.04224   0.44048   1.000
    O166    O    0.33330   0.66670   0.47187   1.000
    O167    O    0.34808   0.70900   0.48322   1.000
    O168    O    0.65191   0.29101   0.51678   1.000
    O169    O    0.66670   0.33330   0.52814   1.000
    O170    O    0.98513   0.02737   0.55951   1.000
    O171    O    0.04224   0.01487   0.55952   1.000
    O172    O    0.36070   0.65180   0.60715   1.000
    O173    O    0.34820   0.70890   0.60715   1.000
    O174    O    0.66663   0.33337   0.63853   1.000
    O175    O    0.62434   0.31858   0.64989   1.000
    O176    O    0.04233   0.01475   0.68345   1.000
    O177    O    0.98525   0.02758   0.68345   1.000
    O178    O    0.97242   0.95767   0.68345   1.000
    O179    O    0.00003   0.99997   0.69480   1.000
    O180    O    0.99993   0.99997   0.69480   1.000
    O181    O    0.00003   0.00007   0.69480   1.000
    O182    O    0.30597   0.68154   0.72618   1.000
    O183    O    0.37557   0.69403   0.72618   1.000
    O184    O    0.69403   0.37557   0.77382   1.000
    O185    O    0.68154   0.30597   0.77382   1.000
    O186    O    0.99997   0.99993   0.80520   1.000
    O187    O    0.99997   0.00003   0.80520   1.000
    O188    O    0.00007   0.00003   0.80520   1.000
    O189    O    0.02758   0.98525   0.81655   1.000
    O190    O    0.95767   0.97242   0.81655   1.000
    O191    O    0.01475   0.04233   0.81655   1.000
    O192    O    0.31858   0.62434   0.85011   1.000
    O193    O    0.33337   0.66663   0.86147   1.000
    O194    O    0.65180   0.36070   0.89285   1.000
    O195    O    0.63930   0.29110   0.89285   1.000
    O196    O    0.95776   0.97264   0.94048   1.000
    O197    O    0.02737   0.98513   0.94048   1.000
    O198    O    0.33330   0.66670   0.97187   1.000
    O199    O    0.29101   0.65192   0.98322   1.000
    O200    O    0.00000   0.00000   0.57105   1.000
    O201    O    0.97263   0.95776   0.55952   1.000
    O202    O    0.29101   0.63914   0.48322   1.000
    O203    O    0.36086   0.65192   0.48322   1.000
    O204    O    0.00000   0.00000   0.92896   1.000
    O205    O    0.01487   0.04224   0.94048   1.000
    O206    O    0.00000   0.00000   0.42895   1.000
    O207    O    0.95776   0.98513   0.44048   1.000
    O208    O    0.00000   0.00000   0.07105   1.000
    O209    O    0.98513   0.95776   0.05952   1.000
    O210    O    0.66667   0.33333   0.90438   1.000
    O211    O    0.70890   0.34820   0.89285   1.000
    O212    O    0.66667   0.33333   0.26229   1.000
    O213    O    0.62443   0.30597   0.27382   1.000
    O214    O    0.66667   0.33333   0.76229   1.000
    O215    O    0.62443   0.31846   0.77382   1.000
    O216    O    0.66667   0.33333   0.40438   1.000
    O217    O    0.70890   0.36070   0.39285   1.000
    O218    O    0.33333   0.66667   0.23771   1.000
    O219    O    0.30597   0.62443   0.22618   1.000
    O220    O    0.33333   0.66667   0.59562   1.000
    O221    O    0.29110   0.63930   0.60715   1.000
    O222    O    0.33333   0.66667   0.09562   1.000
    O223    O    0.29110   0.65180   0.10715   1.000
    O224    O    0.33333   0.66667   0.73771   1.000
    O225    O    0.31846   0.62443   0.72618   1.000
    O226    O    0.63914   0.29101   0.01678   1.000
    O227    O    0.65191   0.36086   0.01678   1.000
    O228    O    0.70899   0.36086   0.51678   1.000
    O229    O    0.63914   0.34809   0.51678   1.000
    O230    O    0.36086   0.70900   0.98322   1.000
    O231    O    0.34809   0.63914   0.98322   1.000
    O232    O    0.95767   0.97247   0.81655   1.000
    O233    O    0.02753   0.98525   0.81655   1.000
    O234    O    0.99997   0.99998   0.80520   1.000
    O235    O    0.00002   0.00003   0.80520   1.000
    O236    O    0.02753   0.98520   0.81655   1.000
    O237    O    0.01475   0.04228   0.81655   1.000
    O238    O    0.99997   0.99998   0.80520   1.000
    O239    O    0.00002   0.99998   0.80520   1.000
    O240    O    0.95772   0.97247   0.81655   1.000
    O241    O    0.01480   0.04233   0.81655   1.000
    O242    O    0.00002   0.00003   0.80520   1.000
    O243    O    0.00002   0.99998   0.80520   1.000
    O244    O    0.30581   0.62434   0.35011   1.000
    O245    O    0.31858   0.69419   0.35011   1.000
    O246    O    0.37566   0.69419   0.85011   1.000
    O247    O    0.30581   0.68142   0.85011   1.000
    O248    O    0.02753   0.04233   0.31655   1.000
    O249    O    0.01475   0.97247   0.31655   1.000
    O250    O    0.00002   0.00003   0.30520   1.000
    O251    O    0.99997   0.99998   0.30520   1.000
    O252    O    0.01480   0.97247   0.31655   1.000
    O253    O    0.95772   0.98525   0.31655   1.000
    O254    O    0.00002   0.00003   0.30520   1.000
    O255    O    0.00002   0.99998   0.30520   1.000
    O256    O    0.02753   0.04228   0.31655   1.000
    O257    O    0.95767   0.98520   0.31655   1.000
    O258    O    0.99997   0.99998   0.30520   1.000
    O259    O    0.00002   0.99998   0.30520   1.000
    O260    O    0.62434   0.30581   0.14989   1.000
    O261    O    0.69419   0.31858   0.14989   1.000
    O262    O    0.97247   0.95767   0.68345   1.000
    O263    O    0.98525   0.02753   0.68345   1.000
    O264    O    0.99998   0.99997   0.69480   1.000
    O265    O    0.00003   0.00002   0.69480   1.000
    O266    O    0.98520   0.02753   0.68345   1.000
    O267    O    0.04228   0.01475   0.68345   1.000
    O268    O    0.99998   0.99997   0.69480   1.000
    O269    O    0.99998   0.00002   0.69480   1.000
    O270    O    0.97247   0.95772   0.68345   1.000
    O271    O    0.04233   0.01480   0.68345   1.000
    O272    O    0.00003   0.00002   0.69480   1.000
    O273    O    0.99998   0.00002   0.69480   1.000
    O274    O    0.04233   0.02753   0.18345   1.000
    O275    O    0.97247   0.01475   0.18345   1.000
    O276    O    0.00003   0.00002   0.19480   1.000
    O277    O    0.99998   0.99997   0.19480   1.000
    O278    O    0.97247   0.01480   0.18345   1.000
    O279    O    0.98525   0.95772   0.18345   1.000
    O280    O    0.00003   0.00002   0.19480   1.000
    O281    O    0.99998   0.00002   0.19480   1.000
    O282    O    0.04228   0.02753   0.18345   1.000
    O283    O    0.98520   0.95767   0.18345   1.000
    O284    O    0.99998   0.99997   0.19480   1.000
    O285    O    0.99998   0.00002   0.19480   1.000
    O286    O    0.69419   0.37566   0.64989   1.000
    O287    O    0.68142   0.30581   0.64989   1.000
    N288    N    0.50650   0.99767   0.43781   1.000
    O289    O    0.57804   0.14464   0.42694   1.000
    O290    O    0.56466   0.10875   0.41699   1.000
    O291    O    0.43977   0.88798   0.45851   1.000
    O292    O    0.43377   0.85281   0.44903   1.000
    N293    N    0.00233   0.49350   0.93781   1.000
    O294    O    0.85536   0.42196   0.92694   1.000
    O295    O    0.89125   0.43534   0.91699   1.000
    O296    O    0.11202   0.56023   0.95851   1.000
    O297    O    0.14719   0.56623   0.94903   1.000
    N298    N    0.49117   0.99767   0.93781   1.000
    O299    O    0.56660   0.14464   0.92694   1.000
    O300    O    0.54409   0.10875   0.91699   1.000
    O301    O    0.44822   0.88798   0.95851   1.000
    O302    O    0.41901   0.85281   0.94903   1.000
    N303    N    0.50650   0.50883   0.93781   1.000
    O304    O    0.57804   0.43340   0.92694   1.000
    O305    O    0.56466   0.45591   0.91699   1.000
    O306    O    0.43977   0.55178   0.95851   1.000
    O307    O    0.43377   0.58099   0.94903   1.000
    N308    N    0.17316   0.33100   0.77115   1.000
    O309    O    0.24471   0.47798   0.76027   1.000
    O310    O    0.23132   0.44208   0.75033   1.000
    O311    O    0.10643   0.22131   0.79185   1.000
    O312    O    0.10044   0.18614   0.78236   1.000
    O313    O    0.10044   0.18612   0.78236   1.000
    O314    O    0.10047   0.18614   0.78236   1.000
    N315    N    0.66900   0.84216   0.77115   1.000
    O316    O    0.52202   0.76673   0.76027   1.000
    O317    O    0.55792   0.78924   0.75033   1.000
    O318    O    0.77869   0.88512   0.79185   1.000
    O319    O    0.81386   0.91432   0.78236   1.000
    O320    O    0.81386   0.91430   0.78236   1.000
    O321    O    0.81388   0.91432   0.78236   1.000
    N322    N    0.15784   0.82684   0.77115   1.000
    O323    O    0.23327   0.75529   0.76027   1.000
    O324    O    0.21076   0.76868   0.75033   1.000
    O325    O    0.11488   0.89357   0.79185   1.000
    O326    O    0.08568   0.89956   0.78236   1.000
    O327    O    0.08568   0.89953   0.78236   1.000
    O328    O    0.08570   0.89956   0.78236   1.000
    N329    N    0.66433   0.83983   0.39552   1.000
    O330    O    0.81131   0.91137   0.40639   1.000
    O331    O    0.77542   0.89799   0.41634   1.000
    O332    O    0.55465   0.77310   0.37482   1.000
    O333    O    0.51948   0.76711   0.38430   1.000
    N334    N    0.17550   0.33567   0.39552   1.000
    O335    O    0.10006   0.18869   0.40639   1.000
    O336    O    0.12257   0.22458   0.41634   1.000
    O337    O    0.21845   0.44535   0.37482   1.000
    O338    O    0.24766   0.48052   0.38430   1.000
    N339    N    0.16017   0.82450   0.39552   1.000
    O340    O    0.08863   0.89994   0.40639   1.000
    O341    O    0.10201   0.87743   0.41634   1.000
    O342    O    0.22690   0.78155   0.37482   1.000
    O343    O    0.23289   0.75234   0.38430   1.000
    N344    N    0.16017   0.33567   0.89552   1.000
    O345    O    0.08863   0.18869   0.90639   1.000
    O346    O    0.10201   0.22458   0.91634   1.000
    O347    O    0.22690   0.44535   0.87482   1.000
    O348    O    0.23289   0.48052   0.88430   1.000
    N349    N    0.66433   0.82450   0.89552   1.000
    O350    O    0.81131   0.89994   0.90639   1.000
    O351    O    0.77542   0.87743   0.91634   1.000
    O352    O    0.55465   0.78155   0.87482   1.000
    O353    O    0.51948   0.75234   0.88430   1.000
    N354    N    0.17550   0.83983   0.89552   1.000
    O355    O    0.10006   0.91137   0.90639   1.000
    O356    O    0.12257   0.89799   0.91634   1.000
    O357    O    0.21845   0.77310   0.87482   1.000
    O358    O    0.24766   0.76711   0.88430   1.000
    N359    N    0.66900   0.82684   0.27115   1.000
    O360    O    0.52202   0.75529   0.26027   1.000
    O361    O    0.55792   0.76868   0.25033   1.000
    O362    O    0.77869   0.89357   0.29185   1.000
    O363    O    0.81386   0.89956   0.28236   1.000
    O364    O    0.81388   0.89956   0.28236   1.000
    O365    O    0.81386   0.89953   0.28236   1.000
    N366    N    0.15784   0.33100   0.27115   1.000
    O367    O    0.21076   0.44208   0.25033   1.000
    O368    O    0.23327   0.47798   0.26027   1.000
    O369    O    0.11488   0.22131   0.29185   1.000
    O370    O    0.08568   0.18614   0.28236   1.000
    O371    O    0.08570   0.18614   0.28236   1.000
    O372    O    0.08568   0.18612   0.28236   1.000
    N373    N    0.17316   0.84216   0.27115   1.000
    O374    O    0.23132   0.78924   0.25033   1.000
    O375    O    0.24471   0.76673   0.26027   1.000
    O376    O    0.10643   0.88512   0.29185   1.000
    O377    O    0.10044   0.91432   0.28236   1.000
    O378    O    0.10047   0.91432   0.28236   1.000
    O379    O    0.10044   0.91430   0.28236   1.000
    N380    N    0.83983   0.66433   0.10448   1.000
    O381    O    0.89799   0.77542   0.08366   1.000
    O382    O    0.91137   0.81131   0.09361   1.000
    O383    O    0.77310   0.55465   0.12518   1.000
    O384    O    0.76711   0.51948   0.11570   1.000
    N385    N    0.33567   0.17550   0.10448   1.000
    O386    O    0.22458   0.12257   0.08366   1.000
    O387    O    0.18869   0.10006   0.09361   1.000
    O388    O    0.44535   0.21845   0.12518   1.000
    O389    O    0.48052   0.24766   0.11570   1.000
    N390    N    0.82450   0.16017   0.10448   1.000
    O391    O    0.87743   0.10201   0.08366   1.000
    O392    O    0.89994   0.08863   0.09361   1.000
    O393    O    0.75234   0.23289   0.11570   1.000
    O394    O    0.78155   0.22690   0.12518   1.000
    N395    N    0.33100   0.17316   0.72885   1.000
    O396    O    0.44208   0.23132   0.74967   1.000
    O397    O    0.47798   0.24471   0.73973   1.000
    O398    O    0.18614   0.10044   0.71764   1.000
    O399    O    0.18612   0.10044   0.71764   1.000
    O400    O    0.18614   0.10047   0.71764   1.000
    O401    O    0.22131   0.10643   0.70815   1.000
    N402    N    0.84216   0.66900   0.72885   1.000
    O403    O    0.78924   0.55792   0.74967   1.000
    O404    O    0.76673   0.52202   0.73973   1.000
    O405    O    0.91432   0.81386   0.71764   1.000
    O406    O    0.91430   0.81386   0.71764   1.000
    O407    O    0.91432   0.81388   0.71764   1.000
    O408    O    0.88512   0.77869   0.70815   1.000
    N409    N    0.82684   0.15784   0.72885   1.000
    O410    O    0.76868   0.21076   0.74967   1.000
    O411    O    0.75529   0.23327   0.73973   1.000
    O412    O    0.89956   0.08568   0.71764   1.000
    O413    O    0.89953   0.08568   0.71764   1.000
    O414    O    0.89956   0.08570   0.71764   1.000
    O415    O    0.89357   0.11488   0.70815   1.000
    N416    N    0.82684   0.66900   0.22885   1.000
    O417    O    0.76868   0.55792   0.24967   1.000
    O418    O    0.75529   0.52202   0.23973   1.000
    O419    O    0.89956   0.81386   0.21764   1.000
    O420    O    0.89956   0.81388   0.21764   1.000
    O421    O    0.89953   0.81386   0.21764   1.000
    O422    O    0.89357   0.77869   0.20815   1.000
    N423    N    0.33100   0.15784   0.22885   1.000
    O424    O    0.44208   0.21076   0.24967   1.000
    O425    O    0.47798   0.23327   0.23973   1.000
    O426    O    0.18614   0.08568   0.21764   1.000
    O427    O    0.18614   0.08570   0.21764   1.000
    O428    O    0.18612   0.08568   0.21764   1.000
    O429    O    0.22131   0.11488   0.20815   1.000
    N430    N    0.84216   0.17316   0.22885   1.000
    O431    O    0.78924   0.23132   0.24967   1.000
    O432    O    0.76673   0.24471   0.23973   1.000
    O433    O    0.91432   0.10044   0.21764   1.000
    O434    O    0.91432   0.10047   0.21764   1.000
    O435    O    0.91430   0.10044   0.21764   1.000
    O436    O    0.88512   0.10643   0.20815   1.000
    N437    N    0.33567   0.16017   0.60448   1.000
    O438    O    0.22458   0.10201   0.58366   1.000
    O439    O    0.18869   0.08863   0.59361   1.000
    O440    O    0.48052   0.23289   0.61570   1.000
    O441    O    0.44535   0.22690   0.62518   1.000
    N442    N    0.82450   0.66433   0.60448   1.000
    O443    O    0.87743   0.77542   0.58366   1.000
    O444    O    0.89994   0.81131   0.59361   1.000
    O445    O    0.75234   0.51948   0.61570   1.000
    O446    O    0.78155   0.55465   0.62518   1.000
    N447    N    0.83983   0.17550   0.60448   1.000
    O448    O    0.89799   0.12257   0.58366   1.000
    O449    O    0.91137   0.10006   0.59361   1.000
    O450    O    0.76711   0.24766   0.61570   1.000
    O451    O    0.77310   0.21845   0.62518   1.000
    N452    N    0.00233   0.50883   0.43781   1.000
    O453    O    0.85536   0.43340   0.42694   1.000
    O454    O    0.89125   0.45591   0.41699   1.000
    O455    O    0.11202   0.55178   0.45851   1.000
    O456    O    0.14719   0.58099   0.44903   1.000
    N457    N    0.49117   0.49350   0.43781   1.000
    O458    O    0.56660   0.42196   0.42694   1.000
    O459    O    0.54409   0.43534   0.41699   1.000
    O460    O    0.44822   0.56023   0.45851   1.000
    O461    O    0.41901   0.56623   0.44903   1.000
    N462    N    0.99767   0.50650   0.06219   1.000
    O463    O    0.14464   0.57804   0.07306   1.000
    O464    O    0.10875   0.56466   0.08301   1.000
    O465    O    0.88798   0.43977   0.04149   1.000
    O466    O    0.85281   0.43377   0.05097   1.000
    N467    N    0.50883   0.00233   0.06219   1.000
    O468    O    0.43340   0.85536   0.07306   1.000
    O469    O    0.45591   0.89125   0.08301   1.000
    O470    O    0.55178   0.11202   0.04149   1.000
    O471    O    0.58099   0.14719   0.05097   1.000
    N472    N    0.49350   0.49117   0.06219   1.000
    O473    O    0.42196   0.56660   0.07306   1.000
    O474    O    0.43534   0.54409   0.08301   1.000
    O475    O    0.56023   0.44822   0.04149   1.000
    O476    O    0.56623   0.41901   0.05097   1.000
    N477    N    0.49350   0.00233   0.56219   1.000
    O478    O    0.42196   0.85536   0.57306   1.000
    O479    O    0.43534   0.89125   0.58301   1.000
    O480    O    0.56023   0.11202   0.54149   1.000
    O481    O    0.56623   0.14719   0.55097   1.000
    N482    N    0.99767   0.49117   0.56219   1.000
    O483    O    0.14464   0.56660   0.57306   1.000
    O484    O    0.10875   0.54409   0.58301   1.000
    O485    O    0.88798   0.44822   0.54149   1.000
    O486    O    0.85281   0.41901   0.55097   1.000
    N487    N    0.50883   0.50650   0.56219   1.000
    O488    O    0.43340   0.57804   0.57306   1.000
    O489    O    0.45591   0.56466   0.58301   1.000
    O490    O    0.55178   0.43977   0.54149   1.000
    O491    O    0.58099   0.43377   0.55097   1.000
    N492    N    0.21162   0.33075   0.52022   1.000
    O493    O    0.28854   0.46416   0.50506   1.000
    O494    O    0.10745   0.21021   0.53650   1.000
    O495    O    0.22674   0.45300   0.50491   1.000
    O496    O    0.15595   0.19854   0.53594   1.000
    N497    N    0.21420   0.33591   0.64645   1.000
    O498    O    0.29075   0.46813   0.63073   1.000
    O499    O    0.15772   0.20251   0.66161   1.000
    O500    O    0.23058   0.45646   0.63017   1.000
    O501    O    0.10708   0.21367   0.66175   1.000
    N502    N    0.12171   0.78580   0.64645   1.000
    O503    O    0.17738   0.70925   0.63073   1.000
    O504    O    0.04479   0.84228   0.66161   1.000
    O505    O    0.22588   0.76942   0.63017   1.000
    O506    O    0.10659   0.89292   0.66175   1.000
    N507    N    0.12171   0.33591   0.14645   1.000
    O508    O    0.17738   0.46813   0.13073   1.000
    O509    O    0.04479   0.20251   0.16161   1.000
    O510    O    0.22588   0.45646   0.13017   1.000
    O511    O    0.10659   0.21367   0.16175   1.000
    N512    N    0.66409   0.78580   0.14645   1.000
    O513    O    0.53187   0.70925   0.13073   1.000
    O514    O    0.79749   0.84228   0.16161   1.000
    O515    O    0.54354   0.76942   0.13017   1.000
    O516    O    0.78633   0.89292   0.16175   1.000
    N517    N    0.21420   0.87829   0.14645   1.000
    O518    O    0.29075   0.82262   0.13073   1.000
    O519    O    0.15772   0.95521   0.16161   1.000
    O520    O    0.23058   0.77412   0.13017   1.000
    O521    O    0.10708   0.89341   0.16175   1.000
    N522    N    0.00258   0.45504   0.68689   1.000
    O523    O    0.13480   0.51071   0.70260   1.000
    O524    O    0.86917   0.37812   0.67172   1.000
    O525    O    0.12312   0.55921   0.70316   1.000
    O526    O    0.88034   0.43993   0.67158   1.000
    N527    N    0.45246   0.99742   0.68689   1.000
    O528    O    0.37592   0.86520   0.70260   1.000
    O529    O    0.50895   0.13083   0.67172   1.000
    O530    O    0.43609   0.87688   0.70316   1.000
    O531    O    0.55959   0.11966   0.67158   1.000
    N532    N    0.54496   0.54754   0.68689   1.000
    O533    O    0.48929   0.62408   0.70260   1.000
    O534    O    0.62188   0.49105   0.67172   1.000
    O535    O    0.44079   0.56391   0.70316   1.000
    O536    O    0.56007   0.44041   0.67158   1.000
    N537    N    0.66925   0.88087   0.52022   1.000
    O538    O    0.78979   0.89724   0.53650   1.000
    O539    O    0.54700   0.77374   0.50491   1.000
    O540    O    0.80146   0.95742   0.53594   1.000
    O541    O    0.53584   0.82438   0.50506   1.000
    N542    N    0.11913   0.78838   0.52022   1.000
    O543    O    0.10276   0.89255   0.53650   1.000
    O544    O    0.22626   0.77326   0.50491   1.000
    O545    O    0.04258   0.84405   0.53594   1.000
    O546    O    0.17562   0.71146   0.50506   1.000
    N547    N    0.33075   0.21162   0.97978   1.000
    O548    O    0.21021   0.10745   0.96350   1.000
    O549    O    0.45300   0.22674   0.99509   1.000
    O550    O    0.19854   0.15595   0.96406   1.000
    O551    O    0.46416   0.28854   0.99494   1.000
    N552    N    0.88087   0.66925   0.97978   1.000
    O553    O    0.89724   0.78979   0.96350   1.000
    O554    O    0.77374   0.54700   0.99509   1.000
    O555    O    0.95742   0.80146   0.96406   1.000
    O556    O    0.82438   0.53584   0.99494   1.000
    N557    N    0.78838   0.11913   0.97978   1.000
    O558    O    0.89255   0.10276   0.96350   1.000
    O559    O    0.77326   0.22626   0.99509   1.000
    O560    O    0.84405   0.04258   0.96406   1.000
    O561    O    0.71146   0.17562   0.99494   1.000
    N562    N    0.78838   0.66925   0.47978   1.000
    O563    O    0.89255   0.78979   0.46350   1.000
    O564    O    0.84405   0.80146   0.46406   1.000
    O565    O    0.77326   0.54700   0.49509   1.000
    O566    O    0.71146   0.53584   0.49494   1.000
    N567    N    0.33075   0.11913   0.47978   1.000
    O568    O    0.21021   0.10276   0.46350   1.000
    O569    O    0.19854   0.04258   0.46406   1.000
    O570    O    0.45300   0.22626   0.49509   1.000
    O571    O    0.46416   0.17562   0.49494   1.000
    N572    N    0.88087   0.21162   0.47978   1.000
    O573    O    0.89724   0.10745   0.46350   1.000
    O574    O    0.95742   0.15595   0.46406   1.000
    O575    O    0.77374   0.22674   0.49509   1.000
    O576    O    0.82438   0.28854   0.49494   1.000
    N577    N    0.66925   0.78838   0.02022   1.000
    O578    O    0.78979   0.89255   0.03650   1.000
    O579    O    0.80146   0.84405   0.03594   1.000
    O580    O    0.54700   0.77326   0.00491   1.000
    O581    O    0.53584   0.71146   0.00506   1.000
    N582    N    0.11913   0.33075   0.02022   1.000
    O583    O    0.10276   0.21021   0.03650   1.000
    O584    O    0.04258   0.19854   0.03594   1.000
    O585    O    0.22626   0.45300   0.00491   1.000
    O586    O    0.17562   0.46416   0.00506   1.000
    N587    N    0.21162   0.88087   0.02022   1.000
    O588    O    0.10745   0.89724   0.03650   1.000
    O589    O    0.15595   0.95742   0.03594   1.000
    O590    O    0.22674   0.77374   0.00491   1.000
    O591    O    0.28854   0.82438   0.00506   1.000
    N592    N    0.87829   0.66409   0.85355   1.000
    O593    O    0.77412   0.54354   0.86983   1.000
    O594    O    0.82262   0.53187   0.86927   1.000
    O595    O    0.89341   0.78633   0.83825   1.000
    O596    O    0.95521   0.79749   0.83839   1.000
    N597    N    0.33591   0.21420   0.85355   1.000
    O598    O    0.45646   0.23058   0.86983   1.000
    O599    O    0.46813   0.29075   0.86927   1.000
    O600    O    0.21367   0.10708   0.83825   1.000
    O601    O    0.20251   0.15772   0.83839   1.000
    N602    N    0.78580   0.12171   0.85355   1.000
    O603    O    0.76942   0.22588   0.86983   1.000
    O604    O    0.70925   0.17738   0.86927   1.000
    O605    O    0.89292   0.10659   0.83825   1.000
    O606    O    0.84228   0.04479   0.83839   1.000
    N607    N    0.99742   0.54496   0.31311   1.000
    O608    O    0.87688   0.44078   0.29684   1.000
    O609    O    0.86520   0.48929   0.29740   1.000
    O610    O    0.11966   0.56007   0.32842   1.000
    O611    O    0.13083   0.62187   0.32828   1.000
    N612    N    0.54754   0.00258   0.31311   1.000
    O613    O    0.62408   0.13480   0.29740   1.000
    O614    O    0.49105   0.86917   0.32828   1.000
    O615    O    0.56391   0.12312   0.29684   1.000
    O616    O    0.44041   0.88034   0.32842   1.000
    N617    N    0.45504   0.45246   0.31311   1.000
    O618    O    0.51071   0.37592   0.29740   1.000
    O619    O    0.37812   0.50895   0.32828   1.000
    O620    O    0.55921   0.43609   0.29684   1.000
    O621    O    0.43993   0.55959   0.32842   1.000
    N622    N    0.45504   0.00258   0.81311   1.000
    O623    O    0.51071   0.13480   0.79740   1.000
    O624    O    0.37813   0.86917   0.82828   1.000
    O625    O    0.55921   0.12312   0.79684   1.000
    O626    O    0.43993   0.88034   0.82842   1.000
    N627    N    0.99742   0.45246   0.81311   1.000
    O628    O    0.86520   0.37592   0.79740   1.000
    O629    O    0.13083   0.50895   0.82828   1.000
    O630    O    0.87688   0.43609   0.79684   1.000
    O631    O    0.11966   0.55959   0.82842   1.000
    N632    N    0.54754   0.54496   0.81311   1.000
    O633    O    0.62408   0.48929   0.79740   1.000
    O634    O    0.49105   0.62188   0.82828   1.000
    O635    O    0.56391   0.44079   0.79684   1.000
    O636    O    0.44041   0.56007   0.82842   1.000
    N637    N    0.33591   0.12171   0.35355   1.000
    O638    O    0.46813   0.17738   0.36927   1.000
    O639    O    0.20251   0.04479   0.33839   1.000
    O640    O    0.45646   0.22588   0.36983   1.000
    O641    O    0.21367   0.10659   0.33825   1.000
    N642    N    0.78580   0.66409   0.35355   1.000
    O643    O    0.70925   0.53187   0.36927   1.000
    O644    O    0.84228   0.79749   0.33839   1.000
    O645    O    0.76942   0.54354   0.36983   1.000
    O646    O    0.89292   0.78633   0.33825   1.000
    N647    N    0.87829   0.21420   0.35355   1.000
    O648    O    0.82262   0.29075   0.36927   1.000
    O649    O    0.95521   0.15772   0.33839   1.000
    O650    O    0.77412   0.23058   0.36983   1.000
    O651    O    0.89341   0.10708   0.33825   1.000
    N652    N    0.54496   0.99742   0.18689   1.000
    O653    O    0.48929   0.86520   0.20260   1.000
    O654    O    0.62188   0.13083   0.17172   1.000
    O655    O    0.44079   0.87688   0.20316   1.000
    O656    O    0.56007   0.11966   0.17158   1.000
    N657    N    0.00258   0.54754   0.18689   1.000
    O658    O    0.13480   0.62408   0.20260   1.000
    O659    O    0.86917   0.49105   0.17172   1.000
    O660    O    0.12312   0.56391   0.20316   1.000
    O661    O    0.88034   0.44041   0.17158   1.000
    N662    N    0.45246   0.45504   0.18689   1.000
    O663    O    0.37592   0.51071   0.20260   1.000
    O664    O    0.50895   0.37812   0.17172   1.000
    O665    O    0.43609   0.55921   0.20316   1.000
    O666    O    0.55959   0.43993   0.17158   1.000
    N667    N    0.66409   0.87829   0.64645   1.000
    O668    O    0.53187   0.82262   0.63073   1.000
    O669    O    0.79749   0.95521   0.66161   1.000
    O670    O    0.54354   0.77412   0.63017   1.000
    O671    O    0.78633   0.89341   0.66175   1.000
loop_
    _geom_bond_atom_site_label_1
    _geom_bond_atom_site_label_2
    _geom_bond_distance
    _geom_bond_site_symmetry_2
    _ccdc_geom_bond_type
    Zr56   O136      0.97060      .   S
    Zr117  O136      0.97060      .   S
    Zr117  O137      0.94408      .   S
    Zr87   O137      0.94408      .   S
    Zr26   O138      0.96644      .   S
    Zr108  O138      0.96644      .   S
    Zr25   O139      0.96644      .   S
    Zr108  O139      0.96644  1_455   S
    Zr115  O140      0.96644      .   S
    Zr46   O140      0.96644      .   S
    Zr115  O141      0.96644      .   S
    Zr47   O141      0.96644      .   S
    Zr98   O142      0.94408      .   S
    Zr128  O142      0.94408      .   S
    Zr128  O143      0.97060      .   S
    Zr77   O143      0.97060      .   S
    Zr81   O144      0.97060      .   S
    Zr133  O144      0.97060      .   S
    Zr82   O145      0.97060      .   S
    Zr134  O145      0.97060  1_565   S
    Zr83   O146      0.97060      .   S
    Zr132  O146      0.97060  1_455   S
    Zr134  O147      0.94408      .   S
    Zr104  O147      0.94408      .   S
    Zr133  O148      0.94408      .   S
    Zr103  O148      0.94408      .   S
    Zr132  O149      0.94408      .   S
    Zr102  O149      0.94408      .   S
    Zr42   O150      0.96644      .   S
    Zr113  O150      0.96644      .   S
    Zr40   O151      0.96644      .   S
    Zr113  O151      0.96644      .   S
    Zr110  O152      0.96644      .   S
    Zr31   O152      0.96644      .   S
    Zr110  O153      0.96644      .   S
    Zr33   O153      0.96644      .   S
    Zr97   O154      0.94408      .   S
    Zr127  O154      0.94408      .   S
    Zr96   O155      0.94408      .   S
    Zr126  O155      0.94408      .   S
    Zr95   O156      0.94408      .   S
    Zr125  O156      0.94408      .   S
    Zr126  O157      0.97060      .   S
    Zr72   O157      0.97060      .   S
    Zr125  O158      0.97060  1_545   S
    Zr74   O158      0.97060      .   S
    Zr127  O159      0.97060  1_655   S
    Zr73   O159      0.97060      .   S
    Zr68   O160      0.97060      .   S
    Zr123  O160      0.97060      .   S
    Zr123  O161      0.94408      .   S
    Zr93   O161      0.94408      .   S
    Zr37   O162      0.96644      .   S
    Zr112  O162      0.96644      .   S
    Zr39   O163      0.96644      .   S
    Zr112  O163      0.96644      .   S
    Zr107  O164      0.96644  1_545   S
    Zr22   O164      0.96644      .   S
    Zr107  O165      0.96644      .   S
    Zr23   O165      0.96644      .   S
    Zr3    O166      0.94408      .   S
    Zr5    O166      0.94408      .   S
    Zr5    O167      0.97060      .   S
    Zr53   O167      0.97060      .   S
    Zr59   O168      0.97060      .   S
    Zr118  O168      0.97060      .   S
    Zr118  O169      0.94408      .   S
    Zr88   O169      0.94408      .   S
    Zr1    O170      0.96644      .   S
    Zr4    O170      0.96644  1_455   S
    Zr18   O171      0.96644      .   S
    Zr4    O171      0.96644      .   S
    Zr114  O172      0.96644      .   S
    Zr43   O172      0.96644      .   S
    Zr114  O173      0.96644      .   S
    Zr45   O173      0.96644      .   S
    Zr105  O174      0.94408      .   S
    Zr135  O174      0.94408      .   S
    Zr135  O175      0.97060      .   S
    Zr86   O175      0.97060      .   S
    Zr80   O176      0.97060      .   S
    Zr129  O176      0.97060  1_565   S
    Zr79   O177      0.97060      .   S
    Zr131  O177      0.97060  1_455   S
    Zr78   O178      0.97060      .   S
    Zr130  O178      0.97060      .   S
    Zr129  O179      0.94408      .   S
    Zr99   O179      0.94408      .   S
    Zr130  O180      0.94408      .   S
    Zr100  O180      0.94408      .   S
    Zr131  O181      0.94408      .   S
    Zr101  O181      0.94408      .   S
    Zr49   O182      0.96644      .   S
    Zr116  O182      0.96644      .   S
    Zr50   O183      0.96644      .   S
    Zr116  O183      0.96644      .   S
    Zr111  O184      0.96644      .   S
    Zr35   O184      0.96644      .   S
    Zr111  O185      0.96644      .   S
    Zr34   O185      0.96644      .   S
    Zr91   O186      0.94408      .   S
    Zr121  O186      0.94408      .   S
    Zr90   O187      0.94408      .   S
    Zr120  O187      0.94408      .   S
    Zr92   O188      0.94408      .   S
    Zr122  O188      0.94408      .   S
    Zr122  O189      0.97060  1_545   S
    Zr64   O189      0.97060      .   S
    Zr121  O190      0.97060      .   S
    Zr63   O190      0.97060      .   S
    Zr120  O191      0.97060  1_655   S
    Zr65   O191      0.97060      .   S
    Zr71   O192      0.97060      .   S
    Zr124  O192      0.97060      .   S
    Zr124  O193      0.94408      .   S
    Zr94   O193      0.94408      .   S
    Zr28   O194      0.96644      .   S
    Zr109  O194      0.96644      .   S
    Zr29   O195      0.96644      .   S
    Zr109  O195      0.96644      .   S
    Zr106  O196      0.96644  1_445   S
    Zr20   O196      0.96644      .   S
    Zr106  O197      0.96644  1_545   S
    Zr19   O197      0.96644      .   S
    Zr89   O198      0.94408      .   S
    Zr119  O198      0.94408      .   S
    Zr119  O199      0.97060      .   S
    Zr62   O199      0.97060      .   S
    Zr4    O200      0.97120      .   S
    Zr0    O200      0.97120      .   S
    Zr4    O201      0.96644  1_445   S
    Zr17   O201      0.96644      .   S
    Zr5    O202      0.97080      .   S
    Zr2    O202      0.97080      .   S
    Zr5    O203      0.97168      .   S
    Zr52   O203      0.97168      .   S
    Zr106  O204      0.97120      .   S
    Zr6    O204      0.97120      .   S
    Zr106  O205      0.96644      .   S
    Zr21   O205      0.96644      .   S
    Zr107  O206      0.97120      .   S
    Zr7    O206      0.97120      .   S
    Zr107  O207      0.96644  1_445   S
    Zr24   O207      0.96644      .   S
    Zr108  O208      0.97120      .   S
    Zr8    O208      0.97120      .   S
    Zr108  O209      0.96644  1_445   S
    Zr27   O209      0.96644      .   S
    Zr109  O210      0.97120      .   S
    Zr9    O210      0.97120      .   S
    Zr109  O211      0.96644      .   S
    Zr30   O211      0.96644      .   S
    Zr110  O212      0.97120      .   S
    Zr10   O212      0.97120      .   S
    Zr110  O213      0.96644      .   S
    Zr32   O213      0.96644      .   S
    Zr111  O214      0.97120      .   S
    Zr11   O214      0.97120      .   S
    Zr111  O215      0.96644      .   S
    Zr36   O215      0.96644      .   S
    Zr112  O216      0.97120      .   S
    Zr12   O216      0.97120      .   S
    Zr112  O217      0.96644      .   S
    Zr38   O217      0.96644      .   S
    Zr113  O218      0.97120      .   S
    Zr13   O218      0.97120      .   S
    Zr113  O219      0.96644      .   S
    Zr41   O219      0.96644      .   S
    Zr114  O220      0.97120      .   S
    Zr14   O220      0.97120      .   S
    Zr114  O221      0.96644      .   S
    Zr44   O221      0.96644      .   S
    Zr115  O222      0.97120      .   S
    Zr15   O222      0.97120      .   S
    Zr115  O223      0.96644      .   S
    Zr48   O223      0.96644      .   S
    Zr116  O224      0.97120      .   S
    Zr16   O224      0.97120      .   S
    Zr116  O225      0.96644      .   S
    Zr51   O225      0.96644      .   S
    Zr117  O226      0.97080      .   S
    Zr54   O226      0.97080      .   S
    Zr117  O227      0.97168      .   S
    Zr55   O227      0.97168      .   S
    Zr118  O228      0.97080      .   S
    Zr57   O228      0.97080      .   S
    Zr118  O229      0.97168      .   S
    Zr58   O229      0.97168      .   S
    Zr119  O230      0.97080      .   S
    Zr60   O230      0.97080      .   S
    Zr119  O231      0.97168      .   S
    Zr61   O231      0.97168      .   S
    Zr120  O232      0.97080  1_545   S
    Zr63   O232      0.97080      .   S
    Zr120  O233      0.97168  1_645   S
    Zr64   O233      0.97168      .   S
    Zr120  O234      0.94408  1_545   S
    Zr91   O234      0.94408      .   S
    Zr120  O235      0.94408  1_655   S
    Zr92   O235      0.94408      .   S
    Zr121  O236      0.97080  1_655   S
    Zr64   O236      0.97080      .   S
    Zr121  O237      0.97168  1_665   S
    Zr65   O237      0.97168      .   S
    Zr121  O238      0.94408      .   S
    Zr90   O238      0.94408  1_545   S
    Zr121  O239      0.94408  1_655   S
    Zr92   O239      0.94408  1_545   S
    Zr122  O240      0.97168  1_445   S
    Zr63   O240      0.97168      .   S
    Zr122  O241      0.97080      .   S
    Zr65   O241      0.97080      .   S
    Zr122  O242      0.94408      .   S
    Zr90   O242      0.94408  1_655   S
    Zr122  O243      0.94408  1_545   S
    Zr91   O243      0.94408  1_655   S
    Zr123  O244      0.97080      .   S
    Zr66   O244      0.97080      .   S
    Zr123  O245      0.97168      .   S
    Zr67   O245      0.97168      .   S
    Zr124  O246      0.97080      .   S
    Zr69   O246      0.97080      .   S
    Zr124  O247      0.97168      .   S
    Zr70   O247      0.97168      .   S
    Zr125  O248      0.97080  1_655   S
    Zr72   O248      0.97080      .   S
    Zr125  O249      0.97168  1_645   S
    Zr73   O249      0.97168      .   S
    Zr125  O250      0.94408  1_655   S
    Zr96   O250      0.94408      .   S
    Zr125  O251      0.94408  1_545   S
    Zr97   O251      0.94408      .   S
    Zr126  O252      0.97080  1_545   S
    Zr73   O252      0.97080      .   S
    Zr126  O253      0.97168  1_445   S
    Zr74   O253      0.97168      .   S
    Zr126  O254      0.94408      .   S
    Zr95   O254      0.94408  1_655   S
    Zr126  O255      0.94408  1_545   S
    Zr97   O255      0.94408  1_655   S
    Zr127  O256      0.97168  1_665   S
    Zr72   O256      0.97168      .   S
    Zr127  O257      0.97080      .   S
    Zr74   O257      0.97080      .   S
    Zr127  O258      0.94408      .   S
    Zr95   O258      0.94408  1_545   S
    Zr127  O259      0.94408  1_655   S
    Zr96   O259      0.94408  1_545   S
    Zr128  O260      0.97080      .   S
    Zr75   O260      0.97080      .   S
    Zr128  O261      0.97168      .   S
    Zr76   O261      0.97168      .   S
    Zr129  O262      0.97080  1_455   S
    Zr78   O262      0.97080      .   S
    Zr129  O263      0.97168  1_465   S
    Zr79   O263      0.97168      .   S
    Zr129  O264      0.94408  1_455   S
    Zr100  O264      0.94408      .   S
    Zr129  O265      0.94408  1_565   S
    Zr101  O265      0.94408      .   S
    Zr130  O266      0.97080  1_565   S
    Zr79   O266      0.97080      .   S
    Zr130  O267      0.97168  1_665   S
    Zr80   O267      0.97168      .   S
    Zr130  O268      0.94408      .   S
    Zr99   O268      0.94408  1_455   S
    Zr130  O269      0.94408  1_565   S
    Zr101  O269      0.94408  1_455   S
    Zr131  O270      0.97168  1_445   S
    Zr78   O270      0.97168      .   S
    Zr131  O271      0.97080      .   S
    Zr80   O271      0.97080      .   S
    Zr131  O272      0.94408      .   S
    Zr99   O272      0.94408  1_565   S
    Zr131  O273      0.94408  1_455   S
    Zr100  O273      0.94408  1_565   S
    Zr132  O274      0.97080  1_565   S
    Zr81   O274      0.97080      .   S
    Zr132  O275      0.97168  1_465   S
    Zr82   O275      0.97168      .   S
    Zr132  O276      0.94408  1_565   S
    Zr103  O276      0.94408      .   S
    Zr132  O277      0.94408  1_455   S
    Zr104  O277      0.94408      .   S
    Zr133  O278      0.97080  1_455   S
    Zr82   O278      0.97080      .   S
    Zr133  O279      0.97168  1_445   S
    Zr83   O279      0.97168      .   S
    Zr133  O280      0.94408      .   S
    Zr102  O280      0.94408  1_565   S
    Zr133  O281      0.94408  1_455   S
    Zr104  O281      0.94408  1_565   S
    Zr134  O282      0.97168  1_665   S
    Zr81   O282      0.97168      .   S
    Zr134  O283      0.97080      .   S
    Zr83   O283      0.97080      .   S
    Zr134  O284      0.94408      .   S
    Zr102  O284      0.94408  1_455   S
    Zr134  O285      0.94408  1_565   S
    Zr103  O285      0.94408  1_455   S
    Zr135  O286      0.97080      .   S
    Zr84   O286      0.97080      .   S
    Zr135  O287      0.97168      .   S
    Zr85   O287      0.97168      .   S
    N288   O289      3.34780  1_565   S
    Zr12   O289      4.30015      .   S
    N288   O290      3.32834  1_565   S
    Zr39   O290      4.26352      .   S
    N288   O291      3.30976      .   S
    Zr53   O291      4.26996      .   S
    N288   O292      3.32035      .   S
    Zr3    O292      4.27278      .   S
    N293   O294      3.34780  1_455   S
    Zr9    O294      4.30015      .   S
    N293   O295      3.32834  1_455   S
    Zr30   O295      4.26352      .   S
    N293   O296      3.30976      .   S
    Zr62   O296      4.26996      .   S
    N293   O297      3.32035      .   S
    Zr89   O297      4.27278      .   S
    N298   O299      3.34780  1_565   S
    Zr9    O299      4.30015      .   S
    N298   O300      3.32834  1_565   S
    Zr29   O300      4.26352      .   S
    N298   O301      3.30976      .   S
    Zr60   O301      4.26996      .   S
    N298   O302      3.32035      .   S
    Zr89   O302      4.27270      .   S
    N303   O304      3.34780      .   S
    Zr9    O304      4.30015      .   S
    N303   O305      3.32834      .   S
    Zr28   O305      4.26352      .   S
    N303   O306      3.30976      .   S
    Zr61   O306      4.26996      .   S
    N303   O307      3.32084      .   S
    Zr89   O307      4.27421      .   S
    N308   O309      3.34780      .   S
    Zr16   O309      4.30015      .   S
    N308   O310      3.32834      .   S
    Zr51   O310      4.26352      .   S
    N308   O311      3.30976      .   S
    Zr65   O311      4.26996      .   S
    N308   O312      3.32035      .   S
    Zr90   O312      4.27278  1_655   S
    N308   O313      3.32084      .   S
    Zr91   O313      4.27421  1_665   S
    N308   O314      3.32035      .   S
    Zr92   O314      4.27270      .   S
    N315   O316      3.34780      .   S
    Zr16   O316      4.30015      .   S
    N315   O317      3.32834      .   S
    Zr50   O317      4.26352      .   S
    N315   O318      3.30976      .   S
    Zr63   O318      4.26996      .   S
    N315   O319      3.32035      .   S
    Zr90   O319      4.27270  1_545   S
    N315   O320      3.32035      .   S
    Zr91   O320      4.27278      .   S
    N315   O321      3.32084      .   S
    Zr92   O321      4.27421  1_445   S
    N322   O323      3.34780      .   S
    Zr16   O323      4.30015      .   S
    N322   O324      3.32834      .   S
    Zr49   O324      4.26352      .   S
    N322   O325      3.30976      .   S
    Zr64   O325      4.26996      .   S
    N322   O326      3.32084      .   S
    Zr90   O326      4.27421  1_645   S
    N322   O327      3.32035      .   S
    Zr91   O327      4.27270  1_655   S
    N322   O328      3.32035      .   S
    Zr92   O328      4.27278  1_545   S
    N329   O330      3.34780      .   S
    Zr7    O330      4.30015  1_445   S
    N329   O331      3.32834      .   S
    Zr24   O331      4.26352      .   S
    N329   O332      3.30976      .   S
    Zr68   O332      4.26996      .   S
    N329   O333      3.32035      .   S
    Zr93   O333      4.27278      .   S
    N334   O335      3.34780      .   S
    Zr7    O335      4.30015      .   S
    N334   O336      3.32834      .   S
    Zr23   O336      4.26352      .   S
    N334   O337      3.30976      .   S
    Zr66   O337      4.26996      .   S
    N334   O338      3.32035      .   S
    Zr93   O338      4.27270      .   S
    N339   O340      3.34780      .   S
    Zr7    O340      4.30015  1_545   S
    N339   O341      3.32834      .   S
    Zr22   O341      4.26352      .   S
    N339   O342      3.30976      .   S
    Zr67   O342      4.26996      .   S
    N339   O343      3.32084      .   S
    Zr93   O343      4.27421      .   S
    N344   O345      3.34780      .   S
    Zr6    O345      4.30015      .   S
    N344   O346      3.32834      .   S
    Zr21   O346      4.26352      .   S
    N344   O347      3.30976      .   S
    Zr71   O347      4.26996      .   S
    N344   O348      3.32035      .   S
    Zr94   O348      4.27278      .   S
    N349   O350      3.34780      .   S
    Zr6    O350      4.30015  1_445   S
    N349   O351      3.32834      .   S
    Zr20   O351      4.26352      .   S
    N349   O352      3.30976      .   S
    Zr69   O352      4.26996      .   S
    N349   O353      3.32035      .   S
    Zr94   O353      4.27270      .   S
    N354   O355      3.34780      .   S
    Zr6    O355      4.30015  1_545   S
    N354   O356      3.32834      .   S
    Zr19   O356      4.26352      .   S
    N354   O357      3.30976      .   S
    Zr70   O357      4.26996      .   S
    N354   O358      3.32084      .   S
    Zr94   O358      4.27421      .   S
    N359   O360      3.34780      .   S
    Zr13   O360      4.30015      .   S
    N359   O361      3.32834      .   S
    Zr42   O361      4.26352      .   S
    N359   O362      3.30976      .   S
    Zr74   O362      4.26996      .   S
    N359   O363      3.32035      .   S
    Zr95   O363      4.27278  1_545   S
    N359   O364      3.32084      .   S
    Zr96   O364      4.27421  1_445   S
    N359   O365      3.32035      .   S
    Zr97   O365      4.27270      .   S
    N366   O367      3.32834      .   S
    Zr41   O367      4.26352      .   S
    N366   O368      3.34780      .   S
    Zr13   O368      4.30015      .   S
    N366   O369      3.30976      .   S
    Zr72   O369      4.26996      .   S
    N366   O370      3.32035      .   S
    Zr95   O370      4.27270  1_655   S
    N366   O371      3.32035      .   S
    Zr96   O371      4.27278      .   S
    N366   O372      3.32084      .   S
    Zr97   O372      4.27421  1_665   S
    N373   O374      3.32834      .   S
    Zr40   O374      4.26352      .   S
    N373   O375      3.34780      .   S
    Zr13   O375      4.30015      .   S
    N373   O376      3.30976      .   S
    Zr73   O376      4.26996      .   S
    N373   O377      3.32084      .   S
    Zr95   O377      4.27421  1_645   S
    N373   O378      3.32035      .   S
    Zr96   O378      4.27270  1_545   S
    N373   O379      3.32035      .   S
    Zr97   O379      4.27278  1_655   S
    N380   O381      3.32834      .   S
    Zr27   O381      4.26352      .   S
    N380   O382      3.34780      .   S
    Zr8    O382      4.30015  1_445   S
    N380   O383      3.30976      .   S
    Zr77   O383      4.26996      .   S
    N380   O384      3.32035      .   S
    Zr98   O384      4.27278      .   S
    N385   O386      3.32834      .   S
    Zr26   O386      4.26352      .   S
    N385   O387      3.34780      .   S
    Zr8    O387      4.30015      .   S
    N385   O388      3.30976      .   S
    Zr75   O388      4.26996      .   S
    N385   O389      3.32035      .   S
    Zr98   O389      4.27270      .   S
    N390   O391      3.32834      .   S
    Zr25   O391      4.26352      .   S
    N390   O392      3.34780      .   S
    Zr8    O392      4.30015  1_455   S
    N390   O393      3.32084      .   S
    Zr98   O393      4.27421      .   S
    N390   O394      3.30976      .   S
    Zr76   O394      4.26996      .   S
    N395   O396      3.32834      .   S
    Zr36   O396      4.26352      .   S
    N395   O397      3.34780      .   S
    Zr11   O397      4.30015      .   S
    N395   O398      3.32035      .   S
    Zr99   O398      4.27278  1_565   S
    N395   O399      3.32084      .   S
    Zr100  O399      4.27421  1_665   S
    N395   O400      3.32035      .   S
    Zr101  O400      4.27270      .   S
    N395   O401      3.30976      .   S
    Zr80   O401      4.26996      .   S
    N402   O403      3.32834      .   S
    Zr35   O403      4.26352      .   S
    N402   O404      3.34780      .   S
    Zr11   O404      4.30015      .   S
    N402   O405      3.32035      .   S
    Zr99   O405      4.27270  1_455   S
    N402   O406      3.32035      .   S
    Zr100  O406      4.27278      .   S
    N402   O407      3.32084      .   S
    Zr101  O407      4.27421  1_445   S
    N402   O408      3.30976      .   S
    Zr78   O408      4.26996      .   S
    N409   O410      3.32834      .   S
    Zr34   O410      4.26352      .   S
    N409   O411      3.34780      .   S
    Zr11   O411      4.30015      .   S
    N409   O412      3.32084      .   S
    Zr99   O412      4.27421  1_465   S
    N409   O413      3.32035      .   S
    Zr100  O413      4.27270  1_565   S
    N409   O414      3.32035      .   S
    Zr101  O414      4.27278  1_455   S
    N409   O415      3.30976      .   S
    Zr79   O415      4.26996      .   S
    N416   O417      3.32834      .   S
    Zr33   O417      4.26352      .   S
    N416   O418      3.34780      .   S
    Zr10   O418      4.30015      .   S
    N416   O419      3.32035      .   S
    Zr102  O419      4.27278  1_455   S
    N416   O420      3.32084      .   S
    Zr103  O420      4.27421  1_445   S
    N416   O421      3.32035      .   S
    Zr104  O421      4.27270      .   S
    N416   O422      3.30976      .   S
    Zr83   O422      4.26996      .   S
    N423   O424      3.32834      .   S
    Zr32   O424      4.26352      .   S
    N423   O425      3.34780      .   S
    Zr10   O425      4.30015      .   S
    N423   O426      3.32035      .   S
    Zr102  O426      4.27270  1_565   S
    N423   O427      3.32035      .   S
    Zr103  O427      4.27278      .   S
    N423   O428      3.32084      .   S
    Zr104  O428      4.27421  1_665   S
    N423   O429      3.30976      .   S
    Zr81   O429      4.26996      .   S
    N430   O431      3.32834      .   S
    Zr31   O431      4.26352      .   S
    N430   O432      3.34780      .   S
    Zr10   O432      4.30015      .   S
    N430   O433      3.32084      .   S
    Zr102  O433      4.27421  1_465   S
    N430   O434      3.32035      .   S
    Zr103  O434      4.27270  1_455   S
    N430   O435      3.32035      .   S
    Zr104  O435      4.27278  1_565   S
    N430   O436      3.30976      .   S
    Zr82   O436      4.26996      .   S
    N437   O438      3.32834      .   S
    Zr18   O438      4.26352      .   S
    N437   O439      3.34780      .   S
    Zr0    O439      4.30015      .   S
    N437   O440      3.32035      .   S
    Zr105  O440      4.27278      .   S
    N437   O441      3.30976      .   S
    Zr86   O441      4.26996      .   S
    N442   O443      3.32834      .   S
    Zr17   O443      4.26352      .   S
    N442   O444      3.34780      .   S
    Zr0    O444      4.30015  1_445   S
    N442   O445      3.32035      .   S
    Zr105  O445      4.27270      .   S
    N442   O446      3.30976      .   S
    Zr84   O446      4.26996      .   S
    N447   O448      3.32834      .   S
    Zr1    O448      4.26352      .   S
    N447   O449      3.34780      .   S
    Zr0    O449      4.30015  1_455   S
    N447   O450      3.32084      .   S
    Zr105  O450      4.27421      .   S
    N447   O451      3.30976      .   S
    Zr85   O451      4.26996      .   S
    N452   O453      3.34780  1_455   S
    Zr12   O453      4.30015      .   S
    N452   O454      3.32834  1_455   S
    Zr38   O454      4.26352      .   S
    N452   O455      3.30976      .   S
    Zr2    O455      4.26996      .   S
    N452   O456      3.32035      .   S
    Zr3    O456      4.27270      .   S
    N457   O458      3.34780      .   S
    Zr12   O458      4.30015      .   S
    N457   O459      3.32834      .   S
    Zr37   O459      4.26352      .   S
    N457   O460      3.30976      .   S
    Zr52   O460      4.26996      .   S
    N457   O461      3.32084      .   S
    Zr3    O461      4.27421      .   S
    N462   O463      3.34780  1_655   S
    Zr15   O463      4.30015      .   S
    N462   O464      3.32834  1_655   S
    Zr48   O464      4.26352      .   S
    N462   O465      3.30976      .   S
    Zr56   O465      4.26996      .   S
    N462   O466      3.32035      .   S
    Zr87   O466      4.27278      .   S
    N467   O468      3.34780  1_545   S
    Zr15   O468      4.30015      .   S
    N467   O469      3.32834  1_545   S
    Zr47   O469      4.26352      .   S
    N467   O470      3.30976      .   S
    Zr54   O470      4.26996      .   S
    N467   O471      3.32035      .   S
    Zr87   O471      4.27270      .   S
    N472   O473      3.34780      .   S
    Zr15   O473      4.30015      .   S
    N472   O474      3.32834      .   S
    Zr46   O474      4.26352      .   S
    N472   O475      3.30976      .   S
    Zr55   O475      4.26996      .   S
    N472   O476      3.32084      .   S
    Zr87   O476      4.27421      .   S
    N477   O478      3.34780  1_545   S
    Zr14   O478      4.30015      .   S
    N477   O479      3.32834  1_545   S
    Zr45   O479      4.26352      .   S
    N477   O480      3.30976      .   S
    Zr59   O480      4.26996      .   S
    N477   O481      3.32035      .   S
    Zr88   O481      4.27278      .   S
    N482   O483      3.34780  1_655   S
    Zr14   O483      4.30015      .   S
    N482   O484      3.32834  1_655   S
    Zr44   O484      4.26352      .   S
    N482   O485      3.30976      .   S
    Zr57   O485      4.26996      .   S
    N482   O486      3.32035      .   S
    Zr88   O486      4.27270      .   S
    N487   O488      3.34780      .   S
    Zr14   O488      4.30015      .   S
    N487   O489      3.32834      .   S
    Zr43   O489      4.26352      .   S
    N487   O490      3.30976      .   S
    Zr58   O490      4.26996      .   S
    N487   O491      3.32084      .   S
    Zr88   O491      4.27421      .   S
    N492   O493      3.31453      .   S
    Zr52   O493      4.25056      .   S
    N492   O494      3.32526      .   S
    Zr1    O494      4.25632  1_655   S
    N492   O495      3.31147      .   S
    Zr2    O495      4.20900      .   S
    N492   O496      3.32653      .   S
    Zr18   O496      4.28125      .   S
    N497   O498      3.32653      .   S
    Zr43   O498      4.28125      .   S
    N497   O499      3.31453      .   S
    Zr80   O499      4.25056      .   S
    N497   O500      3.32526      .   S
    Zr44   O500      4.25632      .   S
    N497   O501      3.31147      .   S
    Zr79   O501      4.20900  1_655   S
    N502   O503      3.32653      .   S
    Zr44   O503      4.28125      .   S
    N502   O504      3.31453      .   S
    Zr78   O504      4.25056  1_655   S
    N502   O505      3.32526      .   S
    Zr45   O505      4.25632      .   S
    N502   O506      3.31147      .   S
    Zr80   O506      4.20900  1_545   S
    N507   O508      3.32653      .   S
    Zr48   O508      4.28125      .   S
    N507   O509      3.31453      .   S
    Zr82   O509      4.25056  1_655   S
    N507   O510      3.32526      .   S
    Zr46   O510      4.25632      .   S
    N507   O511      3.31147      .   S
    Zr81   O511      4.20900      .   S
    N512   O513      3.32653      .   S
    Zr46   O513      4.28125      .   S
    N512   O514      3.31453      .   S
    Zr83   O514      4.25056      .   S
    N512   O515      3.32526      .   S
    Zr47   O515      4.25632      .   S
    N512   O516      3.31147      .   S
    Zr82   O516      4.20900  1_545   S
    N517   O518      3.32653      .   S
    Zr47   O518      4.28125      .   S
    N517   O519      3.31453      .   S
    Zr81   O519      4.25056  1_545   S
    N517   O520      3.32526      .   S
    Zr48   O520      4.25632      .   S
    N517   O521      3.31147      .   S
    Zr83   O521      4.20900  1_655   S
    N522   O523      3.32653      .   S
    Zr51   O523      4.28125      .   S
    N522   O524      3.31453  1_455   S
    Zr85   O524      4.25056      .   S
    N522   O525      3.32526      .   S
    Zr49   O525      4.25632      .   S
    N522   O526      3.31147  1_455   S
    Zr84   O526      4.20900      .   S
    N527   O528      3.32653      .   S
    Zr49   O528      4.28125      .   S
    N527   O529      3.31453  1_565   S
    Zr86   O529      4.25056      .   S
    N527   O530      3.32526      .   S
    Zr50   O530      4.25632      .   S
    N527   O531      3.31147  1_565   S
    Zr85   O531      4.20900      .   S
    N532   O533      3.32653      .   S
    Zr50   O533      4.28125      .   S
    N532   O534      3.31453      .   S
    Zr84   O534      4.25056      .   S
    N532   O535      3.32526      .   S
    Zr51   O535      4.25632      .   S
    N532   O536      3.31147      .   S
    Zr86   O536      4.20900      .   S
    N537   O538      3.32526      .   S
    Zr17   O538      4.25632      .   S
    N537   O539      3.31147      .   S
    Zr52   O539      4.20900      .   S
    N537   O540      3.32653      .   S
    Zr1    O540      4.28125  1_545   S
    N537   O541      3.31453      .   S
    Zr53   O541      4.25056      .   S
    N542   O543      3.32526      .   S
    Zr18   O543      4.25632  1_545   S
    N542   O544      3.31147      .   S
    Zr53   O544      4.20900      .   S
    N542   O545      3.32653      .   S
    Zr17   O545      4.28125  1_655   S
    N542   O546      3.31453      .   S
    Zr2    O546      4.25056      .   S
    N547   O548      3.32526      .   S
    Zr19   O548      4.25632  1_565   S
    N547   O549      3.31147      .   S
    Zr54   O549      4.20900  1_554   S
    N547   O550      3.32653      .   S
    Zr21   O550      4.28125      .   S
    N547   O551      3.31453      .   S
    Zr55   O551      4.25056  1_554   S
    N552   O553      3.32526      .   S
    Zr20   O553      4.25632      .   S
    N552   O554      3.31147      .   S
    Zr55   O554      4.20900  1_554   S
    N552   O555      3.32653      .   S
    Zr19   O555      4.28125  1_455   S
    N552   O556      3.31453      .   S
    Zr56   O556      4.25056  1_554   S
    N557   O558      3.32526      .   S
    Zr21   O558      4.25632  1_455   S
    N557   O559      3.31147      .   S
    Zr56   O559      4.20900  1_554   S
    N557   O560      3.32653      .   S
    Zr20   O560      4.28125  1_565   S
    N557   O561      3.31453      .   S
    Zr54   O561      4.25056  1_554   S
    N562   O563      3.32526      .   S
    Zr22   O563      4.25632  1_455   S
    N562   O564      3.32653      .   S
    Zr24   O564      4.28125      .   S
    N562   O565      3.31147      .   S
    Zr57   O565      4.20900      .   S
    N562   O566      3.31453      .   S
    Zr58   O566      4.25056      .   S
    N567   O568      3.32526      .   S
    Zr23   O568      4.25632      .   S
    N567   O569      3.32653      .   S
    Zr22   O569      4.28125  1_565   S
    N567   O570      3.31147      .   S
    Zr58   O570      4.20900      .   S
    N567   O571      3.31453      .   S
    Zr59   O571      4.25056      .   S
    N572   O573      3.32526      .   S
    Zr24   O573      4.25632  1_565   S
    N572   O574      3.32653      .   S
    Zr23   O574      4.28125  1_455   S
    N572   O575      3.31147      .   S
    Zr59   O575      4.20900      .   S
    N572   O576      3.31453      .   S
    Zr57   O576      4.25056      .   S
    N577   O578      3.32526      .   S
    Zr25   O578      4.25632  1_545   S
    N577   O579      3.32653      .   S
    Zr27   O579      4.28125      .   S
    N577   O580      3.31147      .   S
    Zr60   O580      4.20900  1_556   S
    N577   O581      3.31453      .   S
    Zr61   O581      4.25056  1_556   S
    N582   O583      3.32526      .   S
    Zr26   O583      4.25632      .   S
    N582   O584      3.32653      .   S
    Zr25   O584      4.28125  1_655   S
    N582   O585      3.31147      .   S
    Zr61   O585      4.20900  1_556   S
    N582   O586      3.31453      .   S
    Zr62   O586      4.25056  1_556   S
    N587   O588      3.32526      .   S
    Zr27   O588      4.25632  1_655   S
    N587   O589      3.32653      .   S
    Zr26   O589      4.28125  1_545   S
    N587   O590      3.31147      .   S
    Zr62   O590      4.20900  1_556   S
    N587   O591      3.31453      .   S
    Zr60   O591      4.25056  1_556   S
    N592   O593      3.32526      .   S
    Zr28   O593      4.25632      .   S
    N592   O594      3.32653      .   S
    Zr30   O594      4.28125      .   S
    N592   O595      3.31147      .   S
    Zr63   O595      4.20900      .   S
    N592   O596      3.31453      .   S
    Zr64   O596      4.25056  1_455   S
    N597   O598      3.32526      .   S
    Zr29   O598      4.25632      .   S
    N597   O599      3.32653      .   S
    Zr28   O599      4.28125      .   S
    N597   O600      3.31147      .   S
    Zr64   O600      4.20900  1_565   S
    N597   O601      3.31453      .   S
    Zr65   O601      4.25056      .   S
    N602   O603      3.32526      .   S
    Zr30   O603      4.25632      .   S
    N602   O604      3.32653      .   S
    Zr29   O604      4.28125      .   S
    N602   O605      3.31147      .   S
    Zr65   O605      4.20900  1_455   S
    N602   O606      3.31453      .   S
    Zr63   O606      4.25056  1_565   S
    N607   O608      3.32526      .   S
    Zr31   O608      4.25632      .   S
    N607   O609      3.32653      .   S
    Zr33   O609      4.28125      .   S
    N607   O610      3.31147  1_655   S
    Zr66   O610      4.20900      .   S
    N607   O611      3.31453  1_655   S
    Zr67   O611      4.25056      .   S
    N612   O613      3.32653      .   S
    Zr31   O613      4.28125      .   S
    N612   O614      3.31453  1_545   S
    Zr68   O614      4.25056      .   S
    N612   O615      3.32526      .   S
    Zr32   O615      4.25632      .   S
    N612   O616      3.31147  1_545   S
    Zr67   O616      4.20900      .   S
    N617   O618      3.32653      .   S
    Zr32   O618      4.28125      .   S
    N617   O619      3.31453      .   S
    Zr66   O619      4.25056      .   S
    N617   O620      3.32526      .   S
    Zr33   O620      4.25632      .   S
    N617   O621      3.31147      .   S
    Zr68   O621      4.20900      .   S
    N622   O623      3.32653      .   S
    Zr36   O623      4.28125      .   S
    N622   O624      3.31453  1_545   S
    Zr70   O624      4.25056      .   S
    N622   O625      3.32526      .   S
    Zr34   O625      4.25632      .   S
    N622   O626      3.31147  1_545   S
    Zr69   O626      4.20900      .   S
    N627   O628      3.32653      .   S
    Zr34   O628      4.28125      .   S
    N627   O629      3.31453  1_655   S
    Zr71   O629      4.25056      .   S
    N627   O630      3.32526      .   S
    Zr35   O630      4.25632      .   S
    N627   O631      3.31147  1_655   S
    Zr70   O631      4.20900      .   S
    N632   O633      3.32653      .   S
    Zr35   O633      4.28125      .   S
    N632   O634      3.31453      .   S
    Zr69   O634      4.25056      .   S
    N632   O635      3.32526      .   S
    Zr36   O635      4.25632      .   S
    N632   O636      3.31147      .   S
    Zr71   O636      4.20900      .   S
    N637   O638      3.32653      .   S
    Zr39   O638      4.28125      .   S
    N637   O639      3.31453      .   S
    Zr73   O639      4.25056  1_565   S
    N637   O640      3.32526      .   S
    Zr37   O640      4.25632      .   S
    N637   O641      3.31147      .   S
    Zr72   O641      4.20900      .   S
    N642   O643      3.32653      .   S
    Zr37   O643      4.28125      .   S
    N642   O644      3.31453      .   S
    Zr74   O644      4.25056      .   S
    N642   O645      3.32526      .   S
    Zr38   O645      4.25632      .   S
    N642   O646      3.31147      .   S
    Zr73   O646      4.20900  1_455   S
    N647   O648      3.32653      .   S
    Zr38   O648      4.28125      .   S
    N647   O649      3.31453      .   S
    Zr72   O649      4.25056  1_455   S
    N647   O650      3.32526      .   S
    Zr39   O650      4.25632      .   S
    N647   O651      3.31147      .   S
    Zr74   O651      4.20900  1_565   S
    N652   O653      3.32653      .   S
    Zr42   O653      4.28125      .   S
    N652   O654      3.31453  1_565   S
    Zr76   O654      4.25056      .   S
    N652   O655      3.32526      .   S
    Zr40   O655      4.25632      .   S
    N652   O656      3.31147  1_565   S
    Zr75   O656      4.20900      .   S
    N657   O658      3.32653      .   S
    Zr40   O658      4.28125      .   S
    N657   O659      3.31453  1_455   S
    Zr77   O659      4.25056      .   S
    N657   O660      3.32526      .   S
    Zr41   O660      4.25632      .   S
    N657   O661      3.31147  1_455   S
    Zr76   O661      4.20900      .   S
    N662   O663      3.32653      .   S
    Zr41   O663      4.28125      .   S
    N662   O664      3.31453      .   S
    Zr75   O664      4.25056      .   S
    N662   O665      3.32526      .   S
    Zr42   O665      4.25632      .   S
    N662   O666      3.31147      .   S
    Zr77   O666      4.20900      .   S
    N667   O668      3.32653      .   S
    Zr45   O668      4.28125      .   S
    N667   O669      3.31453      .   S
    Zr79   O669      4.25056  1_545   S
    N667   O670      3.32526      .   S
    Zr43   O670      4.25632      .   S
    N667   O671      3.31147      .   S
    Zr78   O671      4.20900      .   S
