# CIF file generated by openbabel 2.4.90, see http://openbabel.sf.net
data_I
_chemical_name_common ''
_cell_length_a 24.4635
_cell_length_b 24.4635
_cell_length_c 112.996
_cell_angle_alpha 90
_cell_angle_beta 90
_cell_angle_gamma 120
_space_group_name_H-M_alt 'P 1'
_space_group_name_Hall 'P 1'
loop_
    _symmetry_equiv_pos_as_xyz
    x,y,z
loop_
    _atom_site_label
    _atom_site_type_symbol
    _atom_site_fract_x
    _atom_site_fract_y
    _atom_site_fract_z
    _atom_site_occupancy
    N0      N    0.50650   0.99767   0.43781   1.000
    N1      N    0.00233   0.49350   0.93781   1.000
    N2      N    0.49117   0.99767   0.93781   1.000
    N3      N    0.50650   0.50883   0.93781   1.000
    N4      N    0.17316   0.33100   0.77115   1.000
    N5      N    0.66900   0.84216   0.77115   1.000
    N6      N    0.15784   0.82684   0.77115   1.000
    N7      N    0.66433   0.83983   0.39552   1.000
    N8      N    0.17550   0.33567   0.39552   1.000
    N9      N    0.16017   0.82450   0.39552   1.000
    N10     N    0.16017   0.33567   0.89552   1.000
    N11     N    0.66433   0.82450   0.89552   1.000
    N12     N    0.17550   0.83983   0.89552   1.000
    N13     N    0.66900   0.82684   0.27115   1.000
    N14     N    0.15784   0.33100   0.27115   1.000
    N15     N    0.17316   0.84216   0.27115   1.000
    N16     N    0.83983   0.66433   0.10448   1.000
    N17     N    0.33567   0.17550   0.10448   1.000
    N18     N    0.82450   0.16017   0.10448   1.000
    N19     N    0.33100   0.17316   0.72885   1.000
    N20     N    0.84216   0.66900   0.72885   1.000
    N21     N    0.82684   0.15784   0.72885   1.000
    N22     N    0.82684   0.66900   0.22885   1.000
    N23     N    0.33100   0.15784   0.22885   1.000
    N24     N    0.84216   0.17316   0.22885   1.000
    N25     N    0.33567   0.16017   0.60448   1.000
    N26     N    0.82450   0.66433   0.60448   1.000
    N27     N    0.83983   0.17550   0.60448   1.000
    N28     N    0.00233   0.50883   0.43781   1.000
    N29     N    0.49117   0.49350   0.43781   1.000
    N30     N    0.99767   0.50650   0.06219   1.000
    N31     N    0.50883   0.00233   0.06219   1.000
    N32     N    0.49350   0.49117   0.06219   1.000
    N33     N    0.49350   0.00233   0.56219   1.000
    N34     N    0.99767   0.49117   0.56219   1.000
    N35     N    0.50883   0.50650   0.56219   1.000
    N36     N    0.21162   0.33075   0.52022   1.000
    N37     N    0.21420   0.33591   0.64645   1.000
    N38     N    0.12171   0.78580   0.64645   1.000
    N39     N    0.12171   0.33591   0.14645   1.000
    N40     N    0.66409   0.78580   0.14645   1.000
    N41     N    0.21420   0.87829   0.14645   1.000
    N42     N    0.00258   0.45504   0.68689   1.000
    N43     N    0.45246   0.99742   0.68689   1.000
    N44     N    0.54496   0.54754   0.68689   1.000
    N45     N    0.66925   0.88087   0.52022   1.000
    N46     N    0.11913   0.78838   0.52022   1.000
    N47     N    0.33075   0.21162   0.97978   1.000
    N48     N    0.88087   0.66925   0.97978   1.000
    N49     N    0.78838   0.11913   0.97978   1.000
    N50     N    0.78838   0.66925   0.47978   1.000
    N51     N    0.33075   0.11913   0.47978   1.000
    N52     N    0.88087   0.21162   0.47978   1.000
    N53     N    0.66925   0.78838   0.02022   1.000
    N54     N    0.11913   0.33075   0.02022   1.000
    N55     N    0.21162   0.88087   0.02022   1.000
    N56     N    0.87829   0.66409   0.85355   1.000
    N57     N    0.33591   0.21420   0.85355   1.000
    N58     N    0.78580   0.12171   0.85355   1.000
    N59     N    0.99742   0.54496   0.31311   1.000
    N60     N    0.54754   0.00258   0.31311   1.000
    N61     N    0.45504   0.45246   0.31311   1.000
    N62     N    0.45504   0.00258   0.81311   1.000
    N63     N    0.99742   0.45246   0.81311   1.000
    N64     N    0.54754   0.54496   0.81311   1.000
    N65     N    0.33591   0.12171   0.35355   1.000
    N66     N    0.78580   0.66409   0.35355   1.000
    N67     N    0.87829   0.21420   0.35355   1.000
    N68     N    0.54496   0.99742   0.18689   1.000
    N69     N    0.00258   0.54754   0.18689   1.000
    N70     N    0.45246   0.45504   0.18689   1.000
    N71     N    0.66409   0.87829   0.64645   1.000
    Zr72    Zr   0.00000   0.00000   0.80998   1.000
    O73     O    0.97760   0.89875   0.82419   1.000
    O74     O    0.10683   0.05354   0.82411   1.000
    O75     O    0.05744   0.94678   0.80091   1.000
    O76     O    0.10125   0.07886   0.82419   1.000
    O77     O    0.94646   0.05330   0.82411   1.000
    O78     O    0.05322   0.11066   0.80091   1.000
    O79     O    0.88934   0.94256   0.80091   1.000
    O80     O    0.92114   0.02240   0.82419   1.000
    O81     O    0.94670   0.89316   0.82411   1.000
    O82     O    0.90693   0.95716   0.79617   1.000
    O83     O    0.05022   0.09307   0.79617   1.000
    O84     O    0.04284   0.94978   0.79617   1.000
    O85     O    0.90693   0.95715   0.79617   1.000
    O86     O    0.04284   0.94977   0.79617   1.000
    O87     O    0.05022   0.09306   0.79617   1.000
    O88     O    0.90694   0.95716   0.79617   1.000
    O89     O    0.04285   0.94978   0.79617   1.000
    O90     O    0.05023   0.09307   0.79617   1.000
    Zr91    Zr   0.33335   0.66665   0.35286   1.000
    O92     O    0.35574   0.58780   0.34057   1.000
    O93     O    0.27590   0.55600   0.36384   1.000
    O94     O    0.22650   0.61336   0.34064   1.000
    O95     O    0.38688   0.77350   0.34064   1.000
    O96     O    0.23209   0.64426   0.34057   1.000
    O97     O    0.28012   0.72410   0.36384   1.000
    O98     O    0.41220   0.76791   0.34057   1.000
    O99     O    0.44400   0.71988   0.36384   1.000
    O100    O    0.38664   0.61312   0.34064   1.000
    O101    O    0.28312   0.70950   0.36858   1.000
    O102    O    0.29050   0.57359   0.36858   1.000
    O103    O    0.42641   0.71688   0.36858   1.000
    Zr104   Zr   0.33333   0.66667   0.72903   1.000
    O105    O    0.28902   0.57232   0.74465   1.000
    O106    O    0.42768   0.71670   0.74465   1.000
    O107    O    0.28330   0.71098   0.74465   1.000
    O108    O    0.22823   0.61294   0.71610   1.000
    O109    O    0.35462   0.76593   0.71582   1.000
    O110    O    0.27205   0.71767   0.73968   1.000
    O111    O    0.41131   0.64538   0.71582   1.000
    O112    O    0.38471   0.77177   0.71610   1.000
    O113    O    0.44563   0.72795   0.73968   1.000
    O114    O    0.38706   0.61529   0.71610   1.000
    O115    O    0.28233   0.55437   0.73968   1.000
    O116    O    0.23407   0.58869   0.71582   1.000
    Zr117   Zr   0.66667   0.33333   0.39570   1.000
    O118    O    0.76101   0.38337   0.41132   1.000
    O119    O    0.61663   0.37765   0.41132   1.000
    O120    O    0.62235   0.23899   0.41132   1.000
    O121    O    0.68796   0.43260   0.38249   1.000
    O122    O    0.60538   0.38434   0.40635   1.000
    O123    O    0.56156   0.27961   0.38276   1.000
    O124    O    0.77896   0.39462   0.40635   1.000
    O125    O    0.74464   0.31204   0.38249   1.000
    O126    O    0.71805   0.43844   0.38276   1.000
    O127    O    0.72039   0.28195   0.38276   1.000
    O128    O    0.56740   0.25536   0.38249   1.000
    O129    O    0.61566   0.22104   0.40635   1.000
    Zr130   Zr   0.00000   0.00000   0.93763   1.000
    O131    O    0.94862   0.89490   0.95057   1.000
    O132    O    0.92202   0.02129   0.95085   1.000
    O133    O    0.88771   0.93871   0.92699   1.000
    O134    O    0.06129   0.94899   0.92699   1.000
    O135    O    0.97871   0.90073   0.95085   1.000
    O136    O    0.10510   0.05373   0.95057   1.000
    O137    O    0.94627   0.05138   0.95057   1.000
    O138    O    0.09927   0.07798   0.95085   1.000
    O139    O    0.05101   0.11229   0.92699   1.000
    O140    O    0.05003   0.95569   0.92201   1.000
    O141    O    0.90565   0.94997   0.92201   1.000
    O142    O    0.04431   0.09435   0.92201   1.000
    Zr143   Zr   0.00000   0.00000   0.43763   1.000
    O144    O    0.97871   0.07798   0.45085   1.000
    O145    O    0.10510   0.05138   0.45057   1.000
    O146    O    0.06129   0.11229   0.42699   1.000
    O147    O    0.90565   0.95569   0.42201   1.000
    O148    O    0.04431   0.94997   0.42201   1.000
    O149    O    0.05003   0.09435   0.42201   1.000
    O150    O    0.94627   0.89490   0.45057   1.000
    O151    O    0.09927   0.02129   0.45085   1.000
    O152    O    0.05101   0.93871   0.42699   1.000
    O153    O    0.94862   0.05373   0.45057   1.000
    O154    O    0.92202   0.90073   0.45085   1.000
    O155    O    0.88771   0.94899   0.42699   1.000
    Zr156   Zr   0.66667   0.33333   0.27097   1.000
    O157    O    0.57232   0.28330   0.25535   1.000
    O158    O    0.71098   0.42768   0.25535   1.000
    O159    O    0.71670   0.28902   0.25535   1.000
    O160    O    0.64538   0.23406   0.28418   1.000
    O161    O    0.72795   0.28233   0.26032   1.000
    O162    O    0.77177   0.38706   0.28390   1.000
    O163    O    0.61529   0.22823   0.28390   1.000
    O164    O    0.55437   0.27205   0.26032   1.000
    O165    O    0.58869   0.35462   0.28418   1.000
    O166    O    0.61294   0.38471   0.28390   1.000
    O167    O    0.76593   0.41131   0.28418   1.000
    O168    O    0.71767   0.44563   0.26032   1.000
    Zr169   Zr   0.66667   0.33333   0.77097   1.000
    O170    O    0.71098   0.28330   0.75535   1.000
    O171    O    0.57232   0.28902   0.75535   1.000
    O172    O    0.71670   0.42768   0.75535   1.000
    O173    O    0.61294   0.22823   0.78390   1.000
    O174    O    0.76594   0.35462   0.78418   1.000
    O175    O    0.71767   0.27205   0.76032   1.000
    O176    O    0.77177   0.38471   0.78390   1.000
    O177    O    0.72795   0.44563   0.76032   1.000
    O178    O    0.64538   0.41131   0.78418   1.000
    O179    O    0.61529   0.38706   0.78390   1.000
    O180    O    0.58869   0.23406   0.78418   1.000
    O181    O    0.55437   0.28233   0.76032   1.000
    Zr182   Zr   0.33333   0.66667   0.60430   1.000
    O183    O    0.38337   0.62235   0.58868   1.000
    O184    O    0.37765   0.76101   0.58868   1.000
    O185    O    0.23899   0.61663   0.58868   1.000
    O186    O    0.39462   0.61566   0.59365   1.000
    O187    O    0.31204   0.56740   0.61751   1.000
    O188    O    0.43844   0.72039   0.61724   1.000
    O189    O    0.28195   0.56156   0.61724   1.000
    O190    O    0.22104   0.60538   0.59365   1.000
    O191    O    0.25536   0.68796   0.61751   1.000
    O192    O    0.27961   0.71805   0.61724   1.000
    O193    O    0.43260   0.74464   0.61751   1.000
    O194    O    0.38434   0.77896   0.59365   1.000
    Zr195   Zr   0.00000   0.00000   0.56237   1.000
    O196    O    0.07798   0.09927   0.54915   1.000
    O197    O    0.11229   0.05101   0.57301   1.000
    O198    O    0.05138   0.94627   0.54943   1.000
    O199    O    0.94899   0.06129   0.57301   1.000
    O200    O    0.05373   0.10510   0.54943   1.000
    O201    O    0.90073   0.97871   0.54915   1.000
    O202    O    0.95569   0.05003   0.57799   1.000
    O203    O    0.94997   0.90565   0.57799   1.000
    O204    O    0.09435   0.04431   0.57799   1.000
    O205    O    0.02129   0.92202   0.54915   1.000
    O206    O    0.93871   0.88771   0.57301   1.000
    O207    O    0.89490   0.94862   0.54943   1.000
    Zr208   Zr   0.33333   0.66667   0.22903   1.000
    O209    O    0.28330   0.57232   0.24465   1.000
    O210    O    0.28902   0.71670   0.24465   1.000
    O211    O    0.42768   0.71098   0.24465   1.000
    O212    O    0.28233   0.72795   0.23968   1.000
    O213    O    0.23407   0.64538   0.21582   1.000
    O214    O    0.38706   0.77177   0.21610   1.000
    O215    O    0.22823   0.61529   0.21610   1.000
    O216    O    0.35462   0.58869   0.21582   1.000
    O217    O    0.27205   0.55437   0.23968   1.000
    O218    O    0.41131   0.76594   0.21582   1.000
    O219    O    0.38471   0.61294   0.21610   1.000
    O220    O    0.44563   0.71767   0.23968   1.000
    Zr221   Zr   0.66667   0.33333   0.89570   1.000
    O222    O    0.68796   0.25536   0.88249   1.000
    O223    O    0.56156   0.28195   0.88276   1.000
    O224    O    0.60538   0.22104   0.90635   1.000
    O225    O    0.71805   0.27961   0.88276   1.000
    O226    O    0.74464   0.43260   0.88249   1.000
    O227    O    0.77896   0.38434   0.90635   1.000
    O228    O    0.56740   0.31204   0.88249   1.000
    O229    O    0.72039   0.43844   0.88276   1.000
    O230    O    0.61566   0.39462   0.90635   1.000
    O231    O    0.62235   0.38337   0.91132   1.000
    O232    O    0.61663   0.23899   0.91132   1.000
    O233    O    0.76101   0.37765   0.91132   1.000
    Zr234   Zr   0.33335   0.66665   0.85286   1.000
    O235    O    0.44400   0.72410   0.86384   1.000
    O236    O    0.41220   0.64426   0.84057   1.000
    O237    O    0.38664   0.77350   0.84064   1.000
    O238    O    0.35574   0.76791   0.84057   1.000
    O239    O    0.27590   0.71988   0.86384   1.000
    O240    O    0.22650   0.61312   0.84064   1.000
    O241    O    0.38688   0.61336   0.84064   1.000
    O242    O    0.28012   0.55600   0.86384   1.000
    O243    O    0.23209   0.58780   0.84057   1.000
    O244    O    0.42641   0.70950   0.86858   1.000
    O245    O    0.29050   0.71688   0.86858   1.000
    O246    O    0.28312   0.57359   0.86858   1.000
    Zr247   Zr   0.00000   0.00000   0.30998   1.000
    O248    O    0.97760   0.07886   0.32419   1.000
    O249    O    0.10683   0.05330   0.32411   1.000
    O250    O    0.05744   0.11066   0.30091   1.000
    O251    O    0.94646   0.89316   0.32411   1.000
    O252    O    0.10125   0.02240   0.32419   1.000
    O253    O    0.05322   0.94256   0.30091   1.000
    O254    O    0.92114   0.89875   0.32419   1.000
    O255    O    0.94670   0.05354   0.32411   1.000
    O256    O    0.88934   0.94678   0.30091   1.000
    O257    O    0.05022   0.95716   0.29617   1.000
    O258    O    0.04284   0.09307   0.29617   1.000
    O259    O    0.90693   0.94978   0.29617   1.000
    O260    O    0.04285   0.09307   0.29617   1.000
    O261    O    0.05023   0.95716   0.29617   1.000
    O262    O    0.90694   0.94978   0.29617   1.000
    O263    O    0.04284   0.09306   0.29617   1.000
    O264    O    0.90693   0.94977   0.29617   1.000
    O265    O    0.05022   0.95715   0.29617   1.000
    Zr266   Zr   0.33333   0.66667   0.10430   1.000
    O267    O    0.38434   0.60538   0.09365   1.000
    O268    O    0.27961   0.56156   0.11724   1.000
    O269    O    0.43260   0.68796   0.11751   1.000
    O270    O    0.39462   0.77896   0.09365   1.000
    O271    O    0.43844   0.71805   0.11724   1.000
    O272    O    0.31204   0.74464   0.11751   1.000
    O273    O    0.22104   0.61566   0.09365   1.000
    O274    O    0.28195   0.72039   0.11724   1.000
    O275    O    0.25536   0.56740   0.11751   1.000
    O276    O    0.37765   0.61663   0.08868   1.000
    O277    O    0.38337   0.76101   0.08868   1.000
    O278    O    0.23899   0.62235   0.08868   1.000
    Zr279   Zr   0.33332   0.66668   0.48048   1.000
    O280    O    0.39077   0.61346   0.46950   1.000
    O281    O    0.44016   0.72021   0.49270   1.000
    O282    O    0.31093   0.56542   0.49277   1.000
    O283    O    0.27979   0.71997   0.49270   1.000
    O284    O    0.43458   0.74553   0.49277   1.000
    O285    O    0.38654   0.77733   0.46950   1.000
    O286    O    0.25447   0.68907   0.49277   1.000
    O287    O    0.22267   0.60923   0.46950   1.000
    O288    O    0.28003   0.55984   0.49270   1.000
    O289    O    0.24026   0.62383   0.46475   1.000
    O290    O    0.37617   0.61645   0.46475   1.000
    O291    O    0.38355   0.75974   0.46475   1.000
    Zr292   Zr   0.66668   0.33332   0.01952   1.000
    O293    O    0.60923   0.22267   0.03050   1.000
    O294    O    0.55984   0.28003   0.00730   1.000
    O295    O    0.68907   0.25447   0.00723   1.000
    O296    O    0.72021   0.44016   0.00730   1.000
    O297    O    0.56542   0.31093   0.00723   1.000
    O298    O    0.61346   0.39077   0.03050   1.000
    O299    O    0.71997   0.27979   0.00730   1.000
    O300    O    0.77733   0.38654   0.03050   1.000
    O301    O    0.74553   0.43458   0.00723   1.000
    O302    O    0.62383   0.24026   0.03525   1.000
    O303    O    0.75974   0.38355   0.03525   1.000
    O304    O    0.61645   0.37617   0.03525   1.000
    Zr305   Zr   0.66668   0.33332   0.51952   1.000
    O306    O    0.71997   0.44016   0.50730   1.000
    O307    O    0.74553   0.31093   0.50723   1.000
    O308    O    0.77733   0.39077   0.53050   1.000
    O309    O    0.55984   0.27979   0.50730   1.000
    O310    O    0.68907   0.43458   0.50723   1.000
    O311    O    0.60923   0.38654   0.53050   1.000
    O312    O    0.72021   0.28003   0.50730   1.000
    O313    O    0.56542   0.25447   0.50723   1.000
    O314    O    0.61346   0.22267   0.53050   1.000
    O315    O    0.61645   0.24026   0.53525   1.000
    O316    O    0.75974   0.37617   0.53525   1.000
    O317    O    0.62383   0.38355   0.53525   1.000
    Zr318   Zr   0.33332   0.66668   0.98048   1.000
    O319    O    0.39077   0.77733   0.96950   1.000
    O320    O    0.44016   0.71997   0.99270   1.000
    O321    O    0.31093   0.74553   0.99277   1.000
    O322    O    0.43458   0.68907   0.99277   1.000
    O323    O    0.27979   0.55984   0.99270   1.000
    O324    O    0.38654   0.60923   0.96950   1.000
    O325    O    0.25447   0.56542   0.99277   1.000
    O326    O    0.28003   0.72021   0.99270   1.000
    O327    O    0.22267   0.61346   0.96950   1.000
    O328    O    0.38355   0.62383   0.96475   1.000
    O329    O    0.24026   0.61645   0.96475   1.000
    O330    O    0.37617   0.75974   0.96475   1.000
    Zr331   Zr   0.00000   0.00000   0.06237   1.000
    O332    O    0.05138   0.10510   0.04943   1.000
    O333    O    0.11229   0.06129   0.07301   1.000
    O334    O    0.07798   0.97871   0.04915   1.000
    O335    O    0.93871   0.05101   0.07301   1.000
    O336    O    0.02129   0.09927   0.04915   1.000
    O337    O    0.89490   0.94627   0.04943   1.000
    O338    O    0.94997   0.04431   0.07799   1.000
    O339    O    0.09435   0.05003   0.07799   1.000
    O340    O    0.95569   0.90565   0.07799   1.000
    O341    O    0.90073   0.92202   0.04915   1.000
    O342    O    0.05373   0.94862   0.04943   1.000
    O343    O    0.94899   0.88771   0.07301   1.000
    Zr344   Zr   0.66665   0.33335   0.14714   1.000
    O345    O    0.61336   0.22650   0.15936   1.000
    O346    O    0.58780   0.35574   0.15943   1.000
    O347    O    0.55600   0.27590   0.13616   1.000
    O348    O    0.64426   0.23209   0.15943   1.000
    O349    O    0.72410   0.28012   0.13616   1.000
    O350    O    0.77349   0.38688   0.15936   1.000
    O351    O    0.76791   0.41220   0.15943   1.000
    O352    O    0.61312   0.38664   0.15936   1.000
    O353    O    0.71988   0.44400   0.13616   1.000
    O354    O    0.57359   0.29050   0.13142   1.000
    O355    O    0.70950   0.28312   0.13142   1.000
    O356    O    0.71688   0.42641   0.13142   1.000
    Zr357   Zr   0.00000   0.00000   0.69002   1.000
    O358    O    0.89316   0.94670   0.67589   1.000
    O359    O    0.02240   0.92114   0.67581   1.000
    O360    O    0.94256   0.88934   0.69909   1.000
    O361    O    0.05354   0.10684   0.67589   1.000
    O362    O    0.89875   0.97760   0.67581   1.000
    O363    O    0.94678   0.05744   0.69909   1.000
    O364    O    0.05330   0.94646   0.67589   1.000
    O365    O    0.07886   0.10125   0.67581   1.000
    O366    O    0.11066   0.05322   0.69909   1.000
    O367    O    0.95716   0.90693   0.70383   1.000
    O368    O    0.09307   0.05022   0.70383   1.000
    O369    O    0.94978   0.04284   0.70383   1.000
    O370    O    0.09306   0.05022   0.70383   1.000
    O371    O    0.95715   0.90693   0.70383   1.000
    O372    O    0.94977   0.04284   0.70383   1.000
    O373    O    0.09307   0.05023   0.70383   1.000
    O374    O    0.94978   0.04285   0.70383   1.000
    O375    O    0.95716   0.90694   0.70383   1.000
    Zr376   Zr   0.00000   0.00000   0.19002   1.000
    O377    O    0.07886   0.97760   0.17581   1.000
    O378    O    0.11066   0.05744   0.19909   1.000
    O379    O    0.05330   0.10684   0.17589   1.000
    O380    O    0.89316   0.94646   0.17589   1.000
    O381    O    0.94256   0.05322   0.19909   1.000
    O382    O    0.02240   0.10125   0.17581   1.000
    O383    O    0.05354   0.94670   0.17589   1.000
    O384    O    0.89875   0.92114   0.17581   1.000
    O385    O    0.94678   0.88934   0.19909   1.000
    O386    O    0.94978   0.90693   0.20383   1.000
    O387    O    0.09307   0.04284   0.20383   1.000
    O388    O    0.95716   0.05022   0.20383   1.000
    O389    O    0.09307   0.04285   0.20383   1.000
    O390    O    0.95716   0.05023   0.20383   1.000
    O391    O    0.94978   0.90694   0.20383   1.000
    O392    O    0.94977   0.90693   0.20383   1.000
    O393    O    0.95715   0.05022   0.20383   1.000
    O394    O    0.09306   0.04284   0.20383   1.000
    Zr395   Zr   0.66665   0.33335   0.64714   1.000
    O396    O    0.72410   0.44400   0.63616   1.000
    O397    O    0.64426   0.41220   0.65943   1.000
    O398    O    0.77350   0.38664   0.65936   1.000
    O399    O    0.76791   0.35574   0.65943   1.000
    O400    O    0.71988   0.27590   0.63616   1.000
    O401    O    0.61312   0.22650   0.65936   1.000
    O402    O    0.61336   0.38688   0.65936   1.000
    O403    O    0.58780   0.23209   0.65943   1.000
    O404    O    0.55600   0.28012   0.63616   1.000
    O405    O    0.70950   0.42641   0.63142   1.000
    O406    O    0.57359   0.28312   0.63142   1.000
    O407    O    0.71688   0.29050   0.63142   1.000
loop_
    _geom_bond_atom_site_label_1
    _geom_bond_atom_site_label_2
    _geom_bond_distance
    _geom_bond_site_symmetry_2
    _ccdc_geom_bond_type
    Zr72   O73       2.76670  1_445   S
    N56    O73       5.99343      .   S
    Zr72   O74       2.76997      .   S
    N57    O74       5.99107      .   S
    Zr72   O75       2.55909  1_545   S
    N6     O75       5.75869      .   S
    Zr72   O76       2.76670      .   S
    N57    O76       5.99343      .   S
    Zr72   O77       2.76997  1_455   S
    N58    O77       5.99107      .   S
    Zr72   O78       2.55909      .   S
    N4     O78       5.75869      .   S
    Zr72   O79       2.55909  1_445   S
    N5     O79       5.75869      .   S
    Zr72   O80       2.76670  1_455   S
    N58    O80       5.99343      .   S
    Zr72   O81       2.76997  1_445   S
    N56    O81       5.99107      .   S
    Zr72   O82       2.51621  1_445   S
    N5     O82       5.78059      .   S
    Zr72   O83       2.51620      .   S
    N4     O83       5.78060      .   S
    Zr72   O84       2.51600  1_545   S
    N6     O84       5.78083      .   S
    Zr72   O85       2.51620  1_445   S
    N5     O85       5.78060      .   S
    Zr72   O86       2.51621  1_545   S
    N6     O86       5.78059      .   S
    Zr72   O87       2.51600      .   S
    N4     O87       5.78083      .   S
    Zr72   O88       2.51600  1_445   S
    N5     O88       5.78083      .   S
    Zr72   O89       2.51620  1_545   S
    N6     O89       5.78060      .   S
    Zr72   O90       2.51621      .   S
    N4     O90       5.78059      .   S
    Zr91   O92       2.64688      .   S
    N61    O92       5.87621      .   S
    Zr91   O93       2.65298      .   S
    N8     O93       5.88751      .   S
    Zr91   O94       2.65131      .   S
    N59    O94       5.87391  1_655   S
    Zr91   O95       2.65131      .   S
    N60    O95       5.87381  1_545   S
    Zr91   O96       2.64729      .   S
    N59    O96       5.87658  1_655   S
    Zr91   O97       2.65335      .   S
    N9     O97       5.88786      .   S
    Zr91   O98       2.64716      .   S
    N60    O98       5.87655  1_545   S
    Zr91   O99       2.65297      .   S
    N7     O99       5.88753      .   S
    Zr91   O100      2.65095      .   S
    N61    O100      5.87351      .   S
    Zr91   O101      2.65577      .   S
    N9     O101      5.88988      .   S
    Zr91   O102      2.65565      .   S
    N8     O102      5.88929      .   S
    Zr91   O103      2.65566      .   S
    N7     O103      5.88930      .   S
    Zr104  O105      2.66750      .   S
    N4     O105      5.92581      .   S
    Zr104  O106      2.66750      .   S
    N5     O106      5.92581      .   S
    Zr104  O107      2.66750      .   S
    N6     O107      5.92581      .   S
    Zr104  O108      2.66377      .   S
    N42    O108      5.91305      .   S
    Zr104  O109      2.67082      .   S
    N43    O109      5.91022      .   S
    Zr104  O110      2.66887      .   S
    N6     O110      5.91972      .   S
    Zr104  O111      2.67082      .   S
    N44    O111      5.91022      .   S
    Zr104  O112      2.66377      .   S
    N43    O112      5.91305      .   S
    Zr104  O113      2.66887      .   S
    N5     O113      5.91972      .   S
    Zr104  O114      2.66377      .   S
    N44    O114      5.91305      .   S
    Zr104  O115      2.66887      .   S
    N4     O115      5.91972      .   S
    Zr104  O116      2.67082      .   S
    N42    O116      5.91022      .   S
    Zr117  O118      2.66750      .   S
    N28    O118      5.92581  1_455   S
    Zr117  O119      2.66750      .   S
    N29    O119      5.92581      .   S
    Zr117  O120      2.66750      .   S
    N0     O120      5.92581  1_565   S
    Zr117  O121      2.67082      .   S
    N66    O121      5.91022      .   S
    Zr117  O122      2.66887      .   S
    N29    O122      5.91972      .   S
    Zr117  O123      2.66377      .   S
    N65    O123      5.91305      .   S
    Zr117  O124      2.66887      .   S
    N28    O124      5.91972  1_455   S
    Zr117  O125      2.67082      .   S
    N67    O125      5.91022      .   S
    Zr117  O126      2.66377      .   S
    N66    O126      5.91305      .   S
    Zr117  O127      2.66377      .   S
    N67    O127      5.91305      .   S
    Zr117  O128      2.67082      .   S
    N65    O128      5.91022      .   S
    Zr117  O129      2.66887      .   S
    N0     O129      5.91972  1_565   S
    Zr130  O131      2.66377  1_445   S
    N48    O131      5.91305      .   S
    Zr130  O132      2.67082  1_455   S
    N49    O132      5.91022      .   S
    Zr130  O133      2.66887  1_445   S
    N11    O133      5.91972      .   S
    Zr130  O134      2.66887  1_545   S
    N12    O134      5.91972      .   S
    Zr130  O135      2.67082  1_445   S
    N48    O135      5.91022      .   S
    Zr130  O136      2.66377      .   S
    N47    O136      5.91305      .   S
    Zr130  O137      2.66377  1_455   S
    N49    O137      5.91305      .   S
    Zr130  O138      2.67082      .   S
    N47    O138      5.91022      .   S
    Zr130  O139      2.66887      .   S
    N10    O139      5.91972      .   S
    Zr130  O140      2.66750  1_545   S
    N12    O140      5.92581      .   S
    Zr130  O141      2.66750  1_445   S
    N11    O141      5.92581      .   S
    Zr130  O142      2.66750      .   S
    N10    O142      5.92581      .   S
    Zr143  O144      2.67082  1_455   S
    N52    O144      5.91022      .   S
    Zr143  O145      2.66377      .   S
    N51    O145      5.91305      .   S
    Zr143  O146      2.66887      .   S
    N8     O146      5.91972      .   S
    Zr143  O147      2.66750  1_445   S
    N7     O147      5.92581      .   S
    Zr143  O148      2.66750  1_545   S
    N9     O148      5.92581      .   S
    Zr143  O149      2.66750      .   S
    N8     O149      5.92581      .   S
    Zr143  O150      2.66377  1_445   S
    N50    O150      5.91305      .   S
    Zr143  O151      2.67082      .   S
    N51    O151      5.91022      .   S
    Zr143  O152      2.66887  1_545   S
    N9     O152      5.91972      .   S
    Zr143  O153      2.66377  1_455   S
    N52    O153      5.91305      .   S
    Zr143  O154      2.67082  1_445   S
    N50    O154      5.91022      .   S
    Zr143  O155      2.66887  1_445   S
    N7     O155      5.91972      .   S
    Zr156  O157      2.66750      .   S
    N23    O157      5.92581      .   S
    Zr156  O158      2.66750      .   S
    N22    O158      5.92581      .   S
    Zr156  O159      2.66750      .   S
    N24    O159      5.92581      .   S
    Zr156  O160      2.67082      .   S
    N60    O160      5.91022      .   S
    Zr156  O161      2.66887      .   S
    N24    O161      5.91972      .   S
    Zr156  O162      2.66377      .   S
    N59    O162      5.91305      .   S
    Zr156  O163      2.66377      .   S
    N60    O163      5.91305      .   S
    Zr156  O164      2.66887      .   S
    N23    O164      5.91972      .   S
    Zr156  O165      2.67082      .   S
    N61    O165      5.91022      .   S
    Zr156  O166      2.66377      .   S
    N61    O166      5.91305      .   S
    Zr156  O167      2.67082      .   S
    N59    O167      5.91022      .   S
    Zr156  O168      2.66887      .   S
    N22    O168      5.91972      .   S
    Zr169  O170      2.66750      .   S
    N21    O170      5.92581      .   S
    Zr169  O171      2.66750      .   S
    N19    O171      5.92581      .   S
    Zr169  O172      2.66750      .   S
    N20    O172      5.92581      .   S
    Zr169  O173      2.66377      .   S
    N62    O173      5.91305      .   S
    Zr169  O174      2.67082      .   S
    N63    O174      5.91022      .   S
    Zr169  O175      2.66887      .   S
    N21    O175      5.91972      .   S
    Zr169  O176      2.66377      .   S
    N63    O176      5.91305      .   S
    Zr169  O177      2.66887      .   S
    N20    O177      5.91972      .   S
    Zr169  O178      2.67082      .   S
    N64    O178      5.91022      .   S
    Zr169  O179      2.66377      .   S
    N64    O179      5.91305      .   S
    Zr169  O180      2.67082      .   S
    N62    O180      5.91022      .   S
    Zr169  O181      2.66887      .   S
    N19    O181      5.91972      .   S
    Zr182  O183      2.66750      .   S
    N35    O183      5.92581      .   S
    Zr182  O184      2.66750      .   S
    N33    O184      5.92581  1_545   S
    Zr182  O185      2.66750      .   S
    N34    O185      5.92581  1_655   S
    Zr182  O186      2.66887      .   S
    N35    O186      5.91972      .   S
    Zr182  O187      2.67082      .   S
    N37    O187      5.91022      .   S
    Zr182  O188      2.66377      .   S
    N71    O188      5.91305      .   S
    Zr182  O189      2.66377      .   S
    N37    O189      5.91305      .   S
    Zr182  O190      2.66887      .   S
    N34    O190      5.91972  1_655   S
    Zr182  O191      2.67082      .   S
    N38    O191      5.91022      .   S
    Zr182  O192      2.66377      .   S
    N38    O192      5.91305      .   S
    Zr182  O193      2.67082      .   S
    N71    O193      5.91022      .   S
    Zr182  O194      2.66887      .   S
    N33    O194      5.91972  1_545   S
    Zr195  O196      2.67082      .   S
    N36    O196      5.91022      .   S
    Zr195  O197      2.66887      .   S
    N25    O197      5.91972      .   S
    Zr195  O198      2.66377  1_545   S
    N46    O198      5.91305      .   S
    Zr195  O199      2.66887  1_455   S
    N27    O199      5.91972      .   S
    Zr195  O200      2.66377      .   S
    N36    O200      5.91305      .   S
    Zr195  O201      2.67082  1_445   S
    N45    O201      5.91022      .   S
    Zr195  O202      2.66750  1_455   S
    N27    O202      5.92581      .   S
    Zr195  O203      2.66750  1_445   S
    N26    O203      5.92581      .   S
    Zr195  O204      2.66750      .   S
    N25    O204      5.92581      .   S
    Zr195  O205      2.67082  1_545   S
    N46    O205      5.91022      .   S
    Zr195  O206      2.66887  1_445   S
    N26    O206      5.91972      .   S
    Zr195  O207      2.66377  1_445   S
    N45    O207      5.91305      .   S
    Zr208  O209      2.66750      .   S
    N14    O209      5.92581      .   S
    Zr208  O210      2.66750      .   S
    N15    O210      5.92581      .   S
    Zr208  O211      2.66750      .   S
    N13    O211      5.92581      .   S
    Zr208  O212      2.66887      .   S
    N15    O212      5.91972      .   S
    Zr208  O213      2.67082      .   S
    N69    O213      5.91022      .   S
    Zr208  O214      2.66377      .   S
    N68    O214      5.91305      .   S
    Zr208  O215      2.66377      .   S
    N69    O215      5.91305      .   S
    Zr208  O216      2.67082      .   S
    N70    O216      5.91022      .   S
    Zr208  O217      2.66887      .   S
    N14    O217      5.91972      .   S
    Zr208  O218      2.67082      .   S
    N68    O218      5.91022      .   S
    Zr208  O219      2.66377      .   S
    N70    O219      5.91305      .   S
    Zr208  O220      2.66887      .   S
    N13    O220      5.91972      .   S
    Zr221  O222      2.67082      .   S
    N58    O222      5.91022      .   S
    Zr221  O223      2.66377      .   S
    N57    O223      5.91305      .   S
    Zr221  O224      2.66887      .   S
    N2     O224      5.91972  1_565   S
    Zr221  O225      2.66377      .   S
    N58    O225      5.91305      .   S
    Zr221  O226      2.67082      .   S
    N56    O226      5.91022      .   S
    Zr221  O227      2.66887      .   S
    N1     O227      5.91972  1_455   S
    Zr221  O228      2.67082      .   S
    N57    O228      5.91022      .   S
    Zr221  O229      2.66377      .   S
    N56    O229      5.91305      .   S
    Zr221  O230      2.66887      .   S
    N3     O230      5.91972      .   S
    Zr221  O231      2.66750      .   S
    N3     O231      5.92581      .   S
    Zr221  O232      2.66750      .   S
    N2     O232      5.92581  1_565   S
    Zr221  O233      2.66750      .   S
    N1     O233      5.92581  1_455   S
    Zr234  O235      2.65298      .   S
    N11    O235      5.88751      .   S
    Zr234  O236      2.64688      .   S
    N64    O236      5.87621      .   S
    Zr234  O237      2.65131      .   S
    N62    O237      5.87391  1_545   S
    Zr234  O238      2.64729      .   S
    N62    O238      5.87658  1_545   S
    Zr234  O239      2.65335      .   S
    N12    O239      5.88786      .   S
    Zr234  O240      2.65131      .   S
    N63    O240      5.87381  1_655   S
    Zr234  O241      2.65095      .   S
    N64    O241      5.87351      .   S
    Zr234  O242      2.65297      .   S
    N10    O242      5.88753      .   S
    Zr234  O243      2.64716      .   S
    N63    O243      5.87655  1_655   S
    Zr234  O244      2.65565      .   S
    N11    O244      5.88929      .   S
    Zr234  O245      2.65577      .   S
    N12    O245      5.88988      .   S
    Zr234  O246      2.65566      .   S
    N10    O246      5.88930      .   S
    Zr247  O248      2.76670  1_455   S
    N67    O248      5.99343      .   S
    Zr247  O249      2.76997      .   S
    N65    O249      5.99107      .   S
    Zr247  O250      2.55909      .   S
    N14    O250      5.75869      .   S
    Zr247  O251      2.76997  1_445   S
    N66    O251      5.99107      .   S
    Zr247  O252      2.76670      .   S
    N65    O252      5.99343      .   S
    Zr247  O253      2.55909  1_545   S
    N15    O253      5.75869      .   S
    Zr247  O254      2.76670  1_445   S
    N66    O254      5.99343      .   S
    Zr247  O255      2.76997  1_455   S
    N67    O255      5.99107      .   S
    Zr247  O256      2.55909  1_445   S
    N13    O256      5.75869      .   S
    Zr247  O257      2.51600  1_545   S
    N15    O257      5.78083      .   S
    Zr247  O258      2.51621      .   S
    N14    O258      5.78059      .   S
    Zr247  O259      2.51620  1_445   S
    N13    O259      5.78060      .   S
    Zr247  O260      2.51620      .   S
    N14    O260      5.78060      .   S
    Zr247  O261      2.51621  1_545   S
    N15    O261      5.78059      .   S
    Zr247  O262      2.51600  1_445   S
    N13    O262      5.78083      .   S
    Zr247  O263      2.51600      .   S
    N14    O263      5.78083      .   S
    Zr247  O264      2.51621  1_445   S
    N13    O264      5.78059      .   S
    Zr247  O265      2.51620  1_545   S
    N15    O265      5.78060      .   S
    Zr266  O267      2.66887      .   S
    N32    O267      5.91972      .   S
    Zr266  O268      2.66377      .   S
    N39    O268      5.91305      .   S
    Zr266  O269      2.67082      .   S
    N40    O269      5.91022      .   S
    Zr266  O270      2.66887      .   S
    N31    O270      5.91972  1_545   S
    Zr266  O271      2.66377      .   S
    N40    O271      5.91305      .   S
    Zr266  O272      2.67082      .   S
    N41    O272      5.91022      .   S
    Zr266  O273      2.66887      .   S
    N30    O273      5.91972  1_655   S
    Zr266  O274      2.66377      .   S
    N41    O274      5.91305      .   S
    Zr266  O275      2.67082      .   S
    N39    O275      5.91022      .   S
    Zr266  O276      2.66750      .   S
    N32    O276      5.92581      .   S
    Zr266  O277      2.66750      .   S
    N31    O277      5.92581  1_545   S
    Zr266  O278      2.66750      .   S
    N30    O278      5.92581  1_655   S
    Zr279  O280      2.65335      .   S
    N29    O280      5.88786      .   S
    Zr279  O281      2.65131      .   S
    N45    O281      5.87381      .   S
    Zr279  O282      2.64729      .   S
    N36    O282      5.87658      .   S
    Zr279  O283      2.65095      .   S
    N46    O283      5.87351      .   S
    Zr279  O284      2.64716      .   S
    N45    O284      5.87655      .   S
    Zr279  O285      2.65297      .   S
    N0     O285      5.88753      .   S
    Zr279  O286      2.64688      .   S
    N46    O286      5.87621      .   S
    Zr279  O287      2.65298      .   S
    N28    O287      5.88751      .   S
    Zr279  O288      2.65131      .   S
    N36    O288      5.87391      .   S
    Zr279  O289      2.65565      .   S
    N28    O289      5.88929      .   S
    Zr279  O290      2.65577      .   S
    N29    O290      5.88988      .   S
    Zr279  O291      2.65566      .   S
    N0     O291      5.88930      .   S
    Zr292  O293      2.65298      .   S
    N31    O293      5.88751      .   S
    Zr292  O294      2.65131      .   S
    N47    O294      5.87391  1_556   S
    Zr292  O295      2.64688      .   S
    N49    O295      5.87621  1_556   S
    Zr292  O296      2.65131      .   S
    N48    O296      5.87381  1_556   S
    Zr292  O297      2.64729      .   S
    N47    O297      5.87658  1_556   S
    Zr292  O298      2.65335      .   S
    N32    O298      5.88786      .   S
    Zr292  O299      2.65095      .   S
    N49    O299      5.87351  1_556   S
    Zr292  O300      2.65297      .   S
    N30    O300      5.88753      .   S
    Zr292  O301      2.64716      .   S
    N48    O301      5.87655  1_556   S
    Zr292  O302      2.65565      .   S
    N31    O302      5.88929      .   S
    Zr292  O303      2.65566      .   S
    N30    O303      5.88930      .   S
    Zr292  O304      2.65577      .   S
    N32    O304      5.88988      .   S
    Zr305  O306      2.65131      .   S
    N50    O306      5.87391      .   S
    Zr305  O307      2.64688      .   S
    N52    O307      5.87621      .   S
    Zr305  O308      2.65298      .   S
    N34    O308      5.88751      .   S
    Zr305  O309      2.65131      .   S
    N51    O309      5.87381      .   S
    Zr305  O310      2.64729      .   S
    N50    O310      5.87658      .   S
    Zr305  O311      2.65335      .   S
    N35    O311      5.88786      .   S
    Zr305  O312      2.65095      .   S
    N52    O312      5.87351      .   S
    Zr305  O313      2.64716      .   S
    N51    O313      5.87655      .   S
    Zr305  O314      2.65297      .   S
    N33    O314      5.88753      .   S
    Zr305  O315      2.65566      .   S
    N33    O315      5.88930      .   S
    Zr305  O316      2.65565      .   S
    N34    O316      5.88929      .   S
    Zr305  O317      2.65577      .   S
    N35    O317      5.88988      .   S
    Zr318  O319      2.65298      .   S
    N2     O319      5.88751      .   S
    Zr318  O320      2.65131      .   S
    N53    O320      5.87391  1_554   S
    Zr318  O321      2.64688      .   S
    N55    O321      5.87621  1_554   S
    Zr318  O322      2.64729      .   S
    N53    O322      5.87658  1_554   S
    Zr318  O323      2.65131      .   S
    N54    O323      5.87381  1_554   S
    Zr318  O324      2.65335      .   S
    N3     O324      5.88786      .   S
    Zr318  O325      2.64716      .   S
    N54    O325      5.87655  1_554   S
    Zr318  O326      2.65095      .   S
    N55    O326      5.87351  1_554   S
    Zr318  O327      2.65297      .   S
    N1     O327      5.88753      .   S
    Zr318  O328      2.65577      .   S
    N3     O328      5.88988      .   S
    Zr318  O329      2.65566      .   S
    N1     O329      5.88930      .   S
    Zr318  O330      2.65565      .   S
    N2     O330      5.88929      .   S
    Zr331  O332      2.66377      .   S
    N54    O332      5.91305      .   S
    Zr331  O333      2.66887      .   S
    N17    O333      5.91972      .   S
    Zr331  O334      2.67082  1_545   S
    N55    O334      5.91022      .   S
    Zr331  O335      2.66887  1_455   S
    N18    O335      5.91972      .   S
    Zr331  O336      2.67082      .   S
    N54    O336      5.91022      .   S
    Zr331  O337      2.66377  1_445   S
    N53    O337      5.91305      .   S
    Zr331  O338      2.66750  1_455   S
    N18    O338      5.92581      .   S
    Zr331  O339      2.66750      .   S
    N17    O339      5.92581      .   S
    Zr331  O340      2.66750  1_445   S
    N16    O340      5.92581      .   S
    Zr331  O341      2.67082  1_445   S
    N53    O341      5.91022      .   S
    Zr331  O342      2.66377  1_545   S
    N55    O342      5.91305      .   S
    Zr331  O343      2.66887  1_445   S
    N16    O343      5.91972      .   S
    Zr344  O345      2.65131      .   S
    N68    O345      5.87391  1_565   S
    Zr344  O346      2.64688      .   S
    N70    O346      5.87621      .   S
    Zr344  O347      2.65298      .   S
    N17    O347      5.88751      .   S
    Zr344  O348      2.64729      .   S
    N68    O348      5.87658  1_565   S
    Zr344  O349      2.65335      .   S
    N18    O349      5.88786      .   S
    Zr344  O350      2.65131      .   S
    N69    O350      5.87381  1_455   S
    Zr344  O351      2.64716      .   S
    N69    O351      5.87655  1_455   S
    Zr344  O352      2.65095      .   S
    N70    O352      5.87351      .   S
    Zr344  O353      2.65297      .   S
    N16    O353      5.88753      .   S
    Zr344  O354      2.65565      .   S
    N17    O354      5.88929      .   S
    Zr344  O355      2.65577      .   S
    N18    O355      5.88988      .   S
    Zr344  O356      2.65566      .   S
    N16    O356      5.88930      .   S
    Zr357  O358      2.76997  1_445   S
    N71    O358      5.99107      .   S
    Zr357  O359      2.76670  1_545   S
    N38    O359      5.99343      .   S
    Zr357  O360      2.55909  1_445   S
    N20    O360      5.75869      .   S
    Zr357  O361      2.76997      .   S
    N37    O361      5.99107      .   S
    Zr357  O362      2.76670  1_445   S
    N71    O362      5.99343      .   S
    Zr357  O363      2.55909  1_455   S
    N21    O363      5.75869      .   S
    Zr357  O364      2.76997  1_545   S
    N38    O364      5.99107      .   S
    Zr357  O365      2.76670      .   S
    N37    O365      5.99343      .   S
    Zr357  O366      2.55909      .   S
    N19    O366      5.75869      .   S
    Zr357  O367      2.51621  1_445   S
    N20    O367      5.78059      .   S
    Zr357  O368      2.51620      .   S
    N19    O368      5.78060      .   S
    Zr357  O369      2.51600  1_455   S
    N21    O369      5.78083      .   S
    Zr357  O370      2.51600      .   S
    N19    O370      5.78083      .   S
    Zr357  O371      2.51620  1_445   S
    N20    O371      5.78060      .   S
    Zr357  O372      2.51621  1_455   S
    N21    O372      5.78059      .   S
    Zr357  O373      2.51621      .   S
    N19    O373      5.78059      .   S
    Zr357  O374      2.51620  1_455   S
    N21    O374      5.78060      .   S
    Zr357  O375      2.51600  1_445   S
    N20    O375      5.78083      .   S
    Zr376  O377      2.76670  1_545   S
    N41    O377      5.99343      .   S
    Zr376  O378      2.55909      .   S
    N23    O378      5.75869      .   S
    Zr376  O379      2.76997      .   S
    N39    O379      5.99107      .   S
    Zr376  O380      2.76997  1_445   S
    N40    O380      5.99107      .   S
    Zr376  O381      2.55909  1_455   S
    N24    O381      5.75869      .   S
    Zr376  O382      2.76670      .   S
    N39    O382      5.99343      .   S
    Zr376  O383      2.76997  1_545   S
    N41    O383      5.99107      .   S
    Zr376  O384      2.76670  1_445   S
    N40    O384      5.99343      .   S
    Zr376  O385      2.55909  1_445   S
    N22    O385      5.75869      .   S
    Zr376  O386      2.51620  1_445   S
    N22    O386      5.78060      .   S
    Zr376  O387      2.51621      .   S
    N23    O387      5.78059      .   S
    Zr376  O388      2.51600  1_455   S
    N24    O388      5.78083      .   S
    Zr376  O389      2.51620      .   S
    N23    O389      5.78060      .   S
    Zr376  O390      2.51621  1_455   S
    N24    O390      5.78059      .   S
    Zr376  O391      2.51600  1_445   S
    N22    O391      5.78083      .   S
    Zr376  O392      2.51621  1_445   S
    N22    O392      5.78059      .   S
    Zr376  O393      2.51620  1_455   S
    N24    O393      5.78060      .   S
    Zr376  O394      2.51600      .   S
    N23    O394      5.78083      .   S
    Zr395  O396      2.65298      .   S
    N26    O396      5.88751      .   S
    Zr395  O397      2.64688      .   S
    N44    O397      5.87621      .   S
    Zr395  O398      2.65131      .   S
    N42    O398      5.87391  1_455   S
    Zr395  O399      2.64729      .   S
    N42    O399      5.87658  1_455   S
    Zr395  O400      2.65335      .   S
    N27    O400      5.88786      .   S
    Zr395  O401      2.65131      .   S
    N43    O401      5.87381  1_565   S
    Zr395  O402      2.65095      .   S
    N44    O402      5.87351      .   S
    Zr395  O403      2.64716      .   S
    N43    O403      5.87655  1_565   S
    Zr395  O404      2.65297      .   S
    N25    O404      5.88753      .   S
    Zr395  O405      2.65565      .   S
    N26    O405      5.88929      .   S
    Zr395  O406      2.65566      .   S
    N25    O406      5.88930      .   S
    Zr395  O407      2.65577      .   S
    N27    O407      5.88988      .   S
