# CIF file generated by openbabel 2.4.90, see http://openbabel.sf.net
data_I
_chemical_name_common ''
_cell_length_a 24.4635
_cell_length_b 24.4635
_cell_length_c 112.996
_cell_angle_alpha 90
_cell_angle_beta 90
_cell_angle_gamma 120
_space_group_name_H-M_alt 'P 1'
_space_group_name_Hall 'P 1'
loop_
    _symmetry_equiv_pos_as_xyz
    x,y,z
loop_
    _atom_site_label
    _atom_site_type_symbol
    _atom_site_fract_x
    _atom_site_fract_y
    _atom_site_fract_z
    _atom_site_occupancy
    C0      C    0.20830   0.35730   0.51654   1.000
    N1      N    0.27500   0.28630   0.52236   1.000
    H2      H    0.28070   0.25930   0.51810   1.000
    O3      O    0.00000   0.00000   0.56245   1.000
    O4      O    0.33330   0.66670   0.48022   1.000
    O5      O    0.11610   0.10290   0.54673   1.000
    O6      O    0.03630   0.12460   0.54896   1.000
    O7      O    0.37960   0.35030   0.52540   1.000
    O8      O    0.34250   0.55800   0.49357   1.000
    O9      O    0.23500   0.53890   0.49299   1.000
    O10     O    0.38880   0.74920   0.45698   1.000
    O11     O    0.38320   0.80530   0.47220   1.000
    O12     O    0.49130   0.88290   0.40631   1.000
    O13     O    0.51790   0.09670   0.47150   1.000
    O14     O    0.60870   0.19080   0.40243   1.000
    O15     O    0.63250   0.24990   0.41916   1.000
    N16     N    0.32140   0.39200   0.52280   1.000
    H17     H    0.34730   0.42660   0.52670   1.000
    C18     C    0.08980   0.13260   0.54405   1.000
    C19     C    0.12130   0.18990   0.53659   1.000
    C20     C    0.18160   0.20890   0.53280   1.000
    H21     H    0.20220   0.18570   0.53460   1.000
    C22     C    0.21140   0.26500   0.52598   1.000
    C23     C    0.18280   0.30240   0.52376   1.000
    C24     C    0.12580   0.28130   0.52800   1.000
    H25     H    0.10720   0.30660   0.52660   1.000
    C26     C    0.08860   0.22460   0.53460   1.000
    H27     H    0.04720   0.21120   0.53740   1.000
    C28     C    0.33190   0.34720   0.52478   1.000
    C29     C    0.50020   0.91530   0.41400   1.000
    C30     C    0.27590   0.39970   0.51548   1.000
    C31     C    0.30120   0.45290   0.50836   1.000
    H32     H    0.34540   0.48060   0.50770   1.000
    C33     C    0.25630   0.46350   0.50206   1.000
    C34     C    0.19120   0.41850   0.50200   1.000
    H35     H    0.16340   0.42700   0.49750   1.000
    C36     C    0.16820   0.36660   0.50780   1.000
    H37     H    0.12580   0.33420   0.50650   1.000
    C38     C    0.28930   0.52800   0.49590   1.000
    C39     C    0.39810   0.79930   0.46170   1.000
    C40     C    0.43150   0.86060   0.45471   1.000
    C41     C    0.45780   0.85740   0.44407   1.000
    H42     H    0.45420   0.81920   0.44120   1.000
    C43     C    0.49090   0.91570   0.43760   1.000
    C44     C    0.49300   0.97030   0.44147   1.000
    C45     C    0.46550   0.96860   0.45156   1.000
    C46     C    0.43180   0.91180   0.45855   1.000
    H47     H    0.41070   0.91130   0.46560   1.000
    C48     C    0.52360   0.02670   0.43478   1.000
    C49     C    0.52530   0.02510   0.42209   1.000
    C50     C    0.55140   0.07880   0.41588   1.000
    H51     H    0.54970   0.07670   0.40750   1.000
    C52     C    0.58180   0.13910   0.42148   1.000
    C53     C    0.58580   0.13980   0.43362   1.000
    H54     H    0.61070   0.17900   0.43750   1.000
    C55     C    0.55590   0.08710   0.44011   1.000
    C56     C    0.61100   0.19650   0.41291   1.000
    N57     N    0.51520   0.90930   0.42631   1.000
    H58     H    0.54530   0.89990   0.42700   1.000
    N59     N    0.49100   0.96920   0.41435   1.000
    H60     H    0.46250   0.96880   0.40950   1.000
    N61     N    0.46180   0.01730   0.45712   1.000
    H62     H    0.42370   0.01210   0.45780   1.000
    N63     N    0.55830   0.09540   0.45210   1.000
    H64     H    0.59760   0.11830   0.45450   1.000
    C65     C    0.51420   0.07730   0.46210   1.000
    O66     O    0.66663   0.33337   0.64689   1.000
    O67     O    0.87540   0.91170   0.54896   1.000
    O68     O    0.75497   0.45793   0.38229   1.000
    O69     O    0.70297   0.24503   0.38229   1.000
    O70     O    0.36963   0.79127   0.21563   1.000
    O71     O    0.20873   0.57837   0.21563   1.000
    O72     O    0.00000   0.00000   0.93755   1.000
    O73     O    0.00000   0.00000   0.43755   1.000
    O74     O    0.00000   0.00000   0.06245   1.000
    O75     O    0.66667   0.33333   0.89578   1.000
    O76     O    0.66667   0.33333   0.27088   1.000
    O77     O    0.66667   0.33333   0.77088   1.000
    O78     O    0.66667   0.33333   0.39578   1.000
    O79     O    0.33333   0.66667   0.22912   1.000
    O80     O    0.33333   0.66667   0.60422   1.000
    O81     O    0.33333   0.66667   0.10422   1.000
    O82     O    0.33333   0.66667   0.72912   1.000
    O83     O    0.89710   0.01320   0.54673   1.000
    O84     O    0.98680   0.88390   0.54673   1.000
    O85     O    0.66670   0.33330   0.01978   1.000
    O86     O    0.66670   0.33330   0.51978   1.000
    O87     O    0.33330   0.66670   0.98022   1.000
    O88     O    0.99997   0.00003   0.81355   1.000
    O89     O    0.99997   0.99993   0.81355   1.000
    O90     O    0.00007   0.00003   0.81355   1.000
    O91     O    0.33337   0.66663   0.35311   1.000
    O92     O    0.33337   0.66663   0.85311   1.000
    O93     O    0.99997   0.00003   0.31355   1.000
    O94     O    0.00007   0.00003   0.31355   1.000
    O95     O    0.99997   0.99993   0.31355   1.000
    O96     O    0.66663   0.33337   0.14689   1.000
    O97     O    0.00003   0.99997   0.68645   1.000
    O98     O    0.99993   0.99997   0.68645   1.000
    O99     O    0.00003   0.00007   0.68645   1.000
    O100    O    0.00003   0.99997   0.18645   1.000
    O101    O    0.00003   0.00007   0.18645   1.000
    O102    O    0.99993   0.99997   0.18645   1.000
    O103    O    0.05547   0.97293   0.29031   1.000
    O104    O    0.72213   0.41587   0.12365   1.000
    O105    O    0.58413   0.30627   0.12365   1.000
    O106    O    0.69373   0.27787   0.12365   1.000
    O107    O    0.08253   0.05547   0.70969   1.000
    O108    O    0.08830   0.96370   0.54896   1.000
    O109    O    0.10290   0.11610   0.95327   1.000
    O110    O    0.01320   0.89710   0.95327   1.000
    O111    O    0.88390   0.98680   0.95327   1.000
    O112    O    0.88390   0.89710   0.45327   1.000
    O113    O    0.10290   0.98680   0.45327   1.000
    O114    O    0.01320   0.11610   0.45327   1.000
    O115    O    0.89710   0.88390   0.04673   1.000
    O116    O    0.98680   0.10290   0.04673   1.000
    O117    O    0.11610   0.01320   0.04673   1.000
    O118    O    0.78277   0.43623   0.88006   1.000
    O119    O    0.56377   0.34653   0.88006   1.000
    O120    O    0.65347   0.21723   0.88006   1.000
    O121    O    0.76957   0.44943   0.28660   1.000
    O122    O    0.67987   0.23043   0.28660   1.000
    O123    O    0.55057   0.32013   0.28660   1.000
    O124    O    0.55057   0.23043   0.78660   1.000
    O125    O    0.76957   0.32013   0.78660   1.000
    O126    O    0.67987   0.44943   0.78660   1.000
    O127    O    0.56377   0.21723   0.38006   1.000
    O128    O    0.65347   0.43623   0.38006   1.000
    O129    O    0.78277   0.34653   0.38006   1.000
    O130    O    0.44943   0.76957   0.21340   1.000
    O131    O    0.23043   0.67987   0.21340   1.000
    O132    O    0.32013   0.55057   0.21340   1.000
    O133    O    0.43623   0.78277   0.61994   1.000
    O134    O    0.34653   0.56377   0.61994   1.000
    O135    O    0.21723   0.65347   0.61994   1.000
    O136    O    0.21723   0.56377   0.11994   1.000
    O137    O    0.43623   0.65347   0.11994   1.000
    O138    O    0.34653   0.78277   0.11994   1.000
    O139    O    0.23043   0.55057   0.71340   1.000
    O140    O    0.32013   0.76957   0.71340   1.000
    O141    O    0.44943   0.67987   0.71340   1.000
    O142    O    0.64970   0.02930   0.52540   1.000
    O143    O    0.97070   0.62040   0.52540   1.000
    O144    O    0.12460   0.03630   0.95104   1.000
    O145    O    0.91170   0.87540   0.95104   1.000
    O146    O    0.96370   0.08830   0.95104   1.000
    O147    O    0.96370   0.87540   0.45104   1.000
    O148    O    0.12460   0.08830   0.45104   1.000
    O149    O    0.91170   0.03630   0.45104   1.000
    O150    O    0.87540   0.96370   0.04896   1.000
    O151    O    0.08830   0.12460   0.04896   1.000
    O152    O    0.03630   0.91170   0.04896   1.000
    O153    O    0.70297   0.45793   0.88229   1.000
    O154    O    0.54207   0.24503   0.88229   1.000
    O155    O    0.75497   0.29703   0.88229   1.000
    O156    O    0.79127   0.36963   0.28437   1.000
    O157    O    0.57837   0.20873   0.28437   1.000
    O158    O    0.63037   0.42163   0.28437   1.000
    O159    O    0.63037   0.20873   0.78437   1.000
    O160    O    0.79127   0.42163   0.78437   1.000
    O161    O    0.57837   0.36963   0.78437   1.000
    O162    O    0.54207   0.29703   0.38229   1.000
    O163    O    0.23663   0.14877   0.63817   1.000
    O164    O    0.91213   0.76337   0.63817   1.000
    O165    O    0.85123   0.08787   0.63817   1.000
    O166    O    0.75010   0.38260   0.41916   1.000
    O167    O    0.61740   0.36750   0.41916   1.000
    O168    O    0.80920   0.41790   0.40243   1.000
    O169    O    0.42163   0.63037   0.21563   1.000
    O170    O    0.45793   0.70297   0.61771   1.000
    O171    O    0.24503   0.54207   0.61771   1.000
    O172    O    0.29703   0.75497   0.61771   1.000
    O173    O    0.29703   0.54207   0.11771   1.000
    O174    O    0.45793   0.75497   0.11771   1.000
    O175    O    0.24503   0.70297   0.11771   1.000
    O176    O    0.20873   0.63037   0.71563   1.000
    O177    O    0.42163   0.79127   0.71563   1.000
    O178    O    0.36963   0.57837   0.71563   1.000
    O179    O    0.44200   0.78450   0.49357   1.000
    O180    O    0.21550   0.65750   0.49357   1.000
    O181    O    0.35030   0.37960   0.97460   1.000
    O182    O    0.02930   0.64970   0.97460   1.000
    O183    O    0.62040   0.97070   0.97460   1.000
    O184    O    0.62040   0.64970   0.47460   1.000
    O185    O    0.35030   0.97070   0.47460   1.000
    O186    O    0.02930   0.37960   0.47460   1.000
    O187    O    0.64970   0.62040   0.02540   1.000
    O188    O    0.97070   0.35030   0.02540   1.000
    O189    O    0.37960   0.02930   0.02540   1.000
    O190    O    0.04627   0.68363   0.85873   1.000
    O191    O    0.31637   0.36263   0.85873   1.000
    O192    O    0.63737   0.95373   0.85873   1.000
    O193    O    0.01697   0.71293   0.30793   1.000
    O194    O    0.69597   0.98303   0.30793   1.000
    O195    O    0.28707   0.30403   0.30793   1.000
    O196    O    0.28707   0.98303   0.80793   1.000
    O197    O    0.01697   0.30403   0.80793   1.000
    O198    O    0.69597   0.71293   0.80793   1.000
    O199    O    0.31637   0.95373   0.35873   1.000
    O200    O    0.63737   0.68363   0.35873   1.000
    O201    O    0.04627   0.36263   0.35873   1.000
    O202    O    0.71293   0.01697   0.19207   1.000
    O203    O    0.98303   0.69597   0.19207   1.000
    O204    O    0.30403   0.28707   0.19207   1.000
    O205    O    0.68363   0.04627   0.64127   1.000
    O206    O    0.36263   0.31637   0.64127   1.000
    O207    O    0.95373   0.63737   0.64127   1.000
    O208    O    0.95373   0.31637   0.14127   1.000
    O209    O    0.68363   0.63737   0.14127   1.000
    O210    O    0.36263   0.04627   0.14127   1.000
    O211    O    0.98303   0.28707   0.69207   1.000
    O212    O    0.30403   0.01697   0.69207   1.000
    O213    O    0.71293   0.69597   0.69207   1.000
    O214    O    0.46110   0.69610   0.49299   1.000
    O215    O    0.30390   0.76500   0.49299   1.000
    O216    O    0.55800   0.34250   0.00643   1.000
    O217    O    0.78450   0.44200   0.00643   1.000
    O218    O    0.65750   0.21550   0.00643   1.000
    O219    O    0.65750   0.44200   0.50643   1.000
    O220    O    0.55800   0.21550   0.50643   1.000
    O221    O    0.78450   0.34250   0.50643   1.000
    O222    O    0.44200   0.65750   0.99357   1.000
    O223    O    0.21550   0.55800   0.99357   1.000
    O224    O    0.34250   0.78450   0.99357   1.000
    O225    O    0.00917   0.89133   0.82690   1.000
    O226    O    0.10867   0.11783   0.82690   1.000
    O227    O    0.88217   0.99083   0.82690   1.000
    O228    O    0.22467   0.67583   0.33976   1.000
    O229    O    0.45117   0.77533   0.33976   1.000
    O230    O    0.32417   0.54883   0.33976   1.000
    O231    O    0.32417   0.77533   0.83976   1.000
    O232    O    0.22467   0.54883   0.83976   1.000
    O233    O    0.45117   0.67583   0.83976   1.000
    O234    O    0.10867   0.99083   0.32690   1.000
    O235    O    0.88217   0.89133   0.32690   1.000
    O236    O    0.00917   0.11783   0.32690   1.000
    O237    O    0.67583   0.22467   0.16024   1.000
    O238    O    0.77533   0.45117   0.16024   1.000
    O239    O    0.54883   0.32417   0.16024   1.000
    O240    O    0.89133   0.00917   0.67310   1.000
    O241    O    0.11783   0.10867   0.67310   1.000
    O242    O    0.99083   0.88217   0.67310   1.000
    O243    O    0.99083   0.10867   0.17310   1.000
    O244    O    0.89133   0.88217   0.17310   1.000
    O245    O    0.11783   0.00917   0.17310   1.000
    O246    O    0.77533   0.32417   0.66024   1.000
    O247    O    0.54883   0.22467   0.66024   1.000
    O248    O    0.67583   0.45117   0.66024   1.000
    O249    O    0.25080   0.63960   0.45698   1.000
    O250    O    0.36040   0.61120   0.45698   1.000
    O251    O    0.53890   0.23500   0.00701   1.000
    O252    O    0.69610   0.46110   0.00701   1.000
    O253    O    0.76500   0.30390   0.00701   1.000
    O254    O    0.76500   0.46110   0.50701   1.000
    O255    O    0.53890   0.30390   0.50701   1.000
    O256    O    0.69610   0.23500   0.50701   1.000
    O257    O    0.46110   0.76500   0.99299   1.000
    O258    O    0.30390   0.53890   0.99299   1.000
    O259    O    0.23500   0.69610   0.99299   1.000
    O260    O    0.90167   0.87223   0.82632   1.000
    O261    O    0.12777   0.02943   0.82632   1.000
    O262    O    0.97057   0.09833   0.82632   1.000
    O263    O    0.20557   0.56833   0.34034   1.000
    O264    O    0.36277   0.79443   0.34034   1.000
    O265    O    0.43167   0.63723   0.34034   1.000
    O266    O    0.43167   0.79443   0.84034   1.000
    O267    O    0.20557   0.63723   0.84034   1.000
    O268    O    0.36277   0.56833   0.84034   1.000
    O269    O    0.12777   0.09833   0.32632   1.000
    O270    O    0.97057   0.87223   0.32632   1.000
    O271    O    0.90167   0.02943   0.32632   1.000
    O272    O    0.56833   0.20557   0.15966   1.000
    O273    O    0.79443   0.36277   0.15966   1.000
    O274    O    0.63723   0.43167   0.15966   1.000
    O275    O    0.87223   0.90167   0.67368   1.000
    O276    O    0.02943   0.12777   0.67368   1.000
    O277    O    0.09833   0.97057   0.67368   1.000
    O278    O    0.09833   0.12777   0.17368   1.000
    O279    O    0.87223   0.97057   0.17368   1.000
    O280    O    0.02943   0.90167   0.17368   1.000
    O281    O    0.79443   0.43167   0.65966   1.000
    O282    O    0.63723   0.20557   0.65966   1.000
    O283    O    0.56833   0.36277   0.65966   1.000
    O284    O    0.19470   0.57790   0.47220   1.000
    O285    O    0.42210   0.61680   0.47220   1.000
    O286    O    0.74920   0.38880   0.04302   1.000
    O287    O    0.63960   0.25080   0.04302   1.000
    O288    O    0.61120   0.36040   0.04302   1.000
    O289    O    0.61120   0.25080   0.54302   1.000
    O290    O    0.74920   0.36040   0.54302   1.000
    O291    O    0.63960   0.38880   0.54302   1.000
    O292    O    0.25080   0.61120   0.95698   1.000
    O293    O    0.36040   0.74920   0.95698   1.000
    O294    O    0.38880   0.63960   0.95698   1.000
    O295    O    0.05547   0.08253   0.79031   1.000
    O296    O    0.91747   0.97293   0.79031   1.000
    O297    O    0.02707   0.94453   0.79031   1.000
    O298    O    0.41587   0.72213   0.37635   1.000
    O299    O    0.30627   0.58413   0.37635   1.000
    O300    O    0.27787   0.69373   0.37635   1.000
    O301    O    0.27787   0.58413   0.87635   1.000
    O302    O    0.41587   0.69373   0.87635   1.000
    O303    O    0.30627   0.72213   0.87635   1.000
    O304    O    0.91747   0.94453   0.29031   1.000
    O305    O    0.02707   0.08253   0.29031   1.000
    C306    C    0.40193   0.85657   0.70326   1.000
    C307    C    0.45463   0.59807   0.70326   1.000
    H308    H    0.81430   0.01650   0.53460   1.000
    H309    H    0.98350   0.79780   0.53460   1.000
    C310    C    0.79110   0.97270   0.53280   1.000
    C311    C    0.02730   0.81840   0.53280   1.000
    C312    C    0.20890   0.18160   0.96720   1.000
    C313    C    0.97270   0.79110   0.96720   1.000
    C314    C    0.81840   0.02730   0.96720   1.000
    O315    O    0.97293   0.91747   0.70969   1.000
    O316    O    0.94453   0.02707   0.70969   1.000
    O317    O    0.94453   0.91747   0.20969   1.000
    O318    O    0.08253   0.02707   0.20969   1.000
    O319    O    0.97293   0.05547   0.20969   1.000
    O320    O    0.58413   0.27787   0.62365   1.000
    O321    O    0.69373   0.41587   0.62365   1.000
    O322    O    0.72213   0.30627   0.62365   1.000
    O323    O    0.11710   0.60840   0.40631   1.000
    O324    O    0.39160   0.50870   0.40631   1.000
    O325    O    0.80530   0.38320   0.02780   1.000
    O326    O    0.57790   0.19470   0.02780   1.000
    O327    O    0.61680   0.42210   0.02780   1.000
    O328    O    0.61680   0.19470   0.52780   1.000
    O329    O    0.80530   0.42210   0.52780   1.000
    O330    O    0.57790   0.38320   0.52780   1.000
    O331    O    0.19470   0.61680   0.97220   1.000
    O332    O    0.42210   0.80530   0.97220   1.000
    O333    O    0.38320   0.57790   0.97220   1.000
    O334    O    0.04987   0.13863   0.80553   1.000
    O335    O    0.86137   0.91123   0.80553   1.000
    O336    O    0.08877   0.95013   0.80553   1.000
    O337    O    0.47197   0.71653   0.36113   1.000
    O338    O    0.24457   0.52803   0.36113   1.000
    O339    O    0.28347   0.75543   0.36113   1.000
    O340    O    0.28347   0.52803   0.86113   1.000
    O341    O    0.47197   0.75543   0.86113   1.000
    O342    O    0.24457   0.71653   0.86113   1.000
    O343    O    0.86137   0.95013   0.30553   1.000
    O344    O    0.08877   0.13863   0.30553   1.000
    O345    O    0.04987   0.91123   0.30553   1.000
    O346    O    0.71653   0.47197   0.13887   1.000
    O347    O    0.52803   0.24457   0.13887   1.000
    O348    O    0.75543   0.28347   0.13887   1.000
    O349    O    0.13863   0.04987   0.69447   1.000
    O350    O    0.91123   0.86137   0.69447   1.000
    O351    O    0.95013   0.08877   0.69447   1.000
    O352    O    0.95013   0.86137   0.19447   1.000
    O353    O    0.13863   0.08877   0.19447   1.000
    O354    O    0.91123   0.04987   0.19447   1.000
    O355    O    0.52803   0.28347   0.63887   1.000
    O356    O    0.75543   0.47197   0.63887   1.000
    O357    O    0.71653   0.24457   0.63887   1.000
    O358    O    0.90330   0.42120   0.47150   1.000
    O359    O    0.57880   0.48210   0.47150   1.000
    O360    O    0.88290   0.49130   0.09369   1.000
    O361    O    0.60840   0.11710   0.09369   1.000
    O362    O    0.50870   0.39160   0.09369   1.000
    O363    O    0.50870   0.11710   0.59369   1.000
    O364    O    0.88290   0.39160   0.59369   1.000
    O365    O    0.60840   0.49130   0.59369   1.000
    O366    O    0.11710   0.50870   0.90631   1.000
    O367    O    0.39160   0.88290   0.90631   1.000
    O368    O    0.49130   0.60840   0.90631   1.000
    O369    O    0.15797   0.21623   0.73964   1.000
    O370    O    0.78377   0.94173   0.73964   1.000
    O371    O    0.05827   0.84203   0.73964   1.000
    O372    O    0.54957   0.82463   0.42702   1.000
    O373    O    0.27507   0.45043   0.42702   1.000
    O374    O    0.17537   0.72493   0.42702   1.000
    O375    O    0.17537   0.45043   0.92702   1.000
    O376    O    0.54957   0.72493   0.92702   1.000
    O377    O    0.27507   0.82463   0.92702   1.000
    O378    O    0.78377   0.84203   0.23964   1.000
    O379    O    0.05827   0.21623   0.23964   1.000
    O380    O    0.15797   0.94173   0.23964   1.000
    O381    O    0.82463   0.54957   0.07298   1.000
    O382    O    0.45043   0.27507   0.07298   1.000
    O383    O    0.72493   0.17537   0.07298   1.000
    O384    O    0.21623   0.15797   0.76036   1.000
    O385    O    0.94173   0.78377   0.76036   1.000
    O386    O    0.84203   0.05827   0.76036   1.000
    O387    O    0.84203   0.78377   0.26036   1.000
    O388    O    0.21623   0.05827   0.26036   1.000
    O389    O    0.94173   0.15797   0.26036   1.000
    O390    O    0.45043   0.17537   0.57298   1.000
    O391    O    0.72493   0.54957   0.57298   1.000
    O392    O    0.82463   0.27507   0.57298   1.000
    O393    O    0.58210   0.39130   0.40243   1.000
    O394    O    0.19080   0.60870   0.09757   1.000
    O395    O    0.41790   0.80920   0.09757   1.000
    O396    O    0.09670   0.51790   0.02850   1.000
    O397    O    0.42120   0.90330   0.02850   1.000
    O398    O    0.48210   0.57880   0.02850   1.000
    O399    O    0.48210   0.90330   0.52850   1.000
    O400    O    0.09670   0.57880   0.52850   1.000
    O401    O    0.42120   0.51790   0.52850   1.000
    O402    O    0.90330   0.48210   0.97150   1.000
    O403    O    0.57880   0.09670   0.97150   1.000
    O404    O    0.51790   0.42120   0.97150   1.000
    O405    O    0.18457   0.43003   0.80483   1.000
    O406    O    0.56997   0.75453   0.80483   1.000
    O407    O    0.24547   0.81543   0.80483   1.000
    O408    O    0.76337   0.85123   0.36183   1.000
    O409    O    0.08787   0.23663   0.36183   1.000
    O410    O    0.14877   0.91213   0.36183   1.000
    O411    O    0.14877   0.23663   0.86183   1.000
    O412    O    0.76337   0.91213   0.86183   1.000
    O413    O    0.08787   0.85123   0.86183   1.000
    O414    O    0.56997   0.81543   0.30483   1.000
    O415    O    0.24547   0.43003   0.30483   1.000
    O416    O    0.18457   0.75453   0.30483   1.000
    O417    O    0.85123   0.76337   0.13817   1.000
    O418    O    0.23663   0.08787   0.13817   1.000
    O419    O    0.91213   0.14877   0.13817   1.000
    O420    O    0.43003   0.18457   0.69517   1.000
    O421    O    0.75453   0.56997   0.69517   1.000
    O422    O    0.81543   0.24547   0.69517   1.000
    O423    O    0.81543   0.56997   0.19517   1.000
    O424    O    0.43003   0.24547   0.19517   1.000
    O425    O    0.75453   0.18457   0.19517   1.000
    C426    C    0.53067   0.42193   0.79873   1.000
    C427    C    0.44207   0.24473   0.36793   1.000
    C428    C    0.80267   0.55793   0.36793   1.000
    C429    C    0.75527   0.19733   0.36793   1.000
    C430    C    0.42193   0.89127   0.20127   1.000
    C431    C    0.10873   0.53067   0.20127   1.000
    C432    C    0.46933   0.57807   0.20127   1.000
    C433    C    0.55793   0.75527   0.63207   1.000
    C434    C    0.19733   0.44207   0.63207   1.000
    C435    C    0.24473   0.80267   0.63207   1.000
    C436    C    0.24473   0.44207   0.13207   1.000
    C437    C    0.55793   0.80267   0.13207   1.000
    C438    C    0.19733   0.75527   0.13207   1.000
    C439    C    0.10873   0.57807   0.70127   1.000
    O440    O    0.39130   0.58210   0.09757   1.000
    O441    O    0.39130   0.80920   0.59757   1.000
    O442    O    0.19080   0.58210   0.59757   1.000
    O443    O    0.41790   0.60870   0.59757   1.000
    O444    O    0.80920   0.39130   0.90243   1.000
    O445    O    0.58210   0.19080   0.90243   1.000
    O446    O    0.60870   0.41790   0.90243   1.000
    O447    O    0.27537   0.52413   0.73576   1.000
    O448    O    0.47587   0.75123   0.73576   1.000
    O449    O    0.24877   0.72463   0.73576   1.000
    O450    O    0.85747   0.94203   0.43090   1.000
    O451    O    0.08457   0.14253   0.43090   1.000
    O452    O    0.05797   0.91543   0.43090   1.000
    O453    O    0.05797   0.14253   0.93090   1.000
    O454    O    0.85747   0.91543   0.93090   1.000
    O455    O    0.08457   0.94203   0.93090   1.000
    O456    O    0.47587   0.72463   0.23576   1.000
    O457    O    0.24877   0.52413   0.23576   1.000
    O458    O    0.27537   0.75123   0.23576   1.000
    O459    O    0.94203   0.85747   0.06910   1.000
    O460    O    0.14253   0.08457   0.06910   1.000
    O461    O    0.91543   0.05797   0.06910   1.000
    O462    O    0.52413   0.27537   0.76424   1.000
    O463    O    0.75123   0.47587   0.76424   1.000
    O464    O    0.72463   0.24877   0.76424   1.000
    O465    O    0.72463   0.47587   0.26424   1.000
    O466    O    0.52413   0.24877   0.26424   1.000
    O467    O    0.75123   0.27537   0.26424   1.000
    O468    O    0.14253   0.05797   0.56910   1.000
    O469    O    0.91543   0.85747   0.56910   1.000
    O470    O    0.94203   0.08457   0.56910   1.000
    N471    N    0.71370   0.98870   0.52236   1.000
    N472    N    0.01130   0.72500   0.52236   1.000
    O473    O    0.24990   0.63250   0.08084   1.000
    O474    O    0.38260   0.75010   0.08084   1.000
    O475    O    0.36750   0.61740   0.08084   1.000
    O476    O    0.36750   0.75010   0.58084   1.000
    O477    O    0.24990   0.61740   0.58084   1.000
    O478    O    0.38260   0.63250   0.58084   1.000
    O479    O    0.75010   0.36750   0.91916   1.000
    O480    O    0.61740   0.24990   0.91916   1.000
    O481    O    0.63250   0.38260   0.91916   1.000
    O482    O    0.29917   0.58323   0.75249   1.000
    O483    O    0.41677   0.71593   0.75249   1.000
    O484    O    0.28407   0.70083   0.75249   1.000
    O485    O    0.91657   0.96583   0.41417   1.000
    O486    O    0.04927   0.08343   0.41417   1.000
    O487    O    0.03417   0.95073   0.41417   1.000
    O488    O    0.03417   0.08343   0.91417   1.000
    O489    O    0.91657   0.95073   0.91417   1.000
    O490    O    0.04927   0.96583   0.91417   1.000
    O491    O    0.41677   0.70083   0.25249   1.000
    O492    O    0.28407   0.58323   0.25249   1.000
    O493    O    0.29917   0.71593   0.25249   1.000
    O494    O    0.96583   0.91657   0.08583   1.000
    O495    O    0.08343   0.04927   0.08583   1.000
    O496    O    0.95073   0.03417   0.08583   1.000
    O497    O    0.58323   0.29917   0.74751   1.000
    O498    O    0.71593   0.41677   0.74751   1.000
    O499    O    0.70083   0.28407   0.74751   1.000
    O500    O    0.70083   0.41677   0.24751   1.000
    O501    O    0.58323   0.28407   0.24751   1.000
    O502    O    0.71593   0.29917   0.24751   1.000
    O503    O    0.08343   0.03417   0.58583   1.000
    O504    O    0.95073   0.91657   0.58583   1.000
    O505    O    0.96583   0.04927   0.58583   1.000
    H506    H    0.74070   0.02140   0.51810   1.000
    H507    H    0.97860   0.71930   0.51810   1.000
    N508    N    0.28630   0.27500   0.97764   1.000
    N509    N    0.98870   0.71370   0.97764   1.000
    N510    N    0.72500   0.01130   0.97764   1.000
    N511    N    0.72500   0.71370   0.47764   1.000
    N512    N    0.28630   0.01130   0.47764   1.000
    N513    N    0.98870   0.27500   0.47764   1.000
    N514    N    0.71370   0.72500   0.02236   1.000
    N515    N    0.01130   0.28630   0.02236   1.000
    N516    N    0.27500   0.98870   0.02236   1.000
    N517    N    0.94167   0.61963   0.85569   1.000
    N518    N    0.38037   0.32203   0.85569   1.000
    N519    N    0.67797   0.05833   0.85569   1.000
    N520    N    0.95297   0.60833   0.31097   1.000
    N521    N    0.65537   0.04703   0.31097   1.000
    N522    N    0.39167   0.34463   0.31097   1.000
    N523    N    0.39167   0.04703   0.81097   1.000
    N524    N    0.95297   0.34463   0.81097   1.000
    N525    N    0.65537   0.60833   0.81097   1.000
    N526    N    0.38037   0.05833   0.35569   1.000
    N527    N    0.67797   0.61963   0.35569   1.000
    N528    N    0.94167   0.32203   0.35569   1.000
    N529    N    0.60833   0.95297   0.18903   1.000
    N530    N    0.04703   0.65537   0.18903   1.000
    N531    N    0.34463   0.39167   0.18903   1.000
    N532    N    0.61963   0.94167   0.64431   1.000
    N533    N    0.32203   0.38037   0.64431   1.000
    N534    N    0.05833   0.67797   0.64431   1.000
    N535    N    0.05833   0.38037   0.14431   1.000
    N536    N    0.61963   0.67797   0.14431   1.000
    N537    N    0.32203   0.94167   0.14431   1.000
    N538    N    0.04703   0.39167   0.68903   1.000
    N539    N    0.34463   0.95297   0.68903   1.000
    N540    N    0.60833   0.65537   0.68903   1.000
    N541    N    0.60800   0.92940   0.52280   1.000
    N542    N    0.07060   0.67860   0.52280   1.000
    H543    H    0.25930   0.28070   0.98190   1.000
    H544    H    0.02140   0.74070   0.98190   1.000
    H545    H    0.71930   0.97860   0.98190   1.000
    H546    H    0.71930   0.74070   0.48190   1.000
    H547    H    0.25930   0.97860   0.48190   1.000
    H548    H    0.02140   0.28070   0.48190   1.000
    H549    H    0.74070   0.71930   0.01810   1.000
    H550    H    0.97860   0.25930   0.01810   1.000
    H551    H    0.28070   0.02140   0.01810   1.000
    H552    H    0.94737   0.59263   0.85143   1.000
    H553    H    0.40737   0.35473   0.85143   1.000
    H554    H    0.64527   0.05263   0.85143   1.000
    H555    H    0.92597   0.61403   0.31523   1.000
    H556    H    0.68807   0.07403   0.31523   1.000
    H557    H    0.38597   0.31193   0.31523   1.000
    H558    H    0.38597   0.07403   0.81523   1.000
    H559    H    0.92597   0.31193   0.81523   1.000
    H560    H    0.68807   0.61403   0.81523   1.000
    H561    H    0.40737   0.05263   0.35143   1.000
    H562    H    0.64527   0.59263   0.35143   1.000
    H563    H    0.94737   0.35473   0.35143   1.000
    H564    H    0.61403   0.92597   0.18477   1.000
    H565    H    0.07403   0.68807   0.18477   1.000
    H566    H    0.31193   0.38597   0.18477   1.000
    H567    H    0.59263   0.94737   0.64857   1.000
    H568    H    0.35473   0.40737   0.64857   1.000
    H569    H    0.05263   0.64527   0.64857   1.000
    H570    H    0.05263   0.40737   0.14857   1.000
    H571    H    0.59263   0.64527   0.14857   1.000
    H572    H    0.35473   0.94737   0.14857   1.000
    H573    H    0.07403   0.38597   0.68477   1.000
    H574    H    0.31193   0.92597   0.68477   1.000
    H575    H    0.61403   0.68807   0.68477   1.000
    H576    H    0.57340   0.92070   0.52670   1.000
    H577    H    0.07930   0.65270   0.52670   1.000
    N578    N    0.39200   0.32140   0.97720   1.000
    N579    N    0.92940   0.60800   0.97720   1.000
    N580    N    0.67860   0.07060   0.97720   1.000
    N581    N    0.67860   0.60800   0.47720   1.000
    N582    N    0.39200   0.07060   0.47720   1.000
    N583    N    0.92940   0.32140   0.47720   1.000
    N584    N    0.60800   0.67860   0.02280   1.000
    N585    N    0.07060   0.39200   0.02280   1.000
    N586    N    0.32140   0.92940   0.02280   1.000
    N587    N    0.98807   0.72533   0.85613   1.000
    N588    N    0.27467   0.26273   0.85613   1.000
    N589    N    0.73727   0.01193   0.85613   1.000
    N590    N    0.05867   0.65473   0.31053   1.000
    N591    N    0.59607   0.94133   0.31053   1.000
    N592    N    0.34527   0.40393   0.31053   1.000
    N593    N    0.34527   0.94133   0.81053   1.000
    N594    N    0.05867   0.40393   0.81053   1.000
    N595    N    0.59607   0.65473   0.81053   1.000
    N596    N    0.27467   0.01193   0.35613   1.000
    N597    N    0.73727   0.72533   0.35613   1.000
    N598    N    0.98807   0.26273   0.35613   1.000
    N599    N    0.65473   0.05867   0.18947   1.000
    N600    N    0.94133   0.59607   0.18947   1.000
    N601    N    0.40393   0.34527   0.18947   1.000
    N602    N    0.72533   0.98807   0.64387   1.000
    N603    N    0.26273   0.27467   0.64387   1.000
    N604    N    0.01193   0.73727   0.64387   1.000
    N605    N    0.01193   0.27467   0.14387   1.000
    N606    N    0.72533   0.73727   0.14387   1.000
    N607    N    0.26273   0.98807   0.14387   1.000
    N608    N    0.94133   0.34527   0.68947   1.000
    N609    N    0.40393   0.05867   0.68947   1.000
    N610    N    0.65473   0.59607   0.68947   1.000
    C611    C    0.86740   0.95720   0.54405   1.000
    C612    C    0.04280   0.91020   0.54405   1.000
    H613    H    0.42660   0.34730   0.97330   1.000
    H614    H    0.92070   0.57340   0.97330   1.000
    H615    H    0.65270   0.07930   0.97330   1.000
    H616    H    0.65270   0.57340   0.47330   1.000
    H617    H    0.42660   0.07930   0.47330   1.000
    H618    H    0.92070   0.34730   0.47330   1.000
    H619    H    0.57340   0.65270   0.02670   1.000
    H620    H    0.07930   0.42660   0.02670   1.000
    H621    H    0.34730   0.92070   0.02670   1.000
    H622    H    0.01397   0.75993   0.86003   1.000
    H623    H    0.24007   0.25403   0.86003   1.000
    H624    H    0.74597   0.98603   0.86003   1.000
    H625    H    0.09327   0.68063   0.30663   1.000
    H626    H    0.58737   0.90673   0.30663   1.000
    H627    H    0.31937   0.41263   0.30663   1.000
    H628    H    0.31937   0.90673   0.80663   1.000
    H629    H    0.09327   0.41263   0.80663   1.000
    H630    H    0.58737   0.68063   0.80663   1.000
    H631    H    0.24007   0.98603   0.36003   1.000
    H632    H    0.74597   0.75993   0.36003   1.000
    H633    H    0.01397   0.25403   0.36003   1.000
    H634    H    0.68063   0.09327   0.19337   1.000
    H635    H    0.90673   0.58737   0.19337   1.000
    H636    H    0.41263   0.31937   0.19337   1.000
    H637    H    0.75993   0.01397   0.63997   1.000
    H638    H    0.25403   0.24007   0.63997   1.000
    H639    H    0.98603   0.74597   0.63997   1.000
    H640    H    0.98603   0.24007   0.13997   1.000
    H641    H    0.75993   0.74597   0.13997   1.000
    H642    H    0.25403   0.01397   0.13997   1.000
    H643    H    0.90673   0.31937   0.69337   1.000
    H644    H    0.41263   0.09327   0.69337   1.000
    H645    H    0.68063   0.58737   0.69337   1.000
    C646    C    0.81010   0.93140   0.53659   1.000
    C647    C    0.06860   0.87870   0.53659   1.000
    C648    C    0.13260   0.08980   0.95595   1.000
    C649    C    0.95720   0.86740   0.95595   1.000
    C650    C    0.91020   0.04280   0.95595   1.000
    C651    C    0.91020   0.86740   0.45595   1.000
    C652    C    0.13260   0.04280   0.45595   1.000
    C653    C    0.95720   0.08980   0.45595   1.000
    C654    C    0.86740   0.91020   0.04405   1.000
    C655    C    0.04280   0.13260   0.04405   1.000
    C656    C    0.08980   0.95720   0.04405   1.000
    C657    C    0.75647   0.46593   0.87738   1.000
    C658    C    0.53407   0.29053   0.87738   1.000
    C659    C    0.70947   0.24353   0.87738   1.000
    C660    C    0.79927   0.42313   0.28928   1.000
    C661    C    0.62387   0.20073   0.28928   1.000
    C662    C    0.57687   0.37613   0.28928   1.000
    C663    C    0.57687   0.20073   0.78928   1.000
    C664    C    0.79927   0.37613   0.78928   1.000
    C665    C    0.62387   0.42313   0.78928   1.000
    C666    C    0.53407   0.24353   0.37738   1.000
    C667    C    0.70947   0.46593   0.37738   1.000
    C668    C    0.75647   0.29053   0.37738   1.000
    C669    C    0.42313   0.79927   0.21072   1.000
    C670    C    0.20073   0.62387   0.21072   1.000
    C671    C    0.37613   0.57687   0.21072   1.000
    C672    C    0.46593   0.75647   0.62262   1.000
    C673    C    0.29053   0.53407   0.62262   1.000
    C674    C    0.24353   0.70947   0.62262   1.000
    C675    C    0.24353   0.53407   0.12262   1.000
    C676    C    0.46593   0.70947   0.12262   1.000
    C677    C    0.29053   0.75647   0.12262   1.000
    C678    C    0.20073   0.57687   0.71072   1.000
    C679    C    0.37613   0.79927   0.71072   1.000
    C680    C    0.42313   0.62387   0.71072   1.000
    C681    C    0.81840   0.79110   0.46720   1.000
    C682    C    0.20890   0.02730   0.46720   1.000
    C683    C    0.97270   0.18160   0.46720   1.000
    C684    C    0.18990   0.12130   0.96341   1.000
    C685    C    0.93140   0.81010   0.96341   1.000
    C686    C    0.87870   0.06860   0.96341   1.000
    C687    C    0.87870   0.81010   0.46341   1.000
    C688    C    0.18990   0.06860   0.46341   1.000
    C689    C    0.93140   0.12130   0.46341   1.000
    C690    C    0.81010   0.87870   0.03659   1.000
    C691    C    0.06860   0.18990   0.03659   1.000
    C692    C    0.12130   0.93140   0.03659   1.000
    C693    C    0.78797   0.52323   0.86992   1.000
    C694    C    0.47677   0.26473   0.86992   1.000
    C695    C    0.73527   0.21203   0.86992   1.000
    C696    C    0.85657   0.45463   0.29674   1.000
    C697    C    0.59807   0.14343   0.29674   1.000
    C698    C    0.54537   0.40193   0.29674   1.000
    C699    C    0.54537   0.14343   0.79674   1.000
    C700    C    0.85657   0.40193   0.79674   1.000
    C701    C    0.59807   0.45463   0.79674   1.000
    C702    C    0.47677   0.21203   0.36992   1.000
    C703    C    0.73527   0.52323   0.36992   1.000
    C704    C    0.78797   0.26473   0.36992   1.000
    C705    C    0.45463   0.85657   0.20326   1.000
    C706    C    0.14343   0.59807   0.20326   1.000
    C707    C    0.40193   0.54537   0.20326   1.000
    C708    C    0.52323   0.78797   0.63008   1.000
    C709    C    0.26473   0.47677   0.63008   1.000
    C710    C    0.21203   0.73527   0.63008   1.000
    C711    C    0.21203   0.47677   0.13008   1.000
    C712    C    0.52323   0.73527   0.13008   1.000
    C713    C    0.26473   0.78797   0.13008   1.000
    C714    C    0.14343   0.54537   0.70326   1.000
    H715    H    0.84747   0.87913   0.27453   1.000
    H716    H    0.03167   0.15253   0.27453   1.000
    H717    H    0.12087   0.96833   0.27453   1.000
    H718    H    0.78753   0.48587   0.10787   1.000
    H719    H    0.51413   0.30167   0.10787   1.000
    H720    H    0.69833   0.21247   0.10787   1.000
    H721    H    0.15253   0.12087   0.72547   1.000
    H722    H    0.96833   0.84747   0.72547   1.000
    H723    H    0.87913   0.03167   0.72547   1.000
    H724    H    0.87913   0.84747   0.22547   1.000
    H725    H    0.15253   0.03167   0.22547   1.000
    H726    H    0.96833   0.12087   0.22547   1.000
    H727    H    0.51413   0.21247   0.60787   1.000
    H728    H    0.69833   0.48587   0.60787   1.000
    H729    H    0.78753   0.30167   0.60787   1.000
    C730    C    0.02970   0.52270   0.44147   1.000
    C731    C    0.47730   0.50700   0.44147   1.000
    C732    C    0.08430   0.57520   0.43760   1.000
    C733    C    0.42480   0.50910   0.43760   1.000
    C734    C    0.79110   0.81840   0.03280   1.000
    C735    C    0.02730   0.20890   0.03280   1.000
    C736    C    0.18160   0.97270   0.03280   1.000
    C737    C    0.84827   0.54223   0.86613   1.000
    C738    C    0.45777   0.30603   0.86613   1.000
    C739    C    0.69397   0.15173   0.86613   1.000
    C740    C    0.87557   0.51493   0.30053   1.000
    C741    C    0.63937   0.12443   0.30053   1.000
    C742    C    0.48507   0.36063   0.30053   1.000
    C743    C    0.48507   0.12443   0.80053   1.000
    C744    C    0.87557   0.36063   0.80053   1.000
    C745    C    0.63937   0.51493   0.80053   1.000
    C746    C    0.45777   0.15173   0.36613   1.000
    C747    C    0.69397   0.54223   0.36613   1.000
    C748    C    0.84827   0.30603   0.36613   1.000
    C749    C    0.51493   0.87557   0.19947   1.000
    C750    C    0.12443   0.63937   0.19947   1.000
    C751    C    0.36063   0.48507   0.19947   1.000
    C752    C    0.54223   0.84827   0.63387   1.000
    C753    C    0.30603   0.45777   0.63387   1.000
    C754    C    0.15173   0.69397   0.63387   1.000
    C755    C    0.15173   0.45777   0.13387   1.000
    C756    C    0.54223   0.69397   0.13387   1.000
    C757    C    0.30603   0.84827   0.13387   1.000
    C758    C    0.12443   0.48507   0.69947   1.000
    C759    C    0.36063   0.87557   0.69947   1.000
    C760    C    0.51493   0.63937   0.69947   1.000
    C761    C    0.73500   0.94640   0.52598   1.000
    C762    C    0.05360   0.78860   0.52598   1.000
    H763    H    0.18570   0.20220   0.96540   1.000
    H764    H    0.01650   0.81430   0.96540   1.000
    H765    H    0.79780   0.98350   0.96540   1.000
    H766    H    0.79780   0.81430   0.46540   1.000
    H767    H    0.18570   0.98350   0.46540   1.000
    H768    H    0.01650   0.20220   0.46540   1.000
    H769    H    0.81430   0.79780   0.03460   1.000
    H770    H    0.98350   0.18570   0.03460   1.000
    H771    H    0.20220   0.01650   0.03460   1.000
    H772    H    0.86887   0.51903   0.86793   1.000
    H773    H    0.48097   0.34983   0.86793   1.000
    H774    H    0.65017   0.13113   0.86793   1.000
    H775    H    0.85237   0.53553   0.29873   1.000
    H776    H    0.68317   0.14763   0.29873   1.000
    H777    H    0.46447   0.31683   0.29873   1.000
    H778    H    0.46447   0.14763   0.79873   1.000
    H779    H    0.85237   0.31683   0.79873   1.000
    H780    H    0.68317   0.53553   0.79873   1.000
    H781    H    0.48097   0.13113   0.36793   1.000
    H782    H    0.65017   0.51903   0.36793   1.000
    H783    H    0.86887   0.34983   0.36793   1.000
    H784    H    0.53553   0.85237   0.20127   1.000
    H785    H    0.14763   0.68317   0.20127   1.000
    H786    H    0.31683   0.46447   0.20127   1.000
    H787    H    0.51903   0.86887   0.63207   1.000
    H788    H    0.34983   0.48097   0.63207   1.000
    H789    H    0.13113   0.65017   0.63207   1.000
    H790    H    0.13113   0.48097   0.13207   1.000
    H791    H    0.51903   0.65017   0.13207   1.000
    H792    H    0.34983   0.86887   0.13207   1.000
    H793    H    0.14763   0.46447   0.70127   1.000
    H794    H    0.31683   0.85237   0.70127   1.000
    H795    H    0.53553   0.68317   0.70127   1.000
    C796    C    0.69760   0.88040   0.52376   1.000
    C797    C    0.11960   0.81720   0.52376   1.000
    C798    C    0.26500   0.21140   0.97402   1.000
    C799    C    0.94640   0.73500   0.97402   1.000
    C800    C    0.78860   0.05360   0.97402   1.000
    C801    C    0.78860   0.73500   0.47402   1.000
    C802    C    0.26500   0.05360   0.47402   1.000
    C803    C    0.94640   0.21140   0.47402   1.000
    C804    C    0.73500   0.78860   0.02598   1.000
    C805    C    0.05360   0.26500   0.02598   1.000
    C806    C    0.21140   0.94640   0.02598   1.000
    C807    C    0.87807   0.59833   0.85931   1.000
    C808    C    0.40167   0.27973   0.85931   1.000
    C809    C    0.72027   0.12193   0.85931   1.000
    C810    C    0.93167   0.54473   0.30735   1.000
    C811    C    0.61307   0.06833   0.30735   1.000
    C812    C    0.45527   0.38693   0.30735   1.000
    C813    C    0.45527   0.06833   0.80735   1.000
    C814    C    0.93167   0.38693   0.80735   1.000
    C815    C    0.61307   0.54473   0.80735   1.000
    C816    C    0.40167   0.12193   0.35931   1.000
    C817    C    0.72027   0.59833   0.35931   1.000
    C818    C    0.87807   0.27973   0.35931   1.000
    C819    C    0.54473   0.93167   0.19265   1.000
    C820    C    0.06833   0.61307   0.19265   1.000
    C821    C    0.38693   0.45527   0.19265   1.000
    C822    C    0.59833   0.87807   0.64069   1.000
    C823    C    0.27973   0.40167   0.64069   1.000
    C824    C    0.12193   0.72027   0.64069   1.000
    C825    C    0.12193   0.40167   0.14069   1.000
    C826    C    0.59833   0.72027   0.14069   1.000
    C827    C    0.27973   0.87807   0.14069   1.000
    C828    C    0.06833   0.45527   0.69265   1.000
    C829    C    0.38693   0.93167   0.69265   1.000
    C830    C    0.54473   0.61307   0.69265   1.000
    C831    C    0.71870   0.84450   0.52800   1.000
    C832    C    0.15550   0.87420   0.52800   1.000
    C833    C    0.30240   0.18280   0.97624   1.000
    C834    C    0.88040   0.69760   0.97624   1.000
    C835    C    0.81720   0.11960   0.97624   1.000
    C836    C    0.81720   0.69760   0.47624   1.000
    C837    C    0.30240   0.11960   0.47624   1.000
    C838    C    0.88040   0.18280   0.47624   1.000
    C839    C    0.69760   0.81720   0.02376   1.000
    C840    C    0.11960   0.30240   0.02376   1.000
    C841    C    0.18280   0.88040   0.02376   1.000
    C842    C    0.84947   0.63573   0.85709   1.000
    C843    C    0.36427   0.21373   0.85709   1.000
    C844    C    0.78627   0.15053   0.85709   1.000
    C845    C    0.96907   0.51613   0.30957   1.000
    C846    C    0.54707   0.03093   0.30957   1.000
    C847    C    0.48387   0.45293   0.30957   1.000
    C848    C    0.48387   0.03093   0.80957   1.000
    C849    C    0.96907   0.45293   0.80957   1.000
    C850    C    0.54707   0.51613   0.80957   1.000
    C851    C    0.36427   0.15053   0.35709   1.000
    C852    C    0.78627   0.63573   0.35709   1.000
    C853    C    0.84947   0.21373   0.35709   1.000
    C854    C    0.51613   0.96907   0.19043   1.000
    C855    C    0.03093   0.54707   0.19043   1.000
    C856    C    0.45293   0.48387   0.19043   1.000
    C857    C    0.63573   0.84947   0.64291   1.000
    C858    C    0.21373   0.36427   0.64291   1.000
    C859    C    0.15053   0.78627   0.64291   1.000
    C860    C    0.15053   0.36427   0.14291   1.000
    C861    C    0.63573   0.78627   0.14291   1.000
    C862    C    0.21373   0.84947   0.14291   1.000
    C863    C    0.03093   0.48387   0.69043   1.000
    C864    C    0.45293   0.96907   0.69043   1.000
    C865    C    0.51613   0.54707   0.69043   1.000
    H866    H    0.69340   0.80060   0.52660   1.000
    H867    H    0.19940   0.89280   0.52660   1.000
    C868    C    0.28130   0.12580   0.97200   1.000
    C869    C    0.84450   0.71870   0.97200   1.000
    C870    C    0.87420   0.15550   0.97200   1.000
    C871    C    0.87420   0.71870   0.47200   1.000
    C872    C    0.28130   0.15550   0.47200   1.000
    C873    C    0.84450   0.12580   0.47200   1.000
    C874    C    0.71870   0.87420   0.02800   1.000
    C875    C    0.15550   0.28130   0.02800   1.000
    C876    C    0.12580   0.84450   0.02800   1.000
    C877    C    0.79247   0.61463   0.86133   1.000
    C878    C    0.38537   0.17783   0.86133   1.000
    C879    C    0.82217   0.20753   0.86133   1.000
    C880    C    0.94797   0.45913   0.30533   1.000
    C881    C    0.51117   0.05203   0.30533   1.000
    C882    C    0.54087   0.48883   0.30533   1.000
    C883    C    0.54087   0.05203   0.80533   1.000
    C884    C    0.94797   0.48883   0.80533   1.000
    C885    C    0.51117   0.45913   0.80533   1.000
    C886    C    0.38537   0.20753   0.36133   1.000
    C887    C    0.82217   0.61463   0.36133   1.000
    C888    C    0.79247   0.17783   0.36133   1.000
    C889    C    0.45913   0.94797   0.19467   1.000
    C890    C    0.05203   0.51117   0.19467   1.000
    C891    C    0.48883   0.54087   0.19467   1.000
    C892    C    0.61463   0.79247   0.63867   1.000
    C893    C    0.17783   0.38537   0.63867   1.000
    C894    C    0.20753   0.82217   0.63867   1.000
    C895    C    0.20753   0.38537   0.13867   1.000
    C896    C    0.61463   0.82217   0.13867   1.000
    C897    C    0.17783   0.79247   0.13867   1.000
    C898    C    0.05203   0.54087   0.69467   1.000
    C899    C    0.48883   0.94797   0.69467   1.000
    C900    C    0.45913   0.51117   0.69467   1.000
    C901    C    0.77540   0.86400   0.53460   1.000
    C902    C    0.13600   0.91140   0.53460   1.000
    H903    H    0.30660   0.10720   0.97340   1.000
    H904    H    0.80060   0.69340   0.97340   1.000
    H905    H    0.89280   0.19940   0.97340   1.000
    H906    H    0.89280   0.69340   0.47340   1.000
    H907    H    0.30660   0.19940   0.47340   1.000
    H908    H    0.80060   0.10720   0.47340   1.000
    H909    H    0.69340   0.89280   0.02660   1.000
    H910    H    0.19940   0.30660   0.02660   1.000
    H911    H    0.10720   0.80060   0.02660   1.000
    H912    H    0.77387   0.63993   0.85993   1.000
    H913    H    0.36007   0.13393   0.85993   1.000
    H914    H    0.86607   0.22613   0.85993   1.000
    H915    H    0.97327   0.44053   0.30673   1.000
    H916    H    0.46727   0.02673   0.30673   1.000
    H917    H    0.55947   0.53273   0.30673   1.000
    H918    H    0.55947   0.02673   0.80673   1.000
    H919    H    0.97327   0.53273   0.80673   1.000
    H920    H    0.46727   0.44053   0.80673   1.000
    H921    H    0.36007   0.22613   0.35993   1.000
    H922    H    0.86607   0.63993   0.35993   1.000
    H923    H    0.77387   0.13393   0.35993   1.000
    H924    H    0.44053   0.97327   0.19327   1.000
    H925    H    0.02673   0.46727   0.19327   1.000
    H926    H    0.53273   0.55947   0.19327   1.000
    H927    H    0.63993   0.77387   0.64007   1.000
    H928    H    0.13393   0.36007   0.64007   1.000
    H929    H    0.22613   0.86607   0.64007   1.000
    H930    H    0.22613   0.36007   0.14007   1.000
    H931    H    0.63993   0.86607   0.14007   1.000
    H932    H    0.13393   0.77387   0.14007   1.000
    H933    H    0.02673   0.55947   0.69327   1.000
    H934    H    0.53273   0.97327   0.69327   1.000
    H935    H    0.44053   0.46727   0.69327   1.000
    H936    H    0.78880   0.83600   0.53740   1.000
    H937    H    0.16400   0.95280   0.53740   1.000
    C938    C    0.22460   0.08860   0.96540   1.000
    C939    C    0.86400   0.77540   0.96540   1.000
    C940    C    0.91140   0.13600   0.96540   1.000
    C941    C    0.91140   0.77540   0.46540   1.000
    C942    C    0.22460   0.13600   0.46540   1.000
    C943    C    0.86400   0.08860   0.46540   1.000
    C944    C    0.77540   0.91140   0.03460   1.000
    C945    C    0.13600   0.22460   0.03460   1.000
    C946    C    0.08860   0.86400   0.03460   1.000
    C947    C    0.75527   0.55793   0.86793   1.000
    C948    C    0.44207   0.19733   0.86793   1.000
    C949    C    0.80267   0.24473   0.86793   1.000
    C950    C    0.89127   0.42193   0.29873   1.000
    C951    C    0.53067   0.10873   0.29873   1.000
    C952    C    0.57807   0.46933   0.29873   1.000
    C953    C    0.57807   0.10873   0.79873   1.000
    C954    C    0.89127   0.46933   0.79873   1.000
    C955    C    0.77743   0.19787   0.72656   1.000
    C956    C    0.77743   0.57957   0.22656   1.000
    C957    C    0.42043   0.19787   0.22656   1.000
    C958    C    0.80213   0.22257   0.22656   1.000
    C959    C    0.24623   0.11077   0.60678   1.000
    C960    C    0.86453   0.75377   0.60678   1.000
    C961    C    0.88923   0.13547   0.60678   1.000
    N962    N    0.09070   0.60590   0.42631   1.000
    N963    N    0.39410   0.48480   0.42631   1.000
    C964    C    0.80350   0.41450   0.41291   1.000
    C965    C    0.58550   0.38900   0.41291   1.000
    C966    C    0.19650   0.61100   0.08709   1.000
    C967    C    0.41450   0.80350   0.08709   1.000
    C968    C    0.38900   0.58550   0.08709   1.000
    C969    C    0.38900   0.80350   0.58709   1.000
    C970    C    0.19650   0.58550   0.58709   1.000
    C971    C    0.41450   0.61100   0.58709   1.000
    C972    C    0.80350   0.38900   0.91291   1.000
    C973    C    0.58550   0.19650   0.91291   1.000
    C974    C    0.61100   0.41450   0.91291   1.000
    C975    C    0.27767   0.52983   0.74624   1.000
    C976    C    0.47017   0.74783   0.74624   1.000
    C977    C    0.25217   0.72233   0.74624   1.000
    C978    C    0.86317   0.94433   0.42042   1.000
    C979    C    0.08117   0.13683   0.42042   1.000
    C980    C    0.05567   0.91883   0.42042   1.000
    C981    C    0.46933   0.89127   0.70127   1.000
    C982    C    0.42193   0.53067   0.70127   1.000
    C983    C    0.65280   0.98470   0.52478   1.000
    C984    C    0.01530   0.66810   0.52478   1.000
    H985    H    0.21120   0.04720   0.96260   1.000
    H986    H    0.83600   0.78880   0.96260   1.000
    H987    H    0.95280   0.16400   0.96260   1.000
    H988    H    0.95280   0.78880   0.46260   1.000
    H989    H    0.21120   0.16400   0.46260   1.000
    H990    H    0.83600   0.04720   0.46260   1.000
    H991    H    0.78880   0.95280   0.03740   1.000
    H992    H    0.16400   0.21120   0.03740   1.000
    H993    H    0.04720   0.83600   0.03740   1.000
    H994    H    0.71387   0.54453   0.87073   1.000
    H995    H    0.45547   0.16933   0.87073   1.000
    H996    H    0.83067   0.28613   0.87073   1.000
    H997    H    0.87787   0.38053   0.29593   1.000
    H998    H    0.50267   0.12213   0.29593   1.000
    H999    H    0.61947   0.49733   0.29593   1.000
    H1000   H    0.61947   0.12213   0.79593   1.000
    H1001   H    0.87787   0.49733   0.79593   1.000
    H1002   H    0.50267   0.38053   0.79593   1.000
    H1003   H    0.45547   0.28613   0.37073   1.000
    H1004   H    0.83067   0.54453   0.37073   1.000
    H1005   H    0.71387   0.16933   0.37073   1.000
    H1006   H    0.38053   0.87787   0.20407   1.000
    H1007   H    0.12213   0.50267   0.20407   1.000
    H1008   H    0.49733   0.61947   0.20407   1.000
    H1009   H    0.54453   0.71387   0.62927   1.000
    H1010   H    0.16933   0.45547   0.62927   1.000
    H1011   H    0.28613   0.83067   0.62927   1.000
    H1012   H    0.28613   0.45547   0.12927   1.000
    H1013   H    0.54453   0.83067   0.12927   1.000
    H1014   H    0.16933   0.71387   0.12927   1.000
    H1015   H    0.12213   0.61947   0.70407   1.000
    H1016   H    0.49733   0.87787   0.70407   1.000
    H1017   H    0.38053   0.50267   0.70407   1.000
    C1018   C    0.64270   0.85100   0.51654   1.000
    C1019   C    0.14900   0.79170   0.51654   1.000
    C1020   C    0.34720   0.33190   0.97522   1.000
    C1021   C    0.98470   0.65280   0.97522   1.000
    C1022   C    0.66810   0.01530   0.97522   1.000
    C1023   C    0.66810   0.65280   0.47522   1.000
    C1024   C    0.34720   0.01530   0.47522   1.000
    C1025   C    0.98470   0.33190   0.47522   1.000
    C1026   C    0.65280   0.66810   0.02478   1.000
    C1027   C    0.01530   0.34720   0.02478   1.000
    C1028   C    0.33190   0.98470   0.02478   1.000
    C1029   C    0.99857   0.68053   0.85811   1.000
    C1030   C    0.31947   0.31803   0.85811   1.000
    C1031   C    0.68197   0.00143   0.85811   1.000
    C1032   C    0.01387   0.66523   0.30855   1.000
    C1033   C    0.65137   0.98613   0.30855   1.000
    C1034   C    0.33477   0.34863   0.30855   1.000
    C1035   C    0.33477   0.98613   0.80855   1.000
    C1036   C    0.01387   0.34863   0.80855   1.000
    C1037   C    0.65137   0.66523   0.80855   1.000
    C1038   C    0.31947   0.00143   0.35811   1.000
    C1039   C    0.68197   0.68053   0.35811   1.000
    C1040   C    0.99857   0.31803   0.35811   1.000
    C1041   C    0.66523   0.01387   0.19145   1.000
    C1042   C    0.98613   0.65137   0.19145   1.000
    C1043   C    0.34863   0.33477   0.19145   1.000
    C1044   C    0.68053   0.99857   0.64189   1.000
    C1045   C    0.31803   0.31947   0.64189   1.000
    C1046   C    0.00143   0.68197   0.64189   1.000
    C1047   C    0.00143   0.31947   0.14189   1.000
    C1048   C    0.68053   0.68197   0.14189   1.000
    C1049   C    0.31803   0.99857   0.14189   1.000
    C1050   C    0.98613   0.33477   0.69145   1.000
    C1051   C    0.34863   0.01387   0.69145   1.000
    C1052   C    0.66523   0.65137   0.69145   1.000
    C1053   C    0.60030   0.87620   0.51548   1.000
    C1054   C    0.12380   0.72410   0.51548   1.000
    C1055   C    0.35730   0.20830   0.98346   1.000
    C1056   C    0.85100   0.64270   0.98346   1.000
    C1057   C    0.79170   0.14900   0.98346   1.000
    C1058   C    0.79170   0.64270   0.48346   1.000
    C1059   C    0.35730   0.14900   0.48346   1.000
    C1060   C    0.85100   0.20830   0.48346   1.000
    C1061   C    0.64270   0.79170   0.01654   1.000
    C1062   C    0.14900   0.35730   0.01654   1.000
    C1063   C    0.20830   0.85100   0.01654   1.000
    C1064   C    0.87497   0.69063   0.84987   1.000
    C1065   C    0.30937   0.18433   0.84987   1.000
    C1066   C    0.81567   0.12503   0.84987   1.000
    C1067   C    0.02397   0.54163   0.31679   1.000
    C1068   C    0.51767   0.97603   0.31679   1.000
    C1069   C    0.45837   0.48233   0.31679   1.000
    C1070   C    0.45837   0.97603   0.81679   1.000
    C1071   C    0.02397   0.48233   0.81679   1.000
    C1072   C    0.51767   0.54163   0.81679   1.000
    C1073   C    0.30937   0.12503   0.34987   1.000
    C1074   C    0.81567   0.69063   0.34987   1.000
    C1075   C    0.87497   0.18433   0.34987   1.000
    C1076   C    0.54163   0.02397   0.18321   1.000
    C1077   C    0.97603   0.51767   0.18321   1.000
    C1078   C    0.48233   0.45837   0.18321   1.000
    C1079   C    0.69063   0.87497   0.65013   1.000
    C1080   C    0.18433   0.30937   0.65013   1.000
    C1081   C    0.12503   0.81567   0.65013   1.000
    C1082   C    0.12503   0.30937   0.15013   1.000
    C1083   C    0.69063   0.81567   0.15013   1.000
    C1084   C    0.18433   0.87497   0.15013   1.000
    C1085   C    0.97603   0.45837   0.68321   1.000
    C1086   C    0.48233   0.02397   0.68321   1.000
    C1087   C    0.54163   0.51767   0.68321   1.000
    C1088   C    0.54710   0.84830   0.50836   1.000
    C1089   C    0.15170   0.69880   0.50836   1.000
    C1090   C    0.39970   0.27590   0.98452   1.000
    C1091   C    0.87620   0.60030   0.98452   1.000
    C1092   C    0.72410   0.12380   0.98452   1.000
    C1093   C    0.72410   0.60030   0.48452   1.000
    C1094   C    0.39970   0.12380   0.48452   1.000
    C1095   C    0.87620   0.27590   0.48452   1.000
    C1096   C    0.60030   0.72410   0.01548   1.000
    C1097   C    0.12380   0.39970   0.01548   1.000
    C1098   C    0.27590   0.87620   0.01548   1.000
    C1099   C    0.94257   0.73303   0.84881   1.000
    C1100   C    0.26697   0.20953   0.84881   1.000
    C1101   C    0.79047   0.05743   0.84881   1.000
    C1102   C    0.06637   0.60923   0.31785   1.000
    C1103   C    0.54287   0.93363   0.31785   1.000
    C1104   C    0.39077   0.45713   0.31785   1.000
    C1105   C    0.39077   0.93363   0.81785   1.000
    C1106   C    0.06637   0.45713   0.81785   1.000
    C1107   C    0.54287   0.60923   0.81785   1.000
    C1108   C    0.26697   0.05743   0.34881   1.000
    C1109   C    0.79047   0.73303   0.34881   1.000
    C1110   C    0.94257   0.20953   0.34881   1.000
    C1111   C    0.60923   0.06637   0.18215   1.000
    C1112   C    0.93363   0.54287   0.18215   1.000
    C1113   C    0.45713   0.39077   0.18215   1.000
    C1114   C    0.73303   0.94257   0.65119   1.000
    C1115   C    0.20953   0.26697   0.65119   1.000
    C1116   C    0.05743   0.79047   0.65119   1.000
    C1117   C    0.05743   0.26697   0.15119   1.000
    C1118   C    0.73303   0.79047   0.15119   1.000
    C1119   C    0.20953   0.94257   0.15119   1.000
    C1120   C    0.93363   0.39077   0.68215   1.000
    C1121   C    0.45713   0.06637   0.68215   1.000
    C1122   C    0.60923   0.54287   0.68215   1.000
    H1123   H    0.51940   0.86480   0.50770   1.000
    H1124   H    0.13520   0.65460   0.50770   1.000
    C1125   C    0.45290   0.30120   0.99164   1.000
    C1126   C    0.84830   0.54710   0.99164   1.000
    C1127   C    0.69880   0.15170   0.99164   1.000
    C1128   C    0.69880   0.54710   0.49164   1.000
    C1129   C    0.45290   0.15170   0.49164   1.000
    C1130   C    0.84830   0.30120   0.49164   1.000
    C1131   C    0.54710   0.69880   0.00836   1.000
    C1132   C    0.15170   0.45290   0.00836   1.000
    C1133   C    0.30120   0.84830   0.00836   1.000
    C1134   C    0.96787   0.78623   0.84169   1.000
    C1135   C    0.21377   0.18163   0.84169   1.000
    C1136   C    0.81837   0.03213   0.84169   1.000
    C1137   C    0.11957   0.63453   0.32497   1.000
    C1138   C    0.51497   0.88043   0.32497   1.000
    C1139   C    0.36547   0.48503   0.32497   1.000
    C1140   C    0.36547   0.88043   0.82497   1.000
    C1141   C    0.11957   0.48503   0.82497   1.000
    C1142   C    0.51497   0.63453   0.82497   1.000
    C1143   C    0.21377   0.03213   0.34169   1.000
    C1144   C    0.81837   0.78623   0.34169   1.000
    C1145   C    0.96787   0.18163   0.34169   1.000
    C1146   C    0.63453   0.11957   0.17503   1.000
    C1147   C    0.88043   0.51497   0.17503   1.000
    C1148   C    0.48503   0.36547   0.17503   1.000
    C1149   C    0.78623   0.96787   0.65831   1.000
    C1150   C    0.18163   0.21377   0.65831   1.000
    C1151   C    0.03213   0.81837   0.65831   1.000
    C1152   C    0.03213   0.21377   0.15831   1.000
    C1153   C    0.78623   0.81837   0.15831   1.000
    C1154   C    0.18163   0.96787   0.15831   1.000
    C1155   C    0.88043   0.36547   0.67503   1.000
    C1156   C    0.48503   0.11957   0.67503   1.000
    C1157   C    0.63453   0.51497   0.67503   1.000
    C1158   C    0.53650   0.79280   0.50206   1.000
    C1159   C    0.20720   0.74370   0.50206   1.000
    H1160   H    0.48060   0.34540   0.99230   1.000
    H1161   H    0.86480   0.51940   0.99230   1.000
    H1162   H    0.65460   0.13520   0.99230   1.000
    H1163   H    0.65460   0.51940   0.49230   1.000
    H1164   H    0.48060   0.13520   0.49230   1.000
    H1165   H    0.86480   0.34540   0.49230   1.000
    H1166   H    0.51940   0.65460   0.00770   1.000
    H1167   H    0.13520   0.48060   0.00770   1.000
    H1168   H    0.34540   0.86480   0.00770   1.000
    H1169   H    0.01207   0.81393   0.84103   1.000
    H1170   H    0.18607   0.19813   0.84103   1.000
    H1171   H    0.80187   0.98793   0.84103   1.000
    H1172   H    0.14727   0.67873   0.32563   1.000
    H1173   H    0.53147   0.85273   0.32563   1.000
    H1174   H    0.32127   0.46853   0.32563   1.000
    H1175   H    0.32127   0.85273   0.82563   1.000
    H1176   H    0.14727   0.46853   0.82563   1.000
    H1177   H    0.53147   0.67873   0.82563   1.000
    H1178   H    0.18607   0.98793   0.34103   1.000
    H1179   H    0.80187   0.81393   0.34103   1.000
    H1180   H    0.01207   0.19813   0.34103   1.000
    H1181   H    0.67873   0.14727   0.17437   1.000
    H1182   H    0.85273   0.53147   0.17437   1.000
    H1183   H    0.46853   0.32127   0.17437   1.000
    H1184   H    0.81393   0.01207   0.65897   1.000
    H1185   H    0.19813   0.18607   0.65897   1.000
    H1186   H    0.98793   0.80187   0.65897   1.000
    H1187   H    0.98793   0.18607   0.15897   1.000
    H1188   H    0.81393   0.80187   0.15897   1.000
    H1189   H    0.19813   0.01207   0.15897   1.000
    H1190   H    0.85273   0.32127   0.67437   1.000
    H1191   H    0.46853   0.14727   0.67437   1.000
    H1192   H    0.67873   0.53147   0.67437   1.000
    C1193   C    0.58150   0.77270   0.50200   1.000
    C1194   C    0.22730   0.80880   0.50200   1.000
    C1195   C    0.46350   0.25630   0.99794   1.000
    C1196   C    0.79280   0.53650   0.99794   1.000
    C1197   C    0.74370   0.20720   0.99794   1.000
    C1198   C    0.74370   0.53650   0.49794   1.000
    C1199   C    0.46350   0.20720   0.49794   1.000
    C1200   C    0.79280   0.25630   0.49794   1.000
    C1201   C    0.53650   0.74370   0.00206   1.000
    C1202   C    0.20720   0.46350   0.00206   1.000
    C1203   C    0.25630   0.79280   0.00206   1.000
    C1204   C    0.92297   0.79683   0.83539   1.000
    C1205   C    0.20317   0.12613   0.83539   1.000
    C1206   C    0.87387   0.07703   0.83539   1.000
    C1207   C    0.13017   0.58963   0.33127   1.000
    C1208   C    0.45947   0.86983   0.33127   1.000
    C1209   C    0.41037   0.54053   0.33127   1.000
    C1210   C    0.41037   0.86983   0.83127   1.000
    C1211   C    0.13017   0.54053   0.83127   1.000
    C1212   C    0.45947   0.58963   0.83127   1.000
    C1213   C    0.20317   0.07703   0.33539   1.000
    C1214   C    0.87387   0.79683   0.33539   1.000
    C1215   C    0.92297   0.12613   0.33539   1.000
    C1216   C    0.58963   0.13017   0.16873   1.000
    C1217   C    0.86983   0.45947   0.16873   1.000
    C1218   C    0.54053   0.41037   0.16873   1.000
    C1219   C    0.79683   0.92297   0.66461   1.000
    C1220   C    0.12613   0.20317   0.66461   1.000
    C1221   C    0.07703   0.87387   0.66461   1.000
    C1222   C    0.07703   0.20317   0.16461   1.000
    C1223   C    0.79683   0.87387   0.16461   1.000
    C1224   C    0.12613   0.92297   0.16461   1.000
    C1225   C    0.86983   0.41037   0.66873   1.000
    C1226   C    0.54053   0.13017   0.66873   1.000
    C1227   C    0.58963   0.45947   0.66873   1.000
    H1228   H    0.57300   0.73640   0.49750   1.000
    H1229   H    0.26360   0.83660   0.49750   1.000
    C1230   C    0.41850   0.19120   0.99800   1.000
    C1231   C    0.77270   0.58150   0.99800   1.000
    C1232   C    0.80880   0.22730   0.99800   1.000
    C1233   C    0.80880   0.58150   0.49800   1.000
    C1234   C    0.41850   0.22730   0.49800   1.000
    C1235   C    0.77270   0.19120   0.49800   1.000
    C1236   C    0.58150   0.80880   0.00200   1.000
    C1237   C    0.22730   0.41850   0.00200   1.000
    C1238   C    0.19120   0.77270   0.00200   1.000
    C1239   C    0.85787   0.75183   0.83533   1.000
    C1240   C    0.24817   0.10603   0.83533   1.000
    C1241   C    0.89397   0.14213   0.83533   1.000
    C1242   C    0.08517   0.52453   0.33133   1.000
    C1243   C    0.43937   0.91483   0.33133   1.000
    C1244   C    0.47547   0.56063   0.33133   1.000
    C1245   C    0.47547   0.91483   0.83133   1.000
    C1246   C    0.08517   0.56063   0.83133   1.000
    C1247   C    0.43937   0.52453   0.83133   1.000
    C1248   C    0.24817   0.14213   0.33533   1.000
    C1249   C    0.89397   0.75183   0.33533   1.000
    C1250   C    0.85787   0.10603   0.33533   1.000
    C1251   C    0.52453   0.08517   0.16867   1.000
    C1252   C    0.91483   0.43937   0.16867   1.000
    C1253   C    0.56063   0.47547   0.16867   1.000
    C1254   C    0.75183   0.85787   0.66467   1.000
    C1255   C    0.10603   0.24817   0.66467   1.000
    C1256   C    0.14213   0.89397   0.66467   1.000
    C1257   C    0.14213   0.24817   0.16467   1.000
    C1258   C    0.75183   0.89397   0.16467   1.000
    C1259   C    0.10603   0.85787   0.16467   1.000
    C1260   C    0.91483   0.47547   0.66867   1.000
    C1261   C    0.56063   0.08517   0.66867   1.000
    C1262   C    0.52453   0.43937   0.66867   1.000
    C1263   C    0.63340   0.80160   0.50780   1.000
    C1264   C    0.19840   0.83180   0.50780   1.000
    H1265   H    0.42700   0.16340   0.00250   1.000
    H1266   H    0.73640   0.57300   0.00250   1.000
    H1267   H    0.83660   0.26360   0.00250   1.000
    H1268   H    0.83660   0.57300   0.50250   1.000
    H1269   H    0.42700   0.26360   0.50250   1.000
    H1270   H    0.73640   0.16340   0.50250   1.000
    H1271   H    0.57300   0.83660   0.99750   1.000
    H1272   H    0.26360   0.42700   0.99750   1.000
    H1273   H    0.16340   0.73640   0.99750   1.000
    H1274   H    0.83007   0.76033   0.83083   1.000
    H1275   H    0.23967   0.06973   0.83083   1.000
    H1276   H    0.93027   0.16993   0.83083   1.000
    H1277   H    0.09367   0.49673   0.33583   1.000
    H1278   H    0.40307   0.90633   0.33583   1.000
    H1279   H    0.50327   0.59693   0.33583   1.000
    H1280   H    0.50327   0.90633   0.83583   1.000
    H1281   H    0.09367   0.59693   0.83583   1.000
    H1282   H    0.40307   0.49673   0.83583   1.000
    H1283   H    0.23967   0.16993   0.33083   1.000
    H1284   H    0.93027   0.76033   0.33083   1.000
    H1285   H    0.83007   0.06973   0.33083   1.000
    H1286   H    0.49673   0.09367   0.16417   1.000
    H1287   H    0.90633   0.40307   0.16417   1.000
    H1288   H    0.59693   0.50327   0.16417   1.000
    H1289   H    0.76033   0.83007   0.66917   1.000
    H1290   H    0.06973   0.23967   0.66917   1.000
    H1291   H    0.16993   0.93027   0.66917   1.000
    H1292   H    0.16993   0.23967   0.16917   1.000
    H1293   H    0.76033   0.93027   0.16917   1.000
    H1294   H    0.06973   0.83007   0.16917   1.000
    H1295   H    0.90633   0.50327   0.66417   1.000
    H1296   H    0.59693   0.09367   0.66417   1.000
    H1297   H    0.49673   0.40307   0.66417   1.000
    H1298   H    0.66580   0.79160   0.50650   1.000
    H1299   H    0.20840   0.87420   0.50650   1.000
    C1300   C    0.36660   0.16820   0.99220   1.000
    C1301   C    0.80160   0.63340   0.99220   1.000
    C1302   C    0.83180   0.19840   0.99220   1.000
    C1303   C    0.83180   0.63340   0.49220   1.000
    C1304   C    0.36660   0.19840   0.49220   1.000
    C1305   C    0.80160   0.16820   0.49220   1.000
    C1306   C    0.63340   0.83180   0.00780   1.000
    C1307   C    0.19840   0.36660   0.00780   1.000
    C1308   C    0.16820   0.80160   0.00780   1.000
    C1309   C    0.83487   0.69993   0.84113   1.000
    C1310   C    0.30007   0.13493   0.84113   1.000
    C1311   C    0.86507   0.16513   0.84113   1.000
    C1312   C    0.03327   0.50153   0.32553   1.000
    C1313   C    0.46827   0.96673   0.32553   1.000
    C1314   C    0.49847   0.53173   0.32553   1.000
    C1315   C    0.49847   0.96673   0.82553   1.000
    C1316   C    0.03327   0.53173   0.82553   1.000
    C1317   C    0.46827   0.50153   0.82553   1.000
    C1318   C    0.30007   0.16513   0.34113   1.000
    C1319   C    0.86507   0.69993   0.34113   1.000
    C1320   C    0.83487   0.13493   0.34113   1.000
    C1321   C    0.50153   0.03327   0.17447   1.000
    C1322   C    0.96673   0.46827   0.17447   1.000
    C1323   C    0.53173   0.49847   0.17447   1.000
    C1324   C    0.69993   0.83487   0.65887   1.000
    C1325   C    0.13493   0.30007   0.65887   1.000
    C1326   C    0.16513   0.86507   0.65887   1.000
    C1327   C    0.16513   0.30007   0.15887   1.000
    C1328   C    0.69993   0.86507   0.15887   1.000
    C1329   C    0.13493   0.83487   0.15887   1.000
    C1330   C    0.96673   0.49847   0.67447   1.000
    C1331   C    0.53173   0.03327   0.67447   1.000
    C1332   C    0.50153   0.46827   0.67447   1.000
    C1333   C    0.47200   0.76130   0.49590   1.000
    C1334   C    0.23870   0.71070   0.49590   1.000
    H1335   H    0.33420   0.12580   0.99350   1.000
    H1336   H    0.79160   0.66580   0.99350   1.000
    H1337   H    0.87420   0.20840   0.99350   1.000
    H1338   H    0.87420   0.66580   0.49350   1.000
    H1339   H    0.33420   0.20840   0.49350   1.000
    H1340   H    0.79160   0.12580   0.49350   1.000
    H1341   H    0.66580   0.87420   0.00650   1.000
    H1342   H    0.20840   0.33420   0.00650   1.000
    H1343   H    0.12580   0.79160   0.00650   1.000
    H1344   H    0.79247   0.66753   0.83983   1.000
    H1345   H    0.33247   0.12493   0.83983   1.000
    H1346   H    0.87507   0.20753   0.83983   1.000
    H1347   H    0.00087   0.45913   0.32683   1.000
    H1348   H    0.45827   0.99913   0.32683   1.000
    H1349   H    0.54087   0.54173   0.32683   1.000
    H1350   H    0.54087   0.99913   0.82683   1.000
    H1351   H    0.00087   0.54173   0.82683   1.000
    H1352   H    0.45827   0.45913   0.82683   1.000
    H1353   H    0.33247   0.20753   0.33983   1.000
    H1354   H    0.87507   0.66753   0.33983   1.000
    H1355   H    0.79247   0.12493   0.33983   1.000
    H1356   H    0.45913   0.00087   0.17317   1.000
    H1357   H    0.99913   0.45827   0.17317   1.000
    H1358   H    0.54173   0.54087   0.17317   1.000
    H1359   H    0.66753   0.79247   0.66017   1.000
    H1360   H    0.12493   0.33247   0.66017   1.000
    H1361   H    0.20753   0.87507   0.66017   1.000
    H1362   H    0.20753   0.33247   0.16017   1.000
    H1363   H    0.66753   0.87507   0.16017   1.000
    H1364   H    0.12493   0.79247   0.16017   1.000
    H1365   H    0.99913   0.54087   0.67317   1.000
    H1366   H    0.54173   0.00087   0.67317   1.000
    H1367   H    0.45913   0.45827   0.67317   1.000
    C1368   C    0.20070   0.59880   0.46170   1.000
    C1369   C    0.40120   0.60190   0.46170   1.000
    C1370   C    0.52800   0.28930   0.00410   1.000
    C1371   C    0.76130   0.47200   0.00410   1.000
    C1372   C    0.71070   0.23870   0.00410   1.000
    C1373   C    0.71070   0.47200   0.50410   1.000
    C1374   C    0.52800   0.23870   0.50410   1.000
    C1375   C    0.76130   0.28930   0.50410   1.000
    C1376   C    0.47200   0.71070   0.99590   1.000
    C1377   C    0.23870   0.52800   0.99590   1.000
    C1378   C    0.28930   0.76130   0.99590   1.000
    C1379   C    0.95597   0.86133   0.82923   1.000
    C1380   C    0.13867   0.09463   0.82923   1.000
    C1381   C    0.90537   0.04403   0.82923   1.000
    C1382   C    0.19467   0.62263   0.33743   1.000
    C1383   C    0.42797   0.80533   0.33743   1.000
    C1384   C    0.37737   0.57203   0.33743   1.000
    C1385   C    0.37737   0.80533   0.83743   1.000
    C1386   C    0.19467   0.57203   0.83743   1.000
    C1387   C    0.42797   0.62263   0.83743   1.000
    C1388   C    0.13867   0.04403   0.32923   1.000
    C1389   C    0.90537   0.86133   0.32923   1.000
    C1390   C    0.95597   0.09463   0.32923   1.000
    C1391   C    0.62263   0.19467   0.16257   1.000
    C1392   C    0.80533   0.42797   0.16257   1.000
    C1393   C    0.57203   0.37737   0.16257   1.000
    C1394   C    0.86133   0.95597   0.67077   1.000
    C1395   C    0.09463   0.13867   0.67077   1.000
    C1396   C    0.04403   0.90537   0.67077   1.000
    C1397   C    0.04403   0.13867   0.17077   1.000
    C1398   C    0.86133   0.90537   0.17077   1.000
    C1399   C    0.09463   0.95597   0.17077   1.000
    C1400   C    0.80533   0.37737   0.66257   1.000
    C1401   C    0.57203   0.19467   0.66257   1.000
    C1402   C    0.62263   0.42797   0.66257   1.000
    C1403   C    0.13940   0.57090   0.45471   1.000
    C1404   C    0.42910   0.56850   0.45471   1.000
    C1405   C    0.79930   0.39810   0.03830   1.000
    C1406   C    0.59880   0.20070   0.03830   1.000
    C1407   C    0.60190   0.40120   0.03830   1.000
    C1408   C    0.60190   0.20070   0.53830   1.000
    C1409   C    0.79930   0.40120   0.53830   1.000
    C1410   C    0.59880   0.39810   0.53830   1.000
    C1411   C    0.20070   0.60190   0.96170   1.000
    C1412   C    0.40120   0.79930   0.96170   1.000
    C1413   C    0.39810   0.59880   0.96170   1.000
    C1414   C    0.06477   0.13263   0.79503   1.000
    C1415   C    0.86737   0.93213   0.79503   1.000
    C1416   C    0.06787   0.93523   0.79503   1.000
    C1417   C    0.46597   0.73143   0.37163   1.000
    C1418   C    0.26547   0.53403   0.37163   1.000
    C1419   C    0.26857   0.73453   0.37163   1.000
    C1420   C    0.26857   0.53403   0.87163   1.000
    C1421   C    0.46597   0.73453   0.87163   1.000
    C1422   C    0.26547   0.73143   0.87163   1.000
    C1423   C    0.86737   0.93523   0.29503   1.000
    C1424   C    0.06787   0.13263   0.29503   1.000
    C1425   C    0.06477   0.93213   0.29503   1.000
    C1426   C    0.73143   0.46597   0.12837   1.000
    C1427   C    0.53403   0.26547   0.12837   1.000
    C1428   C    0.73453   0.26857   0.12837   1.000
    C1429   C    0.13263   0.06477   0.70497   1.000
    C1430   C    0.93213   0.86737   0.70497   1.000
    C1431   C    0.93523   0.06787   0.70497   1.000
    C1432   C    0.93523   0.86737   0.20497   1.000
    C1433   C    0.13263   0.06787   0.20497   1.000
    C1434   C    0.93213   0.06477   0.20497   1.000
    C1435   C    0.53403   0.26857   0.62837   1.000
    C1436   C    0.73453   0.46597   0.62837   1.000
    C1437   C    0.73143   0.26547   0.62837   1.000
    C1438   C    0.14260   0.60040   0.44407   1.000
    C1439   C    0.39960   0.54220   0.44407   1.000
    C1440   C    0.86060   0.43150   0.04529   1.000
    C1441   C    0.57090   0.13940   0.04529   1.000
    C1442   C    0.56850   0.42910   0.04529   1.000
    C1443   C    0.56850   0.13940   0.54529   1.000
    C1444   C    0.86060   0.42910   0.54529   1.000
    C1445   C    0.57090   0.43150   0.54529   1.000
    C1446   C    0.13940   0.56850   0.95471   1.000
    C1447   C    0.42910   0.86060   0.95471   1.000
    C1448   C    0.43150   0.57090   0.95471   1.000
    C1449   C    0.09817   0.19393   0.78804   1.000
    C1450   C    0.80607   0.90423   0.78804   1.000
    C1451   C    0.09577   0.90183   0.78804   1.000
    C1452   C    0.52727   0.76483   0.37862   1.000
    C1453   C    0.23757   0.47273   0.37862   1.000
    C1454   C    0.23517   0.76243   0.37862   1.000
    C1455   C    0.23517   0.47273   0.87862   1.000
    C1456   C    0.52727   0.76243   0.87862   1.000
    C1457   C    0.23757   0.76483   0.87862   1.000
    C1458   C    0.80607   0.90183   0.28804   1.000
    C1459   C    0.09577   0.19393   0.28804   1.000
    C1460   C    0.09817   0.90423   0.28804   1.000
    C1461   C    0.76483   0.52727   0.12138   1.000
    C1462   C    0.47273   0.23757   0.12138   1.000
    C1463   C    0.76243   0.23517   0.12138   1.000
    C1464   C    0.19393   0.09817   0.71196   1.000
    C1465   C    0.90423   0.80607   0.71196   1.000
    C1466   C    0.90183   0.09577   0.71196   1.000
    C1467   C    0.90183   0.80607   0.21196   1.000
    C1468   C    0.19393   0.09577   0.21196   1.000
    C1469   C    0.90423   0.09817   0.21196   1.000
    C1470   C    0.47273   0.23517   0.62138   1.000
    C1471   C    0.76243   0.52727   0.62138   1.000
    C1472   C    0.76483   0.23757   0.62138   1.000
    H1473   H    0.18080   0.63500   0.44120   1.000
    H1474   H    0.36500   0.54580   0.44120   1.000
    C1475   C    0.85740   0.45780   0.05593   1.000
    C1476   C    0.60040   0.14260   0.05593   1.000
    C1477   C    0.54220   0.39960   0.05593   1.000
    C1478   C    0.54220   0.14260   0.55593   1.000
    C1479   C    0.85740   0.39960   0.55593   1.000
    C1480   C    0.60040   0.45780   0.55593   1.000
    C1481   C    0.14260   0.54220   0.94407   1.000
    C1482   C    0.39960   0.85740   0.94407   1.000
    C1483   C    0.45780   0.60040   0.94407   1.000
    C1484   C    0.12447   0.19073   0.77740   1.000
    C1485   C    0.80927   0.93373   0.77740   1.000
    C1486   C    0.06627   0.87553   0.77740   1.000
    C1487   C    0.52407   0.79113   0.38926   1.000
    C1488   C    0.26707   0.47593   0.38926   1.000
    C1489   C    0.20887   0.73293   0.38926   1.000
    C1490   C    0.20887   0.47593   0.88926   1.000
    C1491   C    0.52407   0.73293   0.88926   1.000
    C1492   C    0.26707   0.79113   0.88926   1.000
    C1493   C    0.80927   0.87553   0.27740   1.000
    C1494   C    0.06627   0.19073   0.27740   1.000
    C1495   C    0.12447   0.93373   0.27740   1.000
    C1496   C    0.79113   0.52407   0.11074   1.000
    C1497   C    0.47593   0.26707   0.11074   1.000
    C1498   C    0.73293   0.20887   0.11074   1.000
    C1499   C    0.19073   0.12447   0.72260   1.000
    C1500   C    0.93373   0.80927   0.72260   1.000
    C1501   C    0.87553   0.06627   0.72260   1.000
    C1502   C    0.87553   0.80927   0.22260   1.000
    C1503   C    0.19073   0.06627   0.22260   1.000
    C1504   C    0.93373   0.12447   0.22260   1.000
    C1505   C    0.47593   0.20887   0.61074   1.000
    C1506   C    0.73293   0.52407   0.61074   1.000
    C1507   C    0.79113   0.26707   0.61074   1.000
    C1508   C    0.91570   0.49090   0.06240   1.000
    C1509   C    0.57520   0.08430   0.06240   1.000
    C1510   C    0.50910   0.42480   0.06240   1.000
    H1511   H    0.81920   0.45420   0.05880   1.000
    H1512   H    0.63500   0.18080   0.05880   1.000
    H1513   H    0.54580   0.36500   0.05880   1.000
    H1514   H    0.54580   0.18080   0.55880   1.000
    H1515   H    0.81920   0.36500   0.55880   1.000
    H1516   H    0.63500   0.45420   0.55880   1.000
    H1517   H    0.18080   0.54580   0.94120   1.000
    H1518   H    0.36500   0.81920   0.94120   1.000
    H1519   H    0.45420   0.63500   0.94120   1.000
    H1520   H    0.12087   0.15253   0.77453   1.000
    H1521   H    0.84747   0.96833   0.77453   1.000
    H1522   H    0.03167   0.87913   0.77453   1.000
    H1523   H    0.48587   0.78753   0.39213   1.000
    H1524   H    0.30167   0.51413   0.39213   1.000
    H1525   H    0.21247   0.69833   0.39213   1.000
    H1526   H    0.21247   0.51413   0.89213   1.000
    H1527   H    0.48587   0.69833   0.89213   1.000
    H1528   H    0.30167   0.78753   0.89213   1.000
    C1529   C    0.50910   0.08430   0.56240   1.000
    C1530   C    0.91570   0.42480   0.56240   1.000
    C1531   C    0.57520   0.49090   0.56240   1.000
    C1532   C    0.08430   0.50910   0.93760   1.000
    C1533   C    0.42480   0.91570   0.93760   1.000
    C1534   C    0.49090   0.57520   0.93760   1.000
    C1535   C    0.15757   0.24903   0.77093   1.000
    C1536   C    0.75097   0.90853   0.77093   1.000
    C1537   C    0.09147   0.84243   0.77093   1.000
    C1538   C    0.58237   0.82423   0.39573   1.000
    C1539   C    0.24187   0.41763   0.39573   1.000
    C1540   C    0.17577   0.75813   0.39573   1.000
    C1541   C    0.17577   0.41763   0.89573   1.000
    C1542   C    0.58237   0.75813   0.89573   1.000
    C1543   C    0.24187   0.82423   0.89573   1.000
    C1544   C    0.75097   0.84243   0.27093   1.000
    C1545   C    0.09147   0.24903   0.27093   1.000
    C1546   C    0.15757   0.90853   0.27093   1.000
    C1547   C    0.82423   0.58237   0.10427   1.000
    C1548   C    0.41763   0.24187   0.10427   1.000
    C1549   C    0.75813   0.17577   0.10427   1.000
    C1550   C    0.24903   0.15757   0.72907   1.000
    C1551   C    0.90853   0.75097   0.72907   1.000
    C1552   C    0.84243   0.09147   0.72907   1.000
    C1553   C    0.84243   0.75097   0.22907   1.000
    C1554   C    0.24903   0.09147   0.22907   1.000
    C1555   C    0.90853   0.15757   0.22907   1.000
    C1556   C    0.41763   0.17577   0.60427   1.000
    C1557   C    0.75813   0.58237   0.60427   1.000
    C1558   C    0.82423   0.24187   0.60427   1.000
    C1559   C    0.03140   0.49690   0.45156   1.000
    C1560   C    0.50310   0.53450   0.45156   1.000
    C1561   C    0.97030   0.49300   0.05853   1.000
    C1562   C    0.52270   0.02970   0.05853   1.000
    C1563   C    0.50700   0.47730   0.05853   1.000
    C1564   C    0.50700   0.02970   0.55853   1.000
    C1565   C    0.97030   0.47730   0.55853   1.000
    C1566   C    0.52270   0.49300   0.55853   1.000
    C1567   C    0.02970   0.50700   0.94147   1.000
    C1568   C    0.47730   0.97030   0.94147   1.000
    C1569   C    0.49300   0.52270   0.94147   1.000
    C1570   C    0.15967   0.30363   0.77480   1.000
    C1571   C    0.69637   0.85603   0.77480   1.000
    C1572   C    0.14397   0.84033   0.77480   1.000
    C1573   C    0.63697   0.82633   0.39186   1.000
    C1574   C    0.18937   0.36303   0.39186   1.000
    C1575   C    0.17367   0.81063   0.39186   1.000
    C1576   C    0.17367   0.36303   0.89186   1.000
    C1577   C    0.63697   0.81063   0.89186   1.000
    C1578   C    0.18937   0.82633   0.89186   1.000
    C1579   C    0.69637   0.84033   0.27480   1.000
    C1580   C    0.14397   0.30363   0.27480   1.000
    C1581   C    0.15967   0.85603   0.27480   1.000
    C1582   C    0.82633   0.63697   0.10814   1.000
    C1583   C    0.36303   0.18937   0.10814   1.000
    C1584   C    0.81063   0.17367   0.10814   1.000
    C1585   C    0.30363   0.15967   0.72520   1.000
    C1586   C    0.85603   0.69637   0.72520   1.000
    C1587   C    0.84033   0.14397   0.72520   1.000
    C1588   C    0.84033   0.69637   0.22520   1.000
    C1589   C    0.30363   0.14397   0.22520   1.000
    C1590   C    0.85603   0.15967   0.22520   1.000
    C1591   C    0.36303   0.17367   0.60814   1.000
    C1592   C    0.81063   0.63697   0.60814   1.000
    C1593   C    0.82633   0.18937   0.60814   1.000
    C1594   C    0.08820   0.52000   0.45855   1.000
    C1595   C    0.48000   0.56820   0.45855   1.000
    C1596   C    0.96860   0.46550   0.04844   1.000
    C1597   C    0.49690   0.03140   0.04844   1.000
    C1598   C    0.53450   0.50310   0.04844   1.000
    C1599   C    0.53450   0.03140   0.54844   1.000
    C1600   C    0.96860   0.50310   0.54844   1.000
    C1601   C    0.49690   0.46550   0.54844   1.000
    C1602   C    0.03140   0.53450   0.95156   1.000
    C1603   C    0.50310   0.96860   0.95156   1.000
    C1604   C    0.46550   0.49690   0.95156   1.000
    C1605   C    0.13217   0.30193   0.78489   1.000
    C1606   C    0.69807   0.83023   0.78489   1.000
    C1607   C    0.16977   0.86783   0.78489   1.000
    C1608   C    0.63527   0.79883   0.38177   1.000
    C1609   C    0.16357   0.36473   0.38177   1.000
    C1610   C    0.20117   0.83643   0.38177   1.000
    C1611   C    0.20117   0.36473   0.88177   1.000
    C1612   C    0.63527   0.83643   0.88177   1.000
    C1613   C    0.16357   0.79883   0.88177   1.000
    C1614   C    0.69807   0.86783   0.28489   1.000
    C1615   C    0.16977   0.30193   0.28489   1.000
    C1616   C    0.13217   0.83023   0.28489   1.000
    C1617   C    0.79883   0.63527   0.11823   1.000
    C1618   C    0.36473   0.16357   0.11823   1.000
    C1619   C    0.83643   0.20117   0.11823   1.000
    C1620   C    0.30193   0.13217   0.71511   1.000
    C1621   C    0.83023   0.69807   0.71511   1.000
    C1622   C    0.86783   0.16977   0.71511   1.000
    C1623   C    0.86783   0.69807   0.21511   1.000
    C1624   C    0.30193   0.16977   0.21511   1.000
    C1625   C    0.83023   0.13217   0.21511   1.000
    C1626   C    0.36473   0.20117   0.61823   1.000
    C1627   C    0.83643   0.63527   0.61823   1.000
    C1628   C    0.79883   0.16357   0.61823   1.000
    H1629   H    0.08870   0.49940   0.46560   1.000
    H1630   H    0.50060   0.58930   0.46560   1.000
    C1631   C    0.91180   0.43180   0.04145   1.000
    C1632   C    0.52000   0.08820   0.04145   1.000
    C1633   C    0.56820   0.48000   0.04145   1.000
    C1634   C    0.56820   0.08820   0.54145   1.000
    C1635   C    0.91180   0.48000   0.54145   1.000
    C1636   C    0.52000   0.43180   0.54145   1.000
    C1637   C    0.08820   0.56820   0.95855   1.000
    C1638   C    0.48000   0.91180   0.95855   1.000
    C1639   C    0.43180   0.52000   0.95855   1.000
    C1640   C    0.09847   0.24513   0.79188   1.000
    C1641   C    0.75487   0.85333   0.79188   1.000
    C1642   C    0.14667   0.90153   0.79188   1.000
    C1643   C    0.57847   0.76513   0.37478   1.000
    C1644   C    0.18667   0.42153   0.37478   1.000
    C1645   C    0.23487   0.81333   0.37478   1.000
    C1646   C    0.23487   0.42153   0.87478   1.000
    C1647   C    0.57847   0.81333   0.87478   1.000
    C1648   C    0.18667   0.76513   0.87478   1.000
    C1649   C    0.75487   0.90153   0.29188   1.000
    C1650   C    0.14667   0.24513   0.29188   1.000
    C1651   C    0.09847   0.85333   0.29188   1.000
    C1652   C    0.76513   0.57847   0.12522   1.000
    C1653   C    0.42153   0.18667   0.12522   1.000
    C1654   C    0.81333   0.23487   0.12522   1.000
    C1655   C    0.24513   0.09847   0.70812   1.000
    C1656   C    0.85333   0.75487   0.70812   1.000
    C1657   C    0.90153   0.14667   0.70812   1.000
    C1658   C    0.90153   0.75487   0.20812   1.000
    C1659   C    0.24513   0.14667   0.20812   1.000
    C1660   C    0.85333   0.09847   0.20812   1.000
    C1661   C    0.42153   0.23487   0.62522   1.000
    C1662   C    0.81333   0.57847   0.62522   1.000
    C1663   C    0.76513   0.18667   0.62522   1.000
    C1664   C    0.97330   0.49690   0.43478   1.000
    C1665   C    0.50310   0.47640   0.43478   1.000
    H1666   H    0.91130   0.41070   0.03440   1.000
    H1667   H    0.49940   0.08870   0.03440   1.000
    H1668   H    0.58930   0.50060   0.03440   1.000
    H1669   H    0.58930   0.08870   0.53440   1.000
    H1670   H    0.91130   0.50060   0.53440   1.000
    H1671   H    0.49940   0.41070   0.53440   1.000
    H1672   H    0.08870   0.58930   0.96560   1.000
    H1673   H    0.50060   0.91130   0.96560   1.000
    H1674   H    0.41070   0.49940   0.96560   1.000
    H1675   H    0.07737   0.24463   0.79893   1.000
    H1676   H    0.75537   0.83273   0.79893   1.000
    H1677   H    0.16727   0.92263   0.79893   1.000
    H1678   H    0.57797   0.74403   0.36773   1.000
    H1679   H    0.16607   0.42203   0.36773   1.000
    H1680   H    0.25597   0.83393   0.36773   1.000
    H1681   H    0.25597   0.42203   0.86773   1.000
    H1682   H    0.57797   0.83393   0.86773   1.000
    H1683   H    0.16607   0.74403   0.86773   1.000
    H1684   H    0.75537   0.92263   0.29893   1.000
    H1685   H    0.16727   0.24463   0.29893   1.000
    H1686   H    0.07737   0.83273   0.29893   1.000
    H1687   H    0.74403   0.57797   0.13227   1.000
    H1688   H    0.42203   0.16607   0.13227   1.000
    H1689   H    0.83393   0.25597   0.13227   1.000
    H1690   H    0.24463   0.07737   0.70107   1.000
    H1691   H    0.83273   0.75537   0.70107   1.000
    H1692   H    0.92263   0.16727   0.70107   1.000
    H1693   H    0.92263   0.75537   0.20107   1.000
    H1694   H    0.24463   0.16727   0.20107   1.000
    H1695   H    0.83273   0.07737   0.20107   1.000
    H1696   H    0.42203   0.25597   0.63227   1.000
    H1697   H    0.83393   0.57797   0.63227   1.000
    H1698   H    0.74403   0.16607   0.63227   1.000
    C1699   C    0.97490   0.50020   0.42209   1.000
    C1700   C    0.49980   0.47470   0.42209   1.000
    C1701   C    0.02670   0.52360   0.06522   1.000
    C1702   C    0.49690   0.97330   0.06522   1.000
    C1703   C    0.47640   0.50310   0.06522   1.000
    C1704   C    0.47640   0.97330   0.56522   1.000
    C1705   C    0.02670   0.50310   0.56522   1.000
    C1706   C    0.49690   0.52360   0.56522   1.000
    C1707   C    0.97330   0.47640   0.93478   1.000
    C1708   C    0.50310   0.02670   0.93478   1.000
    C1709   C    0.52360   0.49690   0.93478   1.000
    C1710   C    0.19027   0.36003   0.76811   1.000
    C1711   C    0.63997   0.83023   0.76811   1.000
    C1712   C    0.16977   0.80973   0.76811   1.000
    C1713   C    0.69337   0.85693   0.39855   1.000
    C1714   C    0.16357   0.30663   0.39855   1.000
    C1715   C    0.14307   0.83643   0.39855   1.000
    C1716   C    0.14307   0.30663   0.89855   1.000
    C1717   C    0.69337   0.83643   0.89855   1.000
    C1718   C    0.16357   0.85693   0.89855   1.000
    C1719   C    0.63997   0.80973   0.26811   1.000
    C1720   C    0.16977   0.36003   0.26811   1.000
    C1721   C    0.19027   0.83023   0.26811   1.000
    C1722   C    0.85693   0.69337   0.10145   1.000
    C1723   C    0.30663   0.16357   0.10145   1.000
    C1724   C    0.83643   0.14307   0.10145   1.000
    C1725   C    0.36003   0.19027   0.73189   1.000
    C1726   C    0.83023   0.63997   0.73189   1.000
    C1727   C    0.80973   0.16977   0.73189   1.000
    C1728   C    0.80973   0.63997   0.23189   1.000
    C1729   C    0.36003   0.16977   0.23189   1.000
    C1730   C    0.83023   0.19027   0.23189   1.000
    C1731   C    0.30663   0.14307   0.60145   1.000
    C1732   C    0.83643   0.69337   0.60145   1.000
    C1733   C    0.85693   0.16357   0.60145   1.000
    C1734   C    0.92120   0.47260   0.41588   1.000
    C1735   C    0.52740   0.44860   0.41588   1.000
    C1736   C    0.02510   0.52530   0.07791   1.000
    C1737   C    0.50020   0.97490   0.07791   1.000
    C1738   C    0.47470   0.49980   0.07791   1.000
    C1739   C    0.47470   0.97490   0.57791   1.000
    C1740   C    0.02510   0.49980   0.57791   1.000
    C1741   C    0.50020   0.52530   0.57791   1.000
    C1742   C    0.97490   0.47470   0.92209   1.000
    C1743   C    0.49980   0.02510   0.92209   1.000
    C1744   C    0.52530   0.50020   0.92209   1.000
    C1745   C    0.19197   0.35843   0.75542   1.000
    C1746   C    0.64157   0.83353   0.75542   1.000
    C1747   C    0.16647   0.80803   0.75542   1.000
    C1748   C    0.69177   0.85863   0.41124   1.000
    C1749   C    0.16687   0.30823   0.41124   1.000
    C1750   C    0.14137   0.83313   0.41124   1.000
    C1751   C    0.14137   0.30823   0.91124   1.000
    C1752   C    0.69177   0.83313   0.91124   1.000
    C1753   C    0.16687   0.85863   0.91124   1.000
    C1754   C    0.64157   0.80803   0.25542   1.000
    C1755   C    0.16647   0.35843   0.25542   1.000
    C1756   C    0.19197   0.83353   0.25542   1.000
    C1757   C    0.85863   0.69177   0.08876   1.000
    C1758   C    0.30823   0.16687   0.08876   1.000
    C1759   C    0.83313   0.14137   0.08876   1.000
    C1760   C    0.35843   0.19197   0.74458   1.000
    C1761   C    0.83353   0.64157   0.74458   1.000
    C1762   C    0.80803   0.16647   0.74458   1.000
    C1763   C    0.80803   0.64157   0.24458   1.000
    C1764   C    0.35843   0.16647   0.24458   1.000
    C1765   C    0.83353   0.19197   0.24458   1.000
    C1766   C    0.30823   0.14137   0.58876   1.000
    C1767   C    0.83313   0.69177   0.58876   1.000
    C1768   C    0.85863   0.16687   0.58876   1.000
    H1769   H    0.92330   0.47300   0.40750   1.000
    H1770   H    0.52700   0.45030   0.40750   1.000
    C1771   C    0.07880   0.55140   0.08412   1.000
    C1772   C    0.47260   0.92120   0.08412   1.000
    C1773   C    0.44860   0.52740   0.08412   1.000
    C1774   C    0.44860   0.92120   0.58412   1.000
    C1775   C    0.07880   0.52740   0.58412   1.000
    C1776   C    0.47260   0.55140   0.58412   1.000
    C1777   C    0.92120   0.44860   0.91588   1.000
    C1778   C    0.52740   0.07880   0.91588   1.000
    C1779   C    0.55140   0.47260   0.91588   1.000
    C1780   C    0.21807   0.41213   0.74921   1.000
    C1781   C    0.58787   0.80593   0.74921   1.000
    C1782   C    0.19407   0.78193   0.74921   1.000
    C1783   C    0.74547   0.88473   0.41745   1.000
    C1784   C    0.13927   0.25453   0.41745   1.000
    C1785   C    0.11527   0.86073   0.41745   1.000
    C1786   C    0.11527   0.25453   0.91745   1.000
    C1787   C    0.74547   0.86073   0.91745   1.000
    C1788   C    0.13927   0.88473   0.91745   1.000
    C1789   C    0.58787   0.78193   0.24921   1.000
    C1790   C    0.19407   0.41213   0.24921   1.000
    C1791   C    0.21807   0.80593   0.24921   1.000
    C1792   C    0.88473   0.74547   0.08255   1.000
    C1793   C    0.25453   0.13927   0.08255   1.000
    C1794   C    0.86073   0.11527   0.08255   1.000
    C1795   C    0.41213   0.21807   0.75079   1.000
    C1796   C    0.80593   0.58787   0.75079   1.000
    C1797   C    0.78193   0.19407   0.75079   1.000
    C1798   C    0.78193   0.58787   0.25079   1.000
    C1799   C    0.41213   0.19407   0.25079   1.000
    C1800   C    0.80593   0.21807   0.25079   1.000
    C1801   C    0.25453   0.11527   0.58255   1.000
    C1802   C    0.86073   0.74547   0.58255   1.000
    C1803   C    0.88473   0.13927   0.58255   1.000
    C1804   C    0.86090   0.44270   0.42148   1.000
    C1805   C    0.55730   0.41820   0.42148   1.000
    H1806   H    0.07670   0.54970   0.09250   1.000
    H1807   H    0.47300   0.92330   0.09250   1.000
    H1808   H    0.45030   0.52700   0.09250   1.000
    H1809   H    0.45030   0.92330   0.59250   1.000
    H1810   H    0.07670   0.52700   0.59250   1.000
    H1811   H    0.47300   0.54970   0.59250   1.000
    H1812   H    0.92330   0.45030   0.90750   1.000
    H1813   H    0.52700   0.07670   0.90750   1.000
    H1814   H    0.54970   0.47300   0.90750   1.000
    H1815   H    0.21637   0.41003   0.74083   1.000
    H1816   H    0.58997   0.80633   0.74083   1.000
    H1817   H    0.19367   0.78363   0.74083   1.000
    H1818   H    0.74337   0.88303   0.42583   1.000
    H1819   H    0.13967   0.25663   0.42583   1.000
    H1820   H    0.11697   0.86033   0.42583   1.000
    H1821   H    0.11697   0.25663   0.92583   1.000
    H1822   H    0.74337   0.86033   0.92583   1.000
    H1823   H    0.13967   0.88303   0.92583   1.000
    H1824   H    0.58997   0.78363   0.24083   1.000
    H1825   H    0.19367   0.41003   0.24083   1.000
    H1826   H    0.21637   0.80633   0.24083   1.000
    H1827   H    0.88303   0.74337   0.07417   1.000
    H1828   H    0.25663   0.13967   0.07417   1.000
    H1829   H    0.86033   0.11697   0.07417   1.000
    H1830   H    0.41003   0.21637   0.75917   1.000
    H1831   H    0.80633   0.58997   0.75917   1.000
    H1832   H    0.78363   0.19367   0.75917   1.000
    H1833   H    0.78363   0.58997   0.25917   1.000
    H1834   H    0.41003   0.19367   0.25917   1.000
    H1835   H    0.80633   0.21637   0.25917   1.000
    H1836   H    0.25663   0.11697   0.57417   1.000
    H1837   H    0.86033   0.74337   0.57417   1.000
    H1838   H    0.88303   0.13967   0.57417   1.000
    C1839   C    0.86020   0.44600   0.43362   1.000
    C1840   C    0.55400   0.41420   0.43362   1.000
    C1841   C    0.13910   0.58180   0.07852   1.000
    C1842   C    0.44270   0.86090   0.07852   1.000
    C1843   C    0.41820   0.55730   0.07852   1.000
    C1844   C    0.41820   0.86090   0.57852   1.000
    C1845   C    0.13910   0.55730   0.57852   1.000
    C1846   C    0.44270   0.58180   0.57852   1.000
    C1847   C    0.86090   0.41820   0.92148   1.000
    C1848   C    0.55730   0.13910   0.92148   1.000
    C1849   C    0.58180   0.44270   0.92148   1.000
    C1850   C    0.24847   0.47243   0.75481   1.000
    C1851   C    0.52757   0.77603   0.75481   1.000
    C1852   C    0.22397   0.75153   0.75481   1.000
    C1853   C    0.80577   0.91513   0.41185   1.000
    C1854   C    0.10937   0.19423   0.41185   1.000
    C1855   C    0.08487   0.89063   0.41185   1.000
    C1856   C    0.08487   0.19423   0.91185   1.000
    C1857   C    0.80577   0.89063   0.91185   1.000
    C1858   C    0.10937   0.91513   0.91185   1.000
    C1859   C    0.52757   0.75153   0.25481   1.000
    C1860   C    0.22397   0.47243   0.25481   1.000
    C1861   C    0.24847   0.77603   0.25481   1.000
    C1862   C    0.91513   0.80577   0.08815   1.000
    C1863   C    0.19423   0.10937   0.08815   1.000
    C1864   C    0.89063   0.08487   0.08815   1.000
    C1865   C    0.47243   0.24847   0.74519   1.000
    C1866   C    0.77603   0.52757   0.74519   1.000
    C1867   C    0.75153   0.22397   0.74519   1.000
    C1868   C    0.75153   0.52757   0.24519   1.000
    C1869   C    0.47243   0.22397   0.24519   1.000
    C1870   C    0.77603   0.24847   0.24519   1.000
    C1871   C    0.19423   0.08487   0.58815   1.000
    C1872   C    0.89063   0.80577   0.58815   1.000
    C1873   C    0.91513   0.10937   0.58815   1.000
    H1874   H    0.82100   0.43170   0.43750   1.000
    H1875   H    0.56830   0.38930   0.43750   1.000
    C1876   C    0.13980   0.58580   0.06638   1.000
    C1877   C    0.44600   0.86020   0.06638   1.000
    C1878   C    0.41420   0.55400   0.06638   1.000
    C1879   C    0.41420   0.86020   0.56638   1.000
    C1880   C    0.13980   0.55400   0.56638   1.000
    C1881   C    0.44600   0.58580   0.56638   1.000
    C1882   C    0.86020   0.41420   0.93362   1.000
    C1883   C    0.55400   0.13980   0.93362   1.000
    C1884   C    0.58580   0.44600   0.93362   1.000
    C1885   C    0.25247   0.47313   0.76695   1.000
    C1886   C    0.52687   0.77933   0.76695   1.000
    C1887   C    0.22067   0.74753   0.76695   1.000
    C1888   C    0.80647   0.91913   0.39971   1.000
    C1889   C    0.11267   0.19353   0.39971   1.000
    C1890   C    0.08087   0.88733   0.39971   1.000
    C1891   C    0.08087   0.19353   0.89971   1.000
    C1892   C    0.80647   0.88733   0.89971   1.000
    C1893   C    0.11267   0.91913   0.89971   1.000
    C1894   C    0.52687   0.74753   0.26695   1.000
    C1895   C    0.22067   0.47313   0.26695   1.000
    C1896   C    0.25247   0.77933   0.26695   1.000
    C1897   C    0.91913   0.80647   0.10029   1.000
    C1898   C    0.19353   0.11267   0.10029   1.000
    C1899   C    0.88733   0.08087   0.10029   1.000
    C1900   C    0.47313   0.25247   0.73305   1.000
    C1901   C    0.77933   0.52687   0.73305   1.000
    C1902   C    0.74753   0.22067   0.73305   1.000
    C1903   C    0.74753   0.52687   0.23305   1.000
    C1904   C    0.47313   0.22067   0.23305   1.000
    C1905   C    0.77933   0.25247   0.23305   1.000
    C1906   C    0.19353   0.08087   0.60029   1.000
    C1907   C    0.88733   0.80647   0.60029   1.000
    C1908   C    0.91913   0.11267   0.60029   1.000
    C1909   C    0.91290   0.46880   0.44011   1.000
    C1910   C    0.53120   0.44410   0.44011   1.000
    H1911   H    0.17900   0.61070   0.06250   1.000
    H1912   H    0.43170   0.82100   0.06250   1.000
    H1913   H    0.38930   0.56830   0.06250   1.000
    H1914   H    0.38930   0.82100   0.56250   1.000
    H1915   H    0.17900   0.56830   0.56250   1.000
    H1916   H    0.43170   0.61070   0.56250   1.000
    H1917   H    0.82100   0.38930   0.93750   1.000
    H1918   H    0.56830   0.17900   0.93750   1.000
    H1919   H    0.61070   0.43170   0.93750   1.000
    H1920   H    0.27737   0.51233   0.77083   1.000
    H1921   H    0.48767   0.76503   0.77083   1.000
    H1922   H    0.23497   0.72263   0.77083   1.000
    H1923   H    0.84567   0.94403   0.39583   1.000
    H1924   H    0.09837   0.15433   0.39583   1.000
    H1925   H    0.05597   0.90163   0.39583   1.000
    H1926   H    0.05597   0.15433   0.89583   1.000
    H1927   H    0.84567   0.90163   0.89583   1.000
    H1928   H    0.09837   0.94403   0.89583   1.000
    H1929   H    0.48767   0.72263   0.27083   1.000
    H1930   H    0.23497   0.51233   0.27083   1.000
    H1931   H    0.27737   0.76503   0.27083   1.000
    H1932   H    0.94403   0.84567   0.10417   1.000
    H1933   H    0.15433   0.09837   0.10417   1.000
    H1934   H    0.90163   0.05597   0.10417   1.000
    H1935   H    0.51233   0.27737   0.72917   1.000
    H1936   H    0.76503   0.48767   0.72917   1.000
    H1937   H    0.72263   0.23497   0.72917   1.000
    H1938   H    0.72263   0.48767   0.22917   1.000
    H1939   H    0.51233   0.23497   0.22917   1.000
    H1940   H    0.76503   0.27737   0.22917   1.000
    H1941   H    0.15433   0.05597   0.60417   1.000
    H1942   H    0.90163   0.84567   0.60417   1.000
    H1943   H    0.94403   0.09837   0.60417   1.000
    C1944   C    0.05567   0.13683   0.92042   1.000
    C1945   C    0.86317   0.91883   0.92042   1.000
    C1946   C    0.08117   0.94433   0.92042   1.000
    C1947   C    0.08710   0.55590   0.05989   1.000
    C1948   C    0.46880   0.91290   0.05989   1.000
    C1949   C    0.44410   0.53120   0.05989   1.000
    C1950   C    0.44410   0.91290   0.55989   1.000
    C1951   C    0.08710   0.53120   0.55989   1.000
    C1952   C    0.46880   0.55590   0.55989   1.000
    C1953   C    0.91290   0.44410   0.94011   1.000
    C1954   C    0.53120   0.08710   0.94011   1.000
    C1955   C    0.55590   0.46880   0.94011   1.000
    C1956   C    0.22257   0.42043   0.77344   1.000
    C1957   C    0.57957   0.80213   0.77344   1.000
    C1958   C    0.19787   0.77743   0.77344   1.000
    C1959   C    0.75377   0.88923   0.39322   1.000
    C1960   C    0.13547   0.24623   0.39322   1.000
    C1961   C    0.11077   0.86453   0.39322   1.000
    C1962   C    0.11077   0.24623   0.89322   1.000
    C1963   C    0.75377   0.86453   0.89322   1.000
    C1964   C    0.13547   0.88923   0.89322   1.000
    C1965   C    0.57957   0.77743   0.27344   1.000
    C1966   C    0.19787   0.42043   0.27344   1.000
    C1967   C    0.22257   0.80213   0.27344   1.000
    C1968   C    0.88923   0.75377   0.10678   1.000
    C1969   C    0.24623   0.13547   0.10678   1.000
    C1970   C    0.86453   0.11077   0.10678   1.000
    C1971   C    0.42043   0.22257   0.72656   1.000
    C1972   C    0.80213   0.57957   0.72656   1.000
    C1973   C    0.47017   0.72233   0.24624   1.000
    C1974   C    0.25217   0.52983   0.24624   1.000
    C1975   C    0.27767   0.74783   0.24624   1.000
    C1976   C    0.94433   0.86317   0.07958   1.000
    C1977   C    0.13683   0.08117   0.07958   1.000
    C1978   C    0.91883   0.05567   0.07958   1.000
    C1979   C    0.52983   0.27767   0.75376   1.000
    C1980   C    0.74783   0.47017   0.75376   1.000
    C1981   C    0.72233   0.25217   0.75376   1.000
    C1982   C    0.72233   0.47017   0.25376   1.000
    C1983   C    0.52983   0.25217   0.25376   1.000
    C1984   C    0.74783   0.27767   0.25376   1.000
    C1985   C    0.13683   0.05567   0.57958   1.000
    C1986   C    0.91883   0.86317   0.57958   1.000
    C1987   C    0.94433   0.08117   0.57958   1.000
    H1988   H    0.10010   0.64540   0.42700   1.000
    H1989   H    0.35460   0.45470   0.42700   1.000
    N1990   N    0.90930   0.51520   0.07369   1.000
    N1991   N    0.60590   0.09070   0.07369   1.000
    N1992   N    0.48480   0.39410   0.07369   1.000
    N1993   N    0.48480   0.09070   0.57369   1.000
    N1994   N    0.90930   0.39410   0.57369   1.000
    N1995   N    0.60590   0.51520   0.57369   1.000
    N1996   N    0.09070   0.48480   0.92631   1.000
    N1997   N    0.39410   0.90930   0.92631   1.000
    N1998   N    0.51520   0.60590   0.92631   1.000
    N1999   N    0.18187   0.24263   0.75964   1.000
    N2000   N    0.75737   0.93923   0.75964   1.000
    N2001   N    0.06077   0.81813   0.75964   1.000
    N2002   N    0.57597   0.84853   0.40702   1.000
    N2003   N    0.27257   0.42403   0.40702   1.000
    N2004   N    0.15147   0.72743   0.40702   1.000
    N2005   N    0.15147   0.42403   0.90702   1.000
    N2006   N    0.57597   0.72743   0.90702   1.000
    N2007   N    0.27257   0.84853   0.90702   1.000
    N2008   N    0.75737   0.81813   0.25964   1.000
    N2009   N    0.06077   0.24263   0.25964   1.000
    N2010   N    0.18187   0.93923   0.25964   1.000
    N2011   N    0.84853   0.57597   0.09298   1.000
    N2012   N    0.42403   0.27257   0.09298   1.000
    N2013   N    0.72743   0.15147   0.09298   1.000
    N2014   N    0.24263   0.18187   0.74036   1.000
    N2015   N    0.93923   0.75737   0.74036   1.000
    N2016   N    0.81813   0.06077   0.74036   1.000
    N2017   N    0.81813   0.75737   0.24036   1.000
    N2018   N    0.24263   0.06077   0.24036   1.000
    N2019   N    0.93923   0.18187   0.24036   1.000
    N2020   N    0.42403   0.15147   0.59298   1.000
    N2021   N    0.72743   0.57597   0.59298   1.000
    N2022   N    0.84853   0.27257   0.59298   1.000
    N2023   N    0.03080   0.52180   0.41435   1.000
    N2024   N    0.47820   0.50900   0.41435   1.000
    H2025   H    0.89990   0.54530   0.07300   1.000
    H2026   H    0.64540   0.10010   0.07300   1.000
    H2027   H    0.45470   0.35460   0.07300   1.000
    H2028   H    0.45470   0.10010   0.57300   1.000
    H2029   H    0.89990   0.35460   0.57300   1.000
    H2030   H    0.64540   0.54530   0.57300   1.000
    H2031   H    0.10010   0.45470   0.92700   1.000
    H2032   H    0.35460   0.89990   0.92700   1.000
    H2033   H    0.54530   0.64540   0.92700   1.000
    H2034   H    0.21197   0.23323   0.76033   1.000
    H2035   H    0.76677   0.97873   0.76033   1.000
    H2036   H    0.02127   0.78803   0.76033   1.000
    H2037   H    0.56657   0.87863   0.40633   1.000
    H2038   H    0.31207   0.43343   0.40633   1.000
    H2039   H    0.12137   0.68793   0.40633   1.000
    H2040   H    0.12137   0.43343   0.90633   1.000
    H2041   H    0.56657   0.68793   0.90633   1.000
    H2042   H    0.31207   0.87863   0.90633   1.000
    H2043   H    0.76677   0.78803   0.26033   1.000
    H2044   H    0.02127   0.23323   0.26033   1.000
    H2045   H    0.21197   0.97873   0.26033   1.000
    H2046   H    0.87863   0.56657   0.09367   1.000
    H2047   H    0.43343   0.31207   0.09367   1.000
    H2048   H    0.68793   0.12137   0.09367   1.000
    H2049   H    0.23323   0.21197   0.73967   1.000
    H2050   H    0.97873   0.76677   0.73967   1.000
    H2051   H    0.78803   0.02127   0.73967   1.000
    H2052   H    0.78803   0.76677   0.23967   1.000
    H2053   H    0.23323   0.02127   0.23967   1.000
    H2054   H    0.97873   0.21197   0.23967   1.000
    H2055   H    0.43343   0.12137   0.59367   1.000
    H2056   H    0.68793   0.56657   0.59367   1.000
    H2057   H    0.87863   0.31207   0.59367   1.000
    H2058   H    0.03120   0.49370   0.40950   1.000
    H2059   H    0.50630   0.53750   0.40950   1.000
    N2060   N    0.96920   0.49100   0.08565   1.000
    N2061   N    0.52180   0.03080   0.08565   1.000
    N2062   N    0.50900   0.47820   0.08565   1.000
    N2063   N    0.50900   0.03080   0.58565   1.000
    N2064   N    0.96920   0.47820   0.58565   1.000
    N2065   N    0.52180   0.49100   0.58565   1.000
    N2066   N    0.03080   0.50900   0.91435   1.000
    N2067   N    0.47820   0.96920   0.91435   1.000
    N2068   N    0.49100   0.52180   0.91435   1.000
    N2069   N    0.15767   0.30253   0.74768   1.000
    N2070   N    0.69747   0.85513   0.74768   1.000
    N2071   N    0.14487   0.84233   0.74768   1.000
    N2072   N    0.63587   0.82433   0.41898   1.000
    N2073   N    0.18847   0.36413   0.41898   1.000
    N2074   N    0.17567   0.81153   0.41898   1.000
    N2075   N    0.17567   0.36413   0.91898   1.000
    N2076   N    0.63587   0.81153   0.91898   1.000
    N2077   N    0.18847   0.82433   0.91898   1.000
    N2078   N    0.69747   0.84233   0.24768   1.000
    N2079   N    0.14487   0.30253   0.24768   1.000
    N2080   N    0.15767   0.85513   0.24768   1.000
    N2081   N    0.82433   0.63587   0.08102   1.000
    N2082   N    0.36413   0.18847   0.08102   1.000
    N2083   N    0.81153   0.17567   0.08102   1.000
    N2084   N    0.30253   0.15767   0.75232   1.000
    N2085   N    0.85513   0.69747   0.75232   1.000
    N2086   N    0.84233   0.14487   0.75232   1.000
    N2087   N    0.84233   0.69747   0.25232   1.000
    N2088   N    0.30253   0.14487   0.25232   1.000
    N2089   N    0.85513   0.15767   0.25232   1.000
    N2090   N    0.36413   0.17567   0.58102   1.000
    N2091   N    0.81153   0.63587   0.58102   1.000
    N2092   N    0.82433   0.18847   0.58102   1.000
    C2093   C    0.08470   0.58490   0.41400   1.000
    C2094   C    0.41510   0.49980   0.41400   1.000
    H2095   H    0.96880   0.46250   0.09050   1.000
    H2096   H    0.49370   0.03120   0.09050   1.000
    H2097   H    0.53750   0.50630   0.09050   1.000
    H2098   H    0.53750   0.03120   0.59050   1.000
    H2099   H    0.96880   0.50630   0.59050   1.000
    H2100   H    0.49370   0.46250   0.59050   1.000
    H2101   H    0.03120   0.53750   0.90950   1.000
    H2102   H    0.50630   0.96880   0.90950   1.000
    H2103   H    0.46250   0.49370   0.90950   1.000
    H2104   H    0.12917   0.30213   0.74283   1.000
    H2105   H    0.69787   0.82703   0.74283   1.000
    H2106   H    0.17297   0.87083   0.74283   1.000
    H2107   H    0.63547   0.79583   0.42383   1.000
    H2108   H    0.16037   0.36453   0.42383   1.000
    H2109   H    0.20417   0.83963   0.42383   1.000
    H2110   H    0.20417   0.36453   0.92383   1.000
    H2111   H    0.63547   0.83963   0.92383   1.000
    H2112   H    0.16037   0.79583   0.92383   1.000
    H2113   H    0.69787   0.87083   0.24283   1.000
    H2114   H    0.17297   0.30213   0.24283   1.000
    H2115   H    0.12917   0.82703   0.24283   1.000
    H2116   H    0.79583   0.63547   0.07617   1.000
    H2117   H    0.36453   0.16037   0.07617   1.000
    H2118   H    0.83963   0.20417   0.07617   1.000
    H2119   H    0.30213   0.12917   0.75717   1.000
    H2120   H    0.82703   0.69787   0.75717   1.000
    H2121   H    0.87083   0.17297   0.75717   1.000
    H2122   H    0.87083   0.69787   0.25717   1.000
    H2123   H    0.30213   0.17297   0.25717   1.000
    H2124   H    0.82703   0.12917   0.25717   1.000
    H2125   H    0.36453   0.20417   0.57617   1.000
    H2126   H    0.83963   0.63547   0.57617   1.000
    H2127   H    0.79583   0.16037   0.57617   1.000
    N2128   N    0.98270   0.44450   0.45712   1.000
    N2129   N    0.55550   0.53820   0.45712   1.000
    C2130   C    0.91530   0.50020   0.08600   1.000
    C2131   C    0.58490   0.08470   0.08600   1.000
    C2132   C    0.49980   0.41510   0.08600   1.000
    C2133   C    0.49980   0.08470   0.58600   1.000
    C2134   C    0.91530   0.41510   0.58600   1.000
    C2135   C    0.58490   0.50020   0.58600   1.000
    C2136   C    0.08470   0.49980   0.91400   1.000
    C2137   C    0.41510   0.91530   0.91400   1.000
    C2138   C    0.50020   0.58490   0.91400   1.000
    C2139   C    0.16687   0.24863   0.74733   1.000
    C2140   C    0.75137   0.91823   0.74733   1.000
    C2141   C    0.08177   0.83313   0.74733   1.000
    C2142   C    0.58197   0.83353   0.41933   1.000
    C2143   C    0.25157   0.41803   0.41933   1.000
    C2144   C    0.16647   0.74843   0.41933   1.000
    C2145   C    0.16647   0.41803   0.91933   1.000
    C2146   C    0.58197   0.74843   0.91933   1.000
    C2147   C    0.25157   0.83353   0.91933   1.000
    C2148   C    0.75137   0.83313   0.24733   1.000
    C2149   C    0.08177   0.24863   0.24733   1.000
    C2150   C    0.16687   0.91823   0.24733   1.000
    C2151   C    0.83353   0.58197   0.08067   1.000
    C2152   C    0.41803   0.25157   0.08067   1.000
    C2153   C    0.74843   0.16647   0.08067   1.000
    C2154   C    0.24863   0.16687   0.75267   1.000
    C2155   C    0.91823   0.75137   0.75267   1.000
    C2156   C    0.83313   0.08177   0.75267   1.000
    C2157   C    0.83313   0.75137   0.25267   1.000
    C2158   C    0.24863   0.08177   0.25267   1.000
    C2159   C    0.91823   0.16687   0.25267   1.000
    C2160   C    0.41803   0.16647   0.58067   1.000
    C2161   C    0.74843   0.58197   0.58067   1.000
    C2162   C    0.83353   0.25157   0.58067   1.000
    H2163   H    0.98790   0.41160   0.45780   1.000
    H2164   H    0.58840   0.57630   0.45780   1.000
    N2165   N    0.01730   0.46180   0.04288   1.000
    N2166   N    0.44450   0.98270   0.04288   1.000
    N2167   N    0.53820   0.55550   0.04288   1.000
    N2168   N    0.53820   0.98270   0.54288   1.000
    N2169   N    0.01730   0.55550   0.54288   1.000
    N2170   N    0.44450   0.46180   0.54288   1.000
    N2171   N    0.98270   0.53820   0.95712   1.000
    N2172   N    0.55550   0.01730   0.95712   1.000
    N2173   N    0.46180   0.44450   0.95712   1.000
    N2174   N    0.12847   0.35063   0.79045   1.000
    N2175   N    0.64937   0.77783   0.79045   1.000
    N2176   N    0.22217   0.87153   0.79045   1.000
    N2177   N    0.68397   0.79513   0.37621   1.000
    N2178   N    0.11117   0.31603   0.37621   1.000
    N2179   N    0.20487   0.88883   0.37621   1.000
    N2180   N    0.20487   0.31603   0.87621   1.000
    N2181   N    0.68397   0.88883   0.87621   1.000
    N2182   N    0.11117   0.79513   0.87621   1.000
    N2183   N    0.64937   0.87153   0.29045   1.000
    N2184   N    0.22217   0.35063   0.29045   1.000
    N2185   N    0.12847   0.77783   0.29045   1.000
    N2186   N    0.79513   0.68397   0.12379   1.000
    N2187   N    0.31603   0.11117   0.12379   1.000
    N2188   N    0.88883   0.20487   0.12379   1.000
    N2189   N    0.35063   0.12847   0.70955   1.000
    N2190   N    0.77783   0.64937   0.70955   1.000
    N2191   N    0.87153   0.22217   0.70955   1.000
    N2192   N    0.87153   0.64937   0.20955   1.000
    N2193   N    0.35063   0.22217   0.20955   1.000
    N2194   N    0.77783   0.12847   0.20955   1.000
    N2195   N    0.31603   0.20487   0.62379   1.000
    N2196   N    0.88883   0.68397   0.62379   1.000
    N2197   N    0.79513   0.11117   0.62379   1.000
    N2198   N    0.90460   0.46290   0.45210   1.000
    N2199   N    0.53710   0.44170   0.45210   1.000
    H2200   H    0.01210   0.42370   0.04220   1.000
    H2201   H    0.41160   0.98790   0.04220   1.000
    H2202   H    0.57630   0.58840   0.04220   1.000
    H2203   H    0.57630   0.98790   0.54220   1.000
    H2204   H    0.01210   0.58840   0.54220   1.000
    H2205   H    0.41160   0.42370   0.54220   1.000
    H2206   H    0.98790   0.57630   0.95780   1.000
    H2207   H    0.58840   0.01210   0.95780   1.000
    H2208   H    0.42370   0.41160   0.95780   1.000
    H2209   H    0.09037   0.34543   0.79113   1.000
    H2210   H    0.65457   0.74493   0.79113   1.000
    H2211   H    0.25507   0.90963   0.79113   1.000
    H2212   H    0.67877   0.75703   0.37553   1.000
    H2213   H    0.07827   0.32123   0.37553   1.000
    H2214   H    0.24297   0.92173   0.37553   1.000
    H2215   H    0.24297   0.32123   0.87553   1.000
    H2216   H    0.67877   0.92173   0.87553   1.000
    H2217   H    0.07827   0.75703   0.87553   1.000
    H2218   H    0.65457   0.90963   0.29113   1.000
    H2219   H    0.25507   0.34543   0.29113   1.000
    H2220   H    0.09037   0.74493   0.29113   1.000
    H2221   H    0.75703   0.67877   0.12447   1.000
    H2222   H    0.32123   0.07827   0.12447   1.000
    H2223   H    0.92173   0.24297   0.12447   1.000
    H2224   H    0.34543   0.09037   0.70887   1.000
    H2225   H    0.74493   0.65457   0.70887   1.000
    H2226   H    0.90963   0.25507   0.70887   1.000
    H2227   H    0.90963   0.65457   0.20887   1.000
    H2228   H    0.34543   0.25507   0.20887   1.000
    H2229   H    0.74493   0.09037   0.20887   1.000
    H2230   H    0.32123   0.24297   0.62447   1.000
    H2231   H    0.92173   0.67877   0.62447   1.000
    H2232   H    0.75703   0.07827   0.62447   1.000
    H2233   H    0.88170   0.47930   0.45450   1.000
    H2234   H    0.52070   0.40240   0.45450   1.000
    N2235   N    0.09540   0.55830   0.04790   1.000
    N2236   N    0.46290   0.90460   0.04790   1.000
    N2237   N    0.44170   0.53710   0.04790   1.000
    N2238   N    0.44170   0.90460   0.54790   1.000
    N2239   N    0.09540   0.53710   0.54790   1.000
    N2240   N    0.46290   0.55830   0.54790   1.000
    N2241   N    0.90460   0.44170   0.95210   1.000
    N2242   N    0.53710   0.09540   0.95210   1.000
    N2243   N    0.55830   0.46290   0.95210   1.000
    N2244   N    0.22497   0.42873   0.78543   1.000
    N2245   N    0.57127   0.79623   0.78543   1.000
    N2246   N    0.20377   0.77503   0.78543   1.000
    N2247   N    0.76207   0.89163   0.38123   1.000
    N2248   N    0.12957   0.23793   0.38123   1.000
    N2249   N    0.10837   0.87043   0.38123   1.000
    N2250   N    0.10837   0.23793   0.88123   1.000
    N2251   N    0.76207   0.87043   0.88123   1.000
    N2252   N    0.12957   0.89163   0.88123   1.000
    N2253   N    0.57127   0.77503   0.28543   1.000
    N2254   N    0.20377   0.42873   0.28543   1.000
    N2255   N    0.22497   0.79623   0.28543   1.000
    N2256   N    0.89163   0.76207   0.11877   1.000
    N2257   N    0.23793   0.12957   0.11877   1.000
    N2258   N    0.87043   0.10837   0.11877   1.000
    N2259   N    0.42873   0.22497   0.71457   1.000
    N2260   N    0.79623   0.57127   0.71457   1.000
    N2261   N    0.77503   0.20377   0.71457   1.000
    N2262   N    0.77503   0.57127   0.21457   1.000
    N2263   N    0.42873   0.20377   0.21457   1.000
    N2264   N    0.79623   0.22497   0.21457   1.000
    N2265   N    0.23793   0.10837   0.61877   1.000
    N2266   N    0.87043   0.76207   0.61877   1.000
    N2267   N    0.89163   0.12957   0.61877   1.000
    C2268   C    0.92270   0.43690   0.46210   1.000
    C2269   C    0.56310   0.48580   0.46210   1.000
    H2270   H    0.11830   0.59760   0.04550   1.000
    H2271   H    0.47930   0.88170   0.04550   1.000
    H2272   H    0.40240   0.52070   0.04550   1.000
    H2273   H    0.40240   0.88170   0.54550   1.000
    H2274   H    0.11830   0.52070   0.54550   1.000
    H2275   H    0.47930   0.59760   0.54550   1.000
    H2276   H    0.88170   0.40240   0.95450   1.000
    H2277   H    0.52070   0.11830   0.95450   1.000
    H2278   H    0.59760   0.47930   0.95450   1.000
    H2279   H    0.26427   0.45163   0.78783   1.000
    H2280   H    0.54837   0.81263   0.78783   1.000
    H2281   H    0.18737   0.73573   0.78783   1.000
    H2282   H    0.78497   0.93093   0.37883   1.000
    H2283   H    0.14597   0.21503   0.37883   1.000
    H2284   H    0.06907   0.85403   0.37883   1.000
    H2285   H    0.06907   0.21503   0.87883   1.000
    H2286   H    0.78497   0.85403   0.87883   1.000
    H2287   H    0.14597   0.93093   0.87883   1.000
    H2288   H    0.54837   0.73573   0.28783   1.000
    H2289   H    0.18737   0.45163   0.28783   1.000
    H2290   H    0.26427   0.81263   0.28783   1.000
    H2291   H    0.93093   0.78497   0.12117   1.000
    H2292   H    0.21503   0.14597   0.12117   1.000
    H2293   H    0.85403   0.06907   0.12117   1.000
    H2294   H    0.45163   0.26427   0.71217   1.000
    H2295   H    0.81263   0.54837   0.71217   1.000
    H2296   H    0.73573   0.18737   0.71217   1.000
    H2297   H    0.73573   0.54837   0.21217   1.000
    H2298   H    0.45163   0.18737   0.21217   1.000
    H2299   H    0.81263   0.26427   0.21217   1.000
    H2300   H    0.21503   0.06907   0.62117   1.000
    H2301   H    0.85403   0.78497   0.62117   1.000
    H2302   H    0.93093   0.14597   0.62117   1.000
    C2303   C    0.07730   0.51420   0.03790   1.000
    C2304   C    0.43690   0.92270   0.03790   1.000
    C2305   C    0.48580   0.56310   0.03790   1.000
    C2306   C    0.48580   0.92270   0.53790   1.000
    C2307   C    0.07730   0.56310   0.53790   1.000
    C2308   C    0.43690   0.51420   0.53790   1.000
    C2309   C    0.92270   0.48580   0.96210   1.000
    C2310   C    0.56310   0.07730   0.96210   1.000
    C2311   C    0.51420   0.43690   0.96210   1.000
    C2312   C    0.18087   0.41063   0.79543   1.000
    C2313   C    0.58937   0.77023   0.79543   1.000
    C2314   C    0.22977   0.81913   0.79543   1.000
    C2315   C    0.74397   0.84753   0.37123   1.000
    C2316   C    0.10357   0.25603   0.37123   1.000
    C2317   C    0.15247   0.89643   0.37123   1.000
    C2318   C    0.15247   0.25603   0.87123   1.000
    C2319   C    0.74397   0.89643   0.87123   1.000
    C2320   C    0.10357   0.84753   0.87123   1.000
    C2321   C    0.58937   0.81913   0.29543   1.000
    C2322   C    0.22977   0.41063   0.29543   1.000
    C2323   C    0.18087   0.77023   0.29543   1.000
    C2324   C    0.84753   0.74397   0.12877   1.000
    C2325   C    0.25603   0.10357   0.12877   1.000
    C2326   C    0.89643   0.15247   0.12877   1.000
    C2327   C    0.41063   0.18087   0.70457   1.000
    C2328   C    0.77023   0.58937   0.70457   1.000
    C2329   C    0.81913   0.22977   0.70457   1.000
    C2330   C    0.81913   0.58937   0.20457   1.000
    C2331   C    0.41063   0.22977   0.20457   1.000
    C2332   C    0.77023   0.18087   0.20457   1.000
    C2333   C    0.25603   0.15247   0.62877   1.000
    C2334   C    0.89643   0.74397   0.62877   1.000
    C2335   C    0.84753   0.10357   0.62877   1.000
loop_
    _geom_bond_atom_site_label_1
    _geom_bond_atom_site_label_2
    _geom_bond_distance
    _geom_bond_site_symmetry_2
    _ccdc_geom_bond_type
    C1238  C1203     1.41245      .   S
    C1238  C1308     1.28209      .   S
    C1238  H1273     0.95170  1_554   S
    C1237  C1202     1.41245      .   S
    C1237  C1307     1.28209      .   S
    C1237  H1272     0.95170  1_554   S
    C1236  C1201     1.41245      .   S
    C1236  C1306     1.28209      .   S
    C1236  H1271     0.95170  1_554   S
    C1201  C1131     1.43713      .   S
    C1201  C1376     1.53367  1_554   S
    C1203  C1133     1.43713      .   S
    C1203  C1378     1.53367  1_554   S
    C1202  C1132     1.43713      .   S
    C1202  C1377     1.53367  1_554   S
    H1265  C1230     0.95170  1_554   S
    H1266  C1231     0.95170  1_554   S
    H1267  C1232     0.95170  1_554   S
    C1370  O216      1.16042      .   S
    C1370  O251      1.51592      .   S
    C1370  C1195     1.53367  1_554   S
    C1372  O218      1.16042      .   S
    C1372  O253      1.51592      .   S
    C1372  C1197     1.53367  1_554   S
    C1371  O217      1.16042      .   S
    C1371  O252      1.51592      .   S
    C1371  C1196     1.53367  1_554   S
    H1343  C1308     0.95056      .   S
    H1342  C1307     0.95056      .   S
    H1341  C1306     0.95056      .   S
    H1166  C1131     0.94932      .   S
    H1167  C1132     0.94932      .   S
    H1168  C1133     0.94932      .   S
    C1306  C1061     1.48748      .   S
    C1308  C1063     1.48748      .   S
    C1307  C1062     1.48748      .   S
    C1133  C1098     1.38515      .   S
    C1132  C1097     1.38515      .   S
    C1131  C1096     1.38515      .   S
    C1097  C1062     1.45249      .   S
    C1097  N585      1.47250      .   S
    C1096  C1061     1.45249      .   S
    C1096  N584      1.47250      .   S
    C1098  C1063     1.45249      .   S
    C1098  N586      1.47250      .   S
    C1062  C840      1.42151      .   S
    C1061  C839      1.42151      .   S
    C1063  C841      1.42151      .   S
    H551   N516      0.88291  1_545   S
    H550   N515      0.88291  1_655   S
    H549   N514      0.88291      .   S
    N515   C1027     1.46906      .   S
    N515   C805      1.43139      .   S
    N516   C1028     1.46906      .   S
    N516   C806      1.43139      .   S
    N514   C1026     1.46906      .   S
    N514   C804      1.43139      .   S
    N584   C1026     1.26439      .   S
    N584   H619      0.88080      .   S
    N585   C1027     1.26439      .   S
    N585   H620      0.88080      .   S
    N586   C1028     1.26439      .   S
    N586   H621      0.88080      .   S
    C840   C805      1.42467      .   S
    C840   C875      1.31172      .   S
    C841   C806      1.42467      .   S
    C841   C876      1.31172      .   S
    C839   C804      1.42467      .   S
    C839   C874      1.31172      .   S
    C1026  O187      1.13307      .   S
    C1027  O188      1.13307  1_455   S
    C1028  O189      1.13307  1_565   S
    C804   C734      1.41715      .   S
    C806   C736      1.41715      .   S
    C805   C735      1.41715      .   S
    H910   C875      0.94698      .   S
    H909   C874      0.94698      .   S
    H911   C876      0.94698      .   S
    O327   C1407     1.27106      .   S
    O326   C1406     1.27106      .   S
    O325   C1405     1.27106      .   S
    C874   C944      1.43040      .   S
    C875   C945      1.43040      .   S
    C876   C946      1.43040      .   S
    O398   C2305     1.14833      .   S
    O397   C2304     1.14833      .   S
    O396   C2303     1.14833      .   S
    C734   H769      0.95051      .   S
    C734   C690      1.37472      .   S
    C735   H770      0.95051  1_455   S
    C735   C691      1.37472      .   S
    C736   H771      0.95051  1_565   S
    C736   C692      1.37472      .   S
    H1666  C1631     0.94598      .   S
    H1667  C1632     0.94598      .   S
    H1668  C1633     0.94598      .   S
    C946   C692      1.44574      .   S
    C946   H993      0.94937      .   S
    C945   C691      1.44574      .   S
    C945   H992      0.94937      .   S
    C944   C690      1.44574      .   S
    C944   H991      0.94937      .   S
    C692   C656      1.47957      .   S
    C690   C654      1.47957      .   S
    C691   C655      1.47957      .   S
    C2305  N2167     1.49425      .   S
    C2305  N2237     1.46938      .   S
    C2304  N2166     1.49425      .   S
    C2304  N2236     1.46938      .   S
    C2303  N2165     1.49425      .   S
    C2303  N2235     1.46938      .   S
    C1407  O288      1.24881      .   S
    C1407  C1442     1.52151      .   S
    C1406  O287      1.24881      .   S
    C1406  C1441     1.52151      .   S
    C1405  O286      1.24881      .   S
    C1405  C1440     1.52151      .   S
    C1632  C1441     1.32211      .   S
    C1632  C1597     1.44525      .   S
    C1631  C1440     1.32211      .   S
    C1631  C1596     1.44525      .   S
    C1633  C1442     1.32211      .   S
    C1633  C1598     1.44525      .   S
    H2201  N2166     0.87878      .   S
    H2200  N2165     0.87878      .   S
    H2202  N2167     0.87878      .   S
    N2165  C1596     1.38928  1_455   S
    N2167  C1598     1.38928      .   S
    N2166  C1597     1.38928  1_565   S
    C654   O115      1.22516      .   S
    C654   O150      1.34273      .   S
    C655   O116      1.22516  1_455   S
    C655   O151      1.34273      .   S
    C656   O117      1.22516  1_565   S
    C656   O152      1.34273      .   S
    C1441  C1476     1.38417      .   S
    C1440  C1475     1.38417      .   S
    C1442  C1477     1.38417      .   S
    H2271  N2236     0.87926      .   S
    H2272  N2237     0.87926      .   S
    H2270  N2235     0.87926      .   S
    N2237  C1949     1.36686      .   S
    N2236  C1948     1.36686      .   S
    N2235  C1947     1.36686      .   S
    C1596  C1561     1.31386      .   S
    C1597  C1562     1.31386      .   S
    C1598  C1563     1.31386      .   S
    C1475  H1511     0.95075      .   S
    C1475  C1508     1.43854      .   S
    C1476  H1512     0.95075      .   S
    C1476  C1509     1.43854      .   S
    C1477  H1513     0.95075      .   S
    C1477  C1510     1.43854      .   S
    C1563  C1510     1.38180      .   S
    C1563  C1703     1.41515      .   S
    C1562  C1509     1.38180      .   S
    C1562  C1702     1.41515  1_545   S
    C1561  C1508     1.38180      .   S
    C1561  C1701     1.41515  1_655   S
    C1947  C1701     1.41521      .   S
    C1947  C1876     1.33862      .   S
    C1948  C1702     1.41521      .   S
    C1948  C1877     1.33862      .   S
    C1949  C1703     1.41521      .   S
    C1949  C1878     1.33862      .   S
    C1508  N1990     1.44860      .   S
    C1509  N1991     1.44860      .   S
    C1510  N1992     1.44860      .   S
    H1913  C1878     0.94802      .   S
    H1912  C1877     0.94802      .   S
    H1911  C1876     0.94802      .   S
    C1703  C1738     1.43562      .   S
    C1702  C1737     1.43562      .   S
    C1701  C1736     1.43562      .   S
    C1876  C1841     1.37475      .   S
    C1877  C1842     1.37475      .   S
    C1878  C1843     1.37475      .   S
    O460   C1977     1.19042      .   S
    O459   C1976     1.19042      .   S
    O461   C1978     1.19042      .   S
    O381   C2151     1.12166      .   S
    O382   C2152     1.12166      .   S
    O383   C2153     1.12166      .   S
    H2026  N1991     0.87778      .   S
    H2027  N1992     0.87778      .   S
    H2025  N1990     0.87778      .   S
    N1990  C2130     1.46454      .   S
    N1992  C2132     1.46454      .   S
    N1991  C2131     1.46454      .   S
    H1829  C1794     0.94808      .   S
    H1827  C1792     0.94808      .   S
    H1828  C1793     0.94808      .   S
    H2117  N2082     0.88301      .   S
    H2118  N2083     0.88301      .   S
    H2116  N2081     0.88301      .   S
    C1736  C1771     1.33681      .   S
    C1736  N2060     1.48041  1_455   S
    C1738  C1773     1.33681      .   S
    C1738  N2062     1.48041      .   S
    C1737  C1772     1.33681      .   S
    C1737  N2061     1.48041  1_565   S
    C1843  C1773     1.42566      .   S
    C1843  C968      1.55459      .   S
    C1842  C1772     1.42566      .   S
    C1842  C967      1.55459      .   S
    C1841  C1771     1.42566      .   S
    C1841  C966      1.55459      .   S
    C1978  O496      1.33972      .   S
    C1978  C1864     1.55459      .   S
    C1977  O495      1.33972      .   S
    C1977  C1863     1.55459      .   S
    C1976  O494      1.33972      .   S
    C1976  C1862     1.55459      .   S
    C2153  N2083     1.44487      .   S
    C2153  N2013     1.46454      .   S
    C2151  N2081     1.44487      .   S
    C2151  N2011     1.46454      .   S
    C2152  N2082     1.44487      .   S
    C2152  N2012     1.46454      .   S
    O475   C968      1.33972      .   S
    O474   C967      1.33972      .   S
    O473   C966      1.33972      .   S
    N2081  C1757     1.48041      .   S
    N2082  C1758     1.48041      .   S
    N2083  C1759     1.48041      .   S
    C1793  C1863     1.42566      .   S
    C1793  C1758     1.33681      .   S
    C1794  C1864     1.42566      .   S
    C1794  C1759     1.33681      .   S
    C1792  C1862     1.42566      .   S
    C1792  C1757     1.33681      .   S
    C1773  H1808     0.94808      .   S
    C1771  H1806     0.94808      .   S
    C1772  H1807     0.94808      .   S
    N2062  C2132     1.44487      .   S
    N2062  H2097     0.88301      .   S
    N2061  C2131     1.44487      .   S
    N2061  H2096     0.88301      .   S
    N2060  C2130     1.44487      .   S
    N2060  H2095     0.88301      .   S
    C2132  O362      1.12166      .   S
    C2131  O361      1.12166      .   S
    C2130  O360      1.12166      .   S
    C968   O440      1.19042      .   S
    C967   O395      1.19042      .   S
    C966   O394      1.19042      .   S
    C1862  C1897     1.37475      .   S
    C1863  C1898     1.37475      .   S
    C1864  C1899     1.37475      .   S
    C1757  C1722     1.43562      .   S
    C1759  C1724     1.43562      .   S
    C1758  C1723     1.43562      .   S
    N2013  H2048     0.87778      .   S
    N2013  C1549     1.44860      .   S
    N2012  H2047     0.87778      .   S
    N2012  C1548     1.44860      .   S
    N2011  H2046     0.87778      .   S
    N2011  C1547     1.44860      .   S
    C1897  H1932     0.94802      .   S
    C1897  C1968     1.33862      .   S
    C1898  H1933     0.94802      .   S
    C1898  C1969     1.33862      .   S
    C1899  H1934     0.94802      .   S
    C1899  C1970     1.33862      .   S
    C1724  C1970     1.41521      .   S
    C1724  C1584     1.41515      .   S
    C1723  C1969     1.41521      .   S
    C1723  C1583     1.41515      .   S
    C1722  C1968     1.41521      .   S
    C1722  C1582     1.41515      .   S
    C1548  C1583     1.38180      .   S
    C1548  C1497     1.43854      .   S
    C1549  C1584     1.38180      .   S
    C1549  C1498     1.43854      .   S
    C1547  C1582     1.38180      .   S
    C1547  C1496     1.43854      .   S
    C1970  N2258     1.36686      .   S
    C1969  N2257     1.36686      .   S
    C1968  N2256     1.36686      .   S
    H720   C1498     0.95075      .   S
    H719   C1497     0.95075      .   S
    H718   C1496     0.95075      .   S
    C1582  C1617     1.31386      .   S
    C1583  C1618     1.31386      .   S
    C1584  C1619     1.31386      .   S
    C1498  C1463     1.38417      .   S
    C1497  C1462     1.38417      .   S
    C1496  C1461     1.38417      .   S
    O174   C676      1.34273      .   S
    O175   C677      1.34273      .   S
    O173   C675      1.34273      .   S
    C1618  N2187     1.38928      .   S
    C1618  C1653     1.44525      .   S
    C1617  N2186     1.38928      .   S
    C1617  C1652     1.44525      .   S
    C1619  N2188     1.38928      .   S
    C1619  C1654     1.44525      .   S
    N2256  H2291     0.87926      .   S
    N2256  C2324     1.46938      .   S
    N2257  H2292     0.87926      .   S
    N2257  C2325     1.46938      .   S
    N2258  H2293     0.87926      .   S
    N2258  C2326     1.46938      .   S
    O138   C677      1.22516      .   S
    O136   C675      1.22516      .   S
    O137   C676      1.22516      .   S
    C1461  C1652     1.32211      .   S
    C1461  C1426     1.52151      .   S
    C1462  C1653     1.32211      .   S
    C1462  C1427     1.52151      .   S
    C1463  C1654     1.32211      .   S
    C1463  C1428     1.52151      .   S
    C677   C713      1.47957      .   S
    C676   C712      1.47957      .   S
    C675   C711      1.47957      .   S
    O106   C1428     1.24881      .   S
    O105   C1427     1.24881      .   S
    O104   C1426     1.24881      .   S
    N2188  H2223     0.87878      .   S
    N2188  C2326     1.49425      .   S
    N2186  H2221     0.87878      .   S
    N2186  C2324     1.49425      .   S
    N2187  H2222     0.87878      .   S
    N2187  C2325     1.49425      .   S
    C1654  H1689     0.94598      .   S
    C1653  H1688     0.94598      .   S
    C1652  H1687     0.94598      .   S
    C1427  O347      1.27106      .   S
    C1428  O348      1.27106      .   S
    C1426  O346      1.27106      .   S
    C2324  O417      1.14833      .   S
    C2325  O418      1.14833      .   S
    C2326  O419      1.14833      .   S
    H1014  C438      0.94937      .   S
    H1013  C437      0.94937      .   S
    H1012  C436      0.94937      .   S
    C711   C436      1.44574      .   S
    C711   C755      1.37472      .   S
    C712   C437      1.44574      .   S
    C712   C756      1.37472      .   S
    C713   C438      1.44574      .   S
    C713   C757      1.37472      .   S
    H790   C755      0.95051      .   S
    H791   C756      0.95051      .   S
    H792   C757      0.95051      .   S
    C437   C896      1.43040      .   S
    C438   C897      1.43040      .   S
    C436   C895      1.43040      .   S
    C755   C825      1.41715      .   S
    C756   C826      1.41715      .   S
    C757   C827      1.41715      .   S
    C895   H930      0.94698      .   S
    C895   C860      1.31172      .   S
    C896   H931      0.94698      .   S
    C896   C861      1.31172      .   S
    C897   H932      0.94698      .   S
    C897   C862      1.31172      .   S
    H640   N605      0.88080  1_655   S
    H642   N607      0.88080  1_545   S
    H641   N606      0.88080      .   S
    C827   C862      1.42467      .   S
    C827   N537      1.43139      .   S
    C826   C861      1.42467      .   S
    C826   N536      1.43139      .   S
    C825   C860      1.42467      .   S
    C825   N535      1.43139      .   S
    O208   C1047     1.13307  1_655   S
    O210   C1049     1.13307  1_545   S
    O209   C1048     1.13307      .   S
    C1049  N607      1.26439      .   S
    C1049  N537      1.46906      .   S
    C1048  N606      1.26439      .   S
    C1048  N536      1.46906      .   S
    C1047  N605      1.26439      .   S
    C1047  N535      1.46906      .   S
    C862   C1084     1.42151      .   S
    C861   C1083     1.42151      .   S
    C860   C1082     1.42151      .   S
    N607   C1119     1.47250      .   S
    N606   C1118     1.47250      .   S
    N605   C1117     1.47250      .   S
    N535   H570      0.88291      .   S
    N537   H572      0.88291      .   S
    N536   H571      0.88291      .   S
    C1084  C1119     1.45249      .   S
    C1084  C1329     1.48748      .   S
    C1083  C1118     1.45249      .   S
    C1083  C1328     1.48748      .   S
    C1082  C1117     1.45249      .   S
    C1082  C1327     1.48748      .   S
    C1118  C1153     1.38515      .   S
    C1117  C1152     1.38515      .   S
    C1119  C1154     1.38515      .   S
    C1152  H1187     0.94932  1_455   S
    C1152  C1222     1.43713      .   S
    C1153  H1188     0.94932      .   S
    C1153  C1223     1.43713      .   S
    C1154  H1189     0.94932  1_565   S
    C1154  C1224     1.43713      .   S
    C1328  H1363     0.95056      .   S
    C1328  C1258     1.28209      .   S
    C1329  H1364     0.95056      .   S
    C1329  C1259     1.28209      .   S
    C1327  H1362     0.95056      .   S
    C1327  C1257     1.28209      .   S
    O274   C1393     1.51592      .   S
    O273   C1392     1.51592      .   S
    O272   C1391     1.51592      .   S
    O239   C1393     1.16042      .   S
    O238   C1392     1.16042      .   S
    O237   C1391     1.16042      .   S
    C1391  C1216     1.53367      .   S
    C1392  C1217     1.53367      .   S
    C1393  C1218     1.53367      .   S
    H1288  C1253     0.95170      .   S
    H1287  C1252     0.95170      .   S
    H1286  C1251     0.95170      .   S
    C1222  C1257     1.41245      .   S
    C1222  C1397     1.53367      .   S
    C1223  C1258     1.41245      .   S
    C1223  C1398     1.53367      .   S
    C1224  C1259     1.41245      .   S
    C1224  C1399     1.53367      .   S
    C1258  H1293     0.95170      .   S
    C1259  H1294     0.95170      .   S
    C1257  H1292     0.95170      .   S
    C1252  C1217     1.41245      .   S
    C1252  C1322     1.28209      .   S
    C1253  C1218     1.41245      .   S
    C1253  C1323     1.28209      .   S
    C1251  C1216     1.41245      .   S
    C1251  C1321     1.28209      .   S
    C1218  C1148     1.43713      .   S
    C1217  C1147     1.43713      .   S
    C1216  C1146     1.43713      .   S
    C1399  O245      1.16042  1_565   S
    C1399  O280      1.51592      .   S
    C1398  O244      1.16042      .   S
    C1398  O279      1.51592      .   S
    C1397  O243      1.16042  1_455   S
    C1397  O278      1.51592      .   S
    H1358  C1323     0.95056      .   S
    H1357  C1322     0.95056      .   S
    H1356  C1321     0.95056      .   S
    H1183  C1148     0.94932      .   S
    H1182  C1147     0.94932      .   S
    H1181  C1146     0.94932      .   S
    C1323  C1078     1.48748      .   S
    C1322  C1077     1.48748      .   S
    C1321  C1076     1.48748      .   S
    C1146  C1111     1.38515      .   S
    C1147  C1112     1.38515      .   S
    C1148  C1113     1.38515      .   S
    C1113  C1078     1.45249      .   S
    C1113  N601      1.47250      .   S
    C1111  C1076     1.45249      .   S
    C1111  N599      1.47250      .   S
    C1112  C1077     1.45249      .   S
    C1112  N600      1.47250      .   S
    C1076  C854      1.42151  1_545   S
    C1077  C855      1.42151  1_655   S
    C1078  C856      1.42151      .   S
    H564   N529      0.88291      .   S
    H565   N530      0.88291      .   S
    H566   N531      0.88291      .   S
    N530   C1042     1.46906  1_455   S
    N530   C820      1.43139      .   S
    N529   C1041     1.46906  1_565   S
    N529   C819      1.43139      .   S
    N531   C1043     1.46906      .   S
    N531   C821      1.43139      .   S
    N601   C1043     1.26439      .   S
    N601   H636      0.88080      .   S
    N600   C1042     1.26439      .   S
    N600   H635      0.88080      .   S
    N599   C1041     1.26439      .   S
    N599   H634      0.88080      .   S
    C856   C821      1.42467      .   S
    C856   C891      1.31172      .   S
    C855   C820      1.42467      .   S
    C855   C890      1.31172      .   S
    C854   C819      1.42467      .   S
    C854   C889      1.31172      .   S
    C1041  O202      1.13307      .   S
    C1042  O203      1.13307      .   S
    C1043  O204      1.13307      .   S
    C820   C750      1.41715      .   S
    C819   C749      1.41715      .   S
    C821   C751      1.41715      .   S
    H926   C891      0.94698      .   S
    H925   C890      0.94698      .   S
    H924   C889      0.94698      .   S
    O354   C1434     1.27106      .   S
    O352   C1432     1.27106      .   S
    O353   C1433     1.27106      .   S
    C889   C430      1.43040      .   S
    C890   C431      1.43040      .   S
    C891   C432      1.43040      .   S
    O423   C2330     1.14833      .   S
    O424   C2331     1.14833      .   S
    O425   C2332     1.14833      .   S
    C749   H784      0.95051      .   S
    C749   C705      1.37472      .   S
    C751   H786      0.95051      .   S
    C751   C707      1.37472      .   S
    C750   H785      0.95051      .   S
    C750   C706      1.37472      .   S
    H1693  C1658     0.94598      .   S
    H1694  C1659     0.94598      .   S
    H1695  C1660     0.94598      .   S
    C431   C706      1.44574      .   S
    C431   H1007     0.94937      .   S
    C430   C705      1.44574      .   S
    C430   H1006     0.94937      .   S
    C432   C707      1.44574      .   S
    C432   H1008     0.94937      .   S
    C707   C671      1.47957      .   S
    C705   C669      1.47957      .   S
    C706   C670      1.47957      .   S
    C2332  N2194     1.49425      .   S
    C2332  N2264     1.46938      .   S
    C2331  N2193     1.49425      .   S
    C2331  N2263     1.46938      .   S
    C2330  N2192     1.49425      .   S
    C2330  N2262     1.46938      .   S
    C1433  O318      1.24881      .   S
    C1433  C1468     1.52151      .   S
    C1434  O319      1.24881      .   S
    C1434  C1469     1.52151      .   S
    C1432  O317      1.24881      .   S
    C1432  C1467     1.52151      .   S
    C1658  C1467     1.32211      .   S
    C1658  C1623     1.44525      .   S
    C1659  C1468     1.32211      .   S
    C1659  C1624     1.44525      .   S
    C1660  C1469     1.32211      .   S
    C1660  C1625     1.44525      .   S
    H2229  N2194     0.87878      .   S
    H2228  N2193     0.87878      .   S
    H2227  N2192     0.87878      .   S
    N2194  C1625     1.38928      .   S
    N2193  C1624     1.38928      .   S
    N2192  C1623     1.38928      .   S
    C670   O131      1.22516      .   S
    C670   O71       1.34273      .   S
    C671   O132      1.22516      .   S
    C671   O169      1.34273      .   S
    C669   O130      1.22516      .   S
    C669   O70       1.34273      .   S
    C1467  C1502     1.38417      .   S
    C1469  C1504     1.38417      .   S
    C1468  C1503     1.38417      .   S
    H2298  N2263     0.87926      .   S
    H2297  N2262     0.87926      .   S
    H2299  N2264     0.87926      .   S
    N2264  C958      1.36686      .   S
    N2262  C956      1.36686      .   S
    N2263  C957      1.36686      .   S
    C1625  C1590     1.31386      .   S
    C1624  C1589     1.31386      .   S
    C1623  C1588     1.31386      .   S
    C1502  H724      0.95075      .   S
    C1502  C1553     1.43854      .   S
    C1504  H726      0.95075      .   S
    C1504  C1555     1.43854      .   S
    C1503  H725      0.95075      .   S
    C1503  C1554     1.43854      .   S
    C1590  C1555     1.38180      .   S
    C1590  C1730     1.41515      .   S
    C1588  C1553     1.38180      .   S
    C1588  C1728     1.41515      .   S
    C1589  C1554     1.38180      .   S
    C1589  C1729     1.41515      .   S
    C957   C1729     1.41521      .   S
    C957   C1904     1.33862      .   S
    C956   C1728     1.41521      .   S
    C956   C1903     1.33862      .   S
    C958   C1730     1.41521      .   S
    C958   C1905     1.33862      .   S
    C1554  N2018     1.44860      .   S
    C1553  N2017     1.44860      .   S
    C1555  N2019     1.44860      .   S
    H1938  C1903     0.94802      .   S
    H1939  C1904     0.94802      .   S
    H1940  C1905     0.94802      .   S
    C1729  C1764     1.43562      .   S
    C1730  C1765     1.43562      .   S
    C1728  C1763     1.43562      .   S
    C1905  C1870     1.37475      .   S
    C1904  C1869     1.37475      .   S
    C1903  C1868     1.37475      .   S
    O458   C1975     1.19042      .   S
    O457   C1974     1.19042      .   S
    O456   C1973     1.19042      .   S
    O380   C2150     1.12166      .   S
    O379   C2149     1.12166      .   S
    O378   C2148     1.12166      .   S
    H2054  N2019     0.87778      .   S
    H2053  N2018     0.87778      .   S
    H2052  N2017     0.87778      .   S
    N2018  C2158     1.46454      .   S
    N2017  C2157     1.46454      .   S
    N2019  C2159     1.46454      .   S
    H1826  C1791     0.94808      .   S
    H1825  C1790     0.94808      .   S
    H1824  C1789     0.94808      .   S
    H2115  N2080     0.88301      .   S
    H2114  N2079     0.88301      .   S
    H2113  N2078     0.88301      .   S
    C1765  C1800     1.33681      .   S
    C1765  N2089     1.48041      .   S
    C1763  C1798     1.33681      .   S
    C1763  N2087     1.48041      .   S
    C1764  C1799     1.33681      .   S
    C1764  N2088     1.48041      .   S
    C1869  C1799     1.42566      .   S
    C1869  C1983     1.55459      .   S
    C1870  C1800     1.42566      .   S
    C1870  C1984     1.55459      .   S
    C1868  C1798     1.42566      .   S
    C1868  C1982     1.55459      .   S
    C1975  O493      1.33972      .   S
    C1975  C1861     1.55459      .   S
    C1974  O492      1.33972      .   S
    C1974  C1860     1.55459      .   S
    C1973  O491      1.33972      .   S
    C1973  C1859     1.55459      .   S
    C2150  N2080     1.44487      .   S
    C2150  N2010     1.46454      .   S
    C2149  N2079     1.44487      .   S
    C2149  N2009     1.46454      .   S
    C2148  N2078     1.44487      .   S
    C2148  N2008     1.46454      .   S
    O500   C1982     1.33972      .   S
    O501   C1983     1.33972      .   S
    O502   C1984     1.33972      .   S
    N2079  C1755     1.48041      .   S
    N2080  C1756     1.48041      .   S
    N2078  C1754     1.48041      .   S
    C1789  C1859     1.42566      .   S
    C1789  C1754     1.33681      .   S
    C1791  C1861     1.42566      .   S
    C1791  C1756     1.33681      .   S
    C1790  C1860     1.42566      .   S
    C1790  C1755     1.33681      .   S
    C1798  H1833     0.94808      .   S
    C1800  H1835     0.94808      .   S
    C1799  H1834     0.94808      .   S
    N2087  C2157     1.44487      .   S
    N2087  H2122     0.88301      .   S
    N2088  C2158     1.44487      .   S
    N2088  H2123     0.88301      .   S
    N2089  C2159     1.44487      .   S
    N2089  H2124     0.88301      .   S
    C2159  O389      1.12166      .   S
    C2157  O387      1.12166      .   S
    C2158  O388      1.12166      .   S
    C1982  O465      1.19042      .   S
    C1983  O466      1.19042      .   S
    C1984  O467      1.19042      .   S
    C1859  C1894     1.37475      .   S
    C1861  C1896     1.37475      .   S
    C1860  C1895     1.37475      .   S
    C1756  C1721     1.43562      .   S
    C1755  C1720     1.43562      .   S
    C1754  C1719     1.43562      .   S
    N2009  H2044     0.87778      .   S
    N2009  C1545     1.44860      .   S
    N2008  H2043     0.87778      .   S
    N2008  C1544     1.44860      .   S
    N2010  H2045     0.87778      .   S
    N2010  C1546     1.44860      .   S
    C1894  H1929     0.94802      .   S
    C1894  C1965     1.33862      .   S
    C1895  H1930     0.94802      .   S
    C1895  C1966     1.33862      .   S
    C1896  H1931     0.94802      .   S
    C1896  C1967     1.33862      .   S
    C1720  C1966     1.41521      .   S
    C1720  C1580     1.41515      .   S
    C1719  C1965     1.41521      .   S
    C1719  C1579     1.41515      .   S
    C1721  C1967     1.41521      .   S
    C1721  C1581     1.41515      .   S
    C1545  C1580     1.38180      .   S
    C1545  C1494     1.43854      .   S
    C1546  C1581     1.38180      .   S
    C1546  C1495     1.43854      .   S
    C1544  C1579     1.38180      .   S
    C1544  C1493     1.43854      .   S
    C1966  N2254     1.36686      .   S
    C1965  N2253     1.36686      .   S
    C1967  N2255     1.36686      .   S
    H717   C1495     0.95075      .   S
    H715   C1493     0.95075      .   S
    H716   C1494     0.95075      .   S
    C1580  C1615     1.31386      .   S
    C1579  C1614     1.31386      .   S
    C1581  C1616     1.31386      .   S
    C1493  C1458     1.38417      .   S
    C1494  C1459     1.38417      .   S
    C1495  C1460     1.38417      .   S
    O156   C660      1.34273      .   S
    O157   C661      1.34273      .   S
    O158   C662      1.34273      .   S
    C1616  N2185     1.38928      .   S
    C1616  C1651     1.44525      .   S
    C1615  N2184     1.38928      .   S
    C1615  C1650     1.44525      .   S
    C1614  N2183     1.38928      .   S
    C1614  C1649     1.44525      .   S
    N2253  H2288     0.87926      .   S
    N2253  C2321     1.46938      .   S
    N2255  H2290     0.87926      .   S
    N2255  C2323     1.46938      .   S
    N2254  H2289     0.87926      .   S
    N2254  C2322     1.46938      .   S
    O121   C660      1.22516      .   S
    O122   C661      1.22516      .   S
    O123   C662      1.22516      .   S
    C1460  C1651     1.32211      .   S
    C1460  C1425     1.52151      .   S
    C1458  C1649     1.32211      .   S
    C1458  C1423     1.52151      .   S
    C1459  C1650     1.32211      .   S
    C1459  C1424     1.52151      .   S
    C661   C697      1.47957      .   S
    C662   C698      1.47957      .   S
    C660   C696      1.47957      .   S
    O304   C1423     1.24881      .   S
    O305   C1424     1.24881      .   S
    O103   C1425     1.24881      .   S
    N2183  H2218     0.87878      .   S
    N2183  C2321     1.49425      .   S
    N2184  H2219     0.87878      .   S
    N2184  C2322     1.49425      .   S
    N2185  H2220     0.87878      .   S
    N2185  C2323     1.49425      .   S
    C1651  H1686     0.94598      .   S
    C1650  H1685     0.94598      .   S
    C1649  H1684     0.94598      .   S
    C1424  O344      1.27106      .   S
    C1423  O343      1.27106      .   S
    C1425  O345      1.27106      .   S
    C2321  O414      1.14833      .   S
    C2323  O416      1.14833      .   S
    C2322  O415      1.14833      .   S
    H997   C950      0.94937      .   S
    H998   C951      0.94937      .   S
    H999   C952      0.94937      .   S
    C698   C952      1.44574      .   S
    C698   C742      1.37472      .   S
    C697   C951      1.44574      .   S
    C697   C741      1.37472      .   S
    C696   C950      1.44574      .   S
    C696   C740      1.37472      .   S
    C951   C881      1.43040      .   S
    C950   C880      1.43040      .   S
    C952   C882      1.43040      .   S
    H777   C742      0.95051      .   S
    H776   C741      0.95051      .   S
    H775   C740      0.95051      .   S
    C742   C812      1.41715      .   S
    C741   C811      1.41715      .   S
    C740   C810      1.41715      .   S
    C882   H917      0.94698      .   S
    C882   C847      1.31172      .   S
    C881   H916      0.94698      .   S
    C881   C846      1.31172      .   S
    C880   H915      0.94698      .   S
    C880   C845      1.31172      .   S
    H627   N592      0.88080      .   S
    H625   N590      0.88080      .   S
    H626   N591      0.88080      .   S
    C810   C845      1.42467      .   S
    C810   N520      1.43139      .   S
    C811   C846      1.42467      .   S
    C811   N521      1.43139      .   S
    C812   C847      1.42467      .   S
    C812   N522      1.43139      .   S
    O193   C1032     1.13307      .   S
    O195   C1034     1.13307      .   S
    O194   C1033     1.13307      .   S
    C1034  N592      1.26439      .   S
    C1034  N522      1.46906      .   S
    C1033  N591      1.26439      .   S
    C1033  N521      1.46906  1_565   S
    C1032  N590      1.26439      .   S
    C1032  N520      1.46906  1_455   S
    C846   C1068     1.42151  1_545   S
    C845   C1067     1.42151  1_655   S
    C847   C1069     1.42151      .   S
    N592   C1104     1.47250      .   S
    N591   C1103     1.47250      .   S
    N590   C1102     1.47250      .   S
    N520   H555      0.88291      .   S
    N521   H556      0.88291      .   S
    N522   H557      0.88291      .   S
    C1067  C1102     1.45249      .   S
    C1067  C1312     1.48748      .   S
    C1068  C1103     1.45249      .   S
    C1068  C1313     1.48748      .   S
    C1069  C1104     1.45249      .   S
    C1069  C1314     1.48748      .   S
    C1104  C1139     1.38515      .   S
    C1103  C1138     1.38515      .   S
    C1102  C1137     1.38515      .   S
    C1138  H1173     0.94932      .   S
    C1138  C1208     1.43713      .   S
    C1139  H1174     0.94932      .   S
    C1139  C1209     1.43713      .   S
    C1137  H1172     0.94932      .   S
    C1137  C1207     1.43713      .   S
    C1314  H1349     0.95056      .   S
    C1314  C1244     1.28209      .   S
    C1313  H1348     0.95056      .   S
    C1313  C1243     1.28209      .   S
    C1312  H1347     0.95056      .   S
    C1312  C1242     1.28209      .   S
    O269   C1388     1.51592      .   S
    O270   C1389     1.51592      .   S
    O271   C1390     1.51592      .   S
    O234   C1388     1.16042  1_565   S
    O235   C1389     1.16042      .   S
    O236   C1390     1.16042  1_455   S
    C1390  C1215     1.53367      .   S
    C1389  C1214     1.53367      .   S
    C1388  C1213     1.53367      .   S
    H1283  C1248     0.95170      .   S
    H1284  C1249     0.95170      .   S
    H1285  C1250     0.95170      .   S
    C1207  C1242     1.41245      .   S
    C1207  C1382     1.53367      .   S
    C1208  C1243     1.41245      .   S
    C1208  C1383     1.53367      .   S
    C1209  C1244     1.41245      .   S
    C1209  C1384     1.53367      .   S
    C1242  H1277     0.95170      .   S
    C1243  H1278     0.95170      .   S
    C1244  H1279     0.95170      .   S
    C1249  C1214     1.41245      .   S
    C1249  C1319     1.28209      .   S
    C1248  C1213     1.41245      .   S
    C1248  C1318     1.28209      .   S
    C1250  C1215     1.41245      .   S
    C1250  C1320     1.28209      .   S
    C1215  C1145     1.43713      .   S
    C1213  C1143     1.43713      .   S
    C1214  C1144     1.43713      .   S
    C1383  O229      1.16042      .   S
    C1383  O264      1.51592      .   S
    C1382  O228      1.16042      .   S
    C1382  O263      1.51592      .   S
    C1384  O230      1.16042      .   S
    C1384  O265      1.51592      .   S
    H1353  C1318     0.95056      .   S
    H1355  C1320     0.95056      .   S
    H1354  C1319     0.95056      .   S
    H1178  C1143     0.94932  1_565   S
    H1179  C1144     0.94932      .   S
    H1180  C1145     0.94932  1_455   S
    C1318  C1073     1.48748      .   S
    C1319  C1074     1.48748      .   S
    C1320  C1075     1.48748      .   S
    C1144  C1109     1.38515      .   S
    C1145  C1110     1.38515      .   S
    C1143  C1108     1.38515      .   S
    C1110  C1075     1.45249      .   S
    C1110  N598      1.47250      .   S
    C1109  C1074     1.45249      .   S
    C1109  N597      1.47250      .   S
    C1108  C1073     1.45249      .   S
    C1108  N596      1.47250      .   S
    C1073  C851      1.42151      .   S
    C1074  C852      1.42151      .   S
    C1075  C853      1.42151      .   S
    H562   N527      0.88291      .   S
    H561   N526      0.88291      .   S
    H563   N528      0.88291      .   S
    N527   C1039     1.46906      .   S
    N527   C817      1.43139      .   S
    N528   C1040     1.46906      .   S
    N528   C818      1.43139      .   S
    N526   C1038     1.46906      .   S
    N526   C816      1.43139      .   S
    N597   C1039     1.26439      .   S
    N597   H632      0.88080      .   S
    N596   C1038     1.26439      .   S
    N596   H631      0.88080  1_545   S
    N598   C1040     1.26439      .   S
    N598   H633      0.88080  1_655   S
    C852   C817      1.42467      .   S
    C852   C887      1.31172      .   S
    C851   C816      1.42467      .   S
    C851   C886      1.31172      .   S
    C853   C818      1.42467      .   S
    C853   C888      1.31172      .   S
    C1040  O201      1.13307  1_655   S
    C1038  O199      1.13307  1_545   S
    C1039  O200      1.13307      .   S
    C818   C748      1.41715      .   S
    C817   C747      1.41715      .   S
    C816   C746      1.41715      .   S
    H921   C886      0.94698      .   S
    H923   C888      0.94698      .   S
    H922   C887      0.94698      .   S
    O339   C1419     1.27106      .   S
    O338   C1418     1.27106      .   S
    O337   C1417     1.27106      .   S
    C886   C427      1.43040      .   S
    C888   C429      1.43040      .   S
    C887   C428      1.43040      .   S
    O410   C2317     1.14833      .   S
    O409   C2316     1.14833      .   S
    O408   C2315     1.14833      .   S
    C748   H783      0.95051      .   S
    C748   C704      1.37472      .   S
    C747   H782      0.95051      .   S
    C747   C703      1.37472      .   S
    C746   H781      0.95051      .   S
    C746   C702      1.37472      .   S
    H1679  C1644     0.94598      .   S
    H1678  C1643     0.94598      .   S
    H1680  C1645     0.94598      .   S
    C429   C704      1.44574      .   S
    C429   H1005     0.94937      .   S
    C428   C703      1.44574      .   S
    C428   H1004     0.94937      .   S
    C427   C702      1.44574      .   S
    C427   H1003     0.94937      .   S
    C703   C667      1.47957      .   S
    C704   C668      1.47957      .   S
    C702   C666      1.47957      .   S
    C2316  N2178     1.49425      .   S
    C2316  N2248     1.46938      .   S
    C2317  N2179     1.49425      .   S
    C2317  N2249     1.46938      .   S
    C2315  N2177     1.49425      .   S
    C2315  N2247     1.46938      .   S
    C1417  O298      1.24881      .   S
    C1417  C1452     1.52151      .   S
    C1418  O299      1.24881      .   S
    C1418  C1453     1.52151      .   S
    C1419  O300      1.24881      .   S
    C1419  C1454     1.52151      .   S
    C1643  C1452     1.32211      .   S
    C1643  C1608     1.44525      .   S
    C1645  C1454     1.32211      .   S
    C1645  C1610     1.44525      .   S
    C1644  C1453     1.32211      .   S
    C1644  C1609     1.44525      .   S
    H2212  N2177     0.87878      .   S
    H2213  N2178     0.87878      .   S
    H2214  N2179     0.87878      .   S
    N2179  C1610     1.38928      .   S
    N2178  C1609     1.38928      .   S
    N2177  C1608     1.38928      .   S
    C666   O127      1.22516      .   S
    C666   O162      1.34273      .   S
    C668   O129      1.22516      .   S
    C668   O69       1.34273      .   S
    C667   O128      1.22516      .   S
    C667   O68       1.34273      .   S
    C1454  C1489     1.38417      .   S
    C1453  C1488     1.38417      .   S
    C1452  C1487     1.38417      .   S
    H2283  N2248     0.87926      .   S
    H2284  N2249     0.87926      .   S
    H2282  N2247     0.87926      .   S
    N2248  C1960     1.36686      .   S
    N2249  C1961     1.36686      .   S
    N2247  C1959     1.36686      .   S
    C1609  C1574     1.31386      .   S
    C1608  C1573     1.31386      .   S
    C1610  C1575     1.31386      .   S
    C1488  H1524     0.95075      .   S
    C1488  C1539     1.43854      .   S
    C1487  H1523     0.95075      .   S
    C1487  C1538     1.43854      .   S
    C1489  H1525     0.95075      .   S
    C1489  C1540     1.43854      .   S
    C1574  C1539     1.38180      .   S
    C1574  C1714     1.41515      .   S
    C1573  C1538     1.38180      .   S
    C1573  C1713     1.41515      .   S
    C1575  C1540     1.38180      .   S
    C1575  C1715     1.41515      .   S
    C1960  C1714     1.41521      .   S
    C1960  C1889     1.33862      .   S
    C1959  C1713     1.41521      .   S
    C1959  C1888     1.33862      .   S
    C1961  C1715     1.41521      .   S
    C1961  C1890     1.33862      .   S
    C1540  N2004     1.44860      .   S
    C1539  N2003     1.44860      .   S
    C1538  N2002     1.44860      .   S
    H1925  C1890     0.94802      .   S
    H1924  C1889     0.94802      .   S
    H1923  C1888     0.94802      .   S
    C1715  C1750     1.43562      .   S
    C1714  C1749     1.43562      .   S
    C1713  C1748     1.43562      .   S
    C1888  C1853     1.37475      .   S
    C1890  C1855     1.37475      .   S
    C1889  C1854     1.37475      .   S
    O14    C56       1.19042      .   S
    O393   C965      1.19042      .   S
    O168   C964      1.19042      .   S
    O12    C29       1.12166      .   S
    O323   C2093     1.12166      .   S
    O324   C2094     1.12166      .   S
    H2039  N2004     0.87778      .   S
    H2037  N2002     0.87778      .   S
    H2038  N2003     0.87778      .   S
    N2002  C2142     1.46454      .   S
    N2003  C2143     1.46454      .   S
    N2004  C2144     1.46454      .   S
    H51    C50       0.94808      .   S
    H1770  C1735     0.94808      .   S
    H1769  C1734     0.94808      .   S
    H2059  N2024     0.88301      .   S
    H60    N59       0.88301      .   S
    H2058  N2023     0.88301      .   S
    C1750  C1785     1.33681      .   S
    C1750  N2074     1.48041      .   S
    C1748  C1783     1.33681      .   S
    C1748  N2072     1.48041      .   S
    C1749  C1784     1.33681      .   S
    C1749  N2073     1.48041      .   S
    C1855  C1785     1.42566      .   S
    C1855  C980      1.55459      .   S
    C1853  C1783     1.42566      .   S
    C1853  C978      1.55459      .   S
    C1854  C1784     1.42566      .   S
    C1854  C979      1.55459      .   S
    C56    O15       1.33972      .   S
    C56    C52       1.55459      .   S
    C964   O166      1.33972      .   S
    C964   C1804     1.55459      .   S
    C965   O167      1.33972      .   S
    C965   C1805     1.55459      .   S
    C29    N59       1.44487      .   S
    C29    N57       1.46454      .   S
    C2093  N2023     1.44487      .   S
    C2093  N962      1.46454      .   S
    C2094  N2024     1.44487      .   S
    C2094  N963      1.46454      .   S
    O487   C980      1.33972      .   S
    O486   C979      1.33972      .   S
    O485   C978      1.33972      .   S
    N2024  C1700     1.48041      .   S
    N2023  C1699     1.48041  1_455   S
    N59    C49       1.48041  1_565   S
    C50    C52       1.42566      .   S
    C50    C49       1.33681      .   S
    C1734  C1804     1.42566      .   S
    C1734  C1699     1.33681      .   S
    C1735  C1805     1.42566      .   S
    C1735  C1700     1.33681      .   S
    C1783  H1818     0.94808      .   S
    C1784  H1819     0.94808      .   S
    C1785  H1820     0.94808      .   S
    N2072  C2142     1.44487      .   S
    N2072  H2107     0.88301      .   S
    N2073  C2143     1.44487      .   S
    N2073  H2108     0.88301      .   S
    N2074  C2144     1.44487      .   S
    N2074  H2109     0.88301      .   S
    C2144  O374      1.12166      .   S
    C2143  O373      1.12166      .   S
    C2142  O372      1.12166      .   S
    C980   O452      1.19042      .   S
    C979   O451      1.19042      .   S
    C978   O450      1.19042      .   S
    C52    C53       1.37475      .   S
    C1805  C1840     1.37475      .   S
    C1804  C1839     1.37475      .   S
    C49    C48       1.43562      .   S
    C1699  C1664     1.43562      .   S
    C1700  C1665     1.43562      .   S
    N962   H1988     0.87778      .   S
    N962   C732      1.44860      .   S
    N963   H1989     0.87778      .   S
    N963   C733      1.44860      .   S
    N57    H58       0.87778      .   S
    N57    C43       1.44860      .   S
    C1840  H1875     0.94802      .   S
    C1840  C1910     1.33862      .   S
    C1839  H1874     0.94802      .   S
    C1839  C1909     1.33862      .   S
    C53    H54       0.94802      .   S
    C53    C55       1.33862      .   S
    C1664  C1909     1.41521      .   S
    C1664  C730      1.41515  1_655   S
    C1665  C1910     1.41521      .   S
    C1665  C731      1.41515      .   S
    C48    C55       1.41521      .   S
    C48    C44       1.41515  1_545   S
    C43    C44       1.38180      .   S
    C43    C41       1.43854      .   S
    C732   C730      1.38180      .   S
    C732   C1438     1.43854      .   S
    C733   C731      1.38180      .   S
    C733   C1439     1.43854      .   S
    C1910  N2199     1.36686      .   S
    C55    N63       1.36686      .   S
    C1909  N2198     1.36686      .   S
    H42    C41       0.95075      .   S
    H1474  C1439     0.95075      .   S
    H1473  C1438     0.95075      .   S
    C730   C1559     1.31386      .   S
    C44    C45       1.31386      .   S
    C731   C1560     1.31386      .   S
    C1438  C1403     1.38417      .   S
    C1439  C1404     1.38417      .   S
    C41    C40       1.38417      .   S
    O149   C653      1.34273      .   S
    O148   C652      1.34273      .   S
    O147   C651      1.34273      .   S
    C1559  N2128     1.38928  1_455   S
    C1559  C1594     1.44525      .   S
    C1560  N2129     1.38928      .   S
    C1560  C1595     1.44525      .   S
    C45    N61       1.38928  1_565   S
    C45    C46       1.44525      .   S
    N2198  H2233     0.87926      .   S
    N2198  C2268     1.46938      .   S
    N2199  H2234     0.87926      .   S
    N2199  C2269     1.46938      .   S
    N63    H64       0.87926      .   S
    N63    C65       1.46938      .   S
    O113   C652      1.22516  1_565   S
    O114   C653      1.22516  1_455   S
    O112   C651      1.22516      .   S
    C1404  C1595     1.32211      .   S
    C1404  C1369     1.52151      .   S
    C40    C46       1.32211      .   S
    C40    C39       1.52151      .   S
    C1403  C1594     1.32211      .   S
    C1403  C1368     1.52151      .   S
    C651   C687      1.47957      .   S
    C653   C689      1.47957      .   S
    C652   C688      1.47957      .   S
    O250   C1369     1.24881      .   S
    O10    C39       1.24881      .   S
    O249   C1368     1.24881      .   S
    N61    H62       0.87878      .   S
    N61    C65       1.49425      .   S
    N2128  H2163     0.87878      .   S
    N2128  C2268     1.49425      .   S
    N2129  H2164     0.87878      .   S
    N2129  C2269     1.49425      .   S
    C46    H47       0.94598      .   S
    C1595  H1630     0.94598      .   S
    C1594  H1629     0.94598      .   S
    C1368  O284      1.27106      .   S
    C39    O11       1.27106      .   S
    C1369  O285      1.27106      .   S
    C65    O13       1.14833      .   S
    C2268  O358      1.14833      .   S
    C2269  O359      1.14833      .   S
    H990   C943      0.94937      .   S
    H989   C942      0.94937      .   S
    H988   C941      0.94937      .   S
    C687   C941      1.44574      .   S
    C687   C681      1.37472      .   S
    C689   C943      1.44574      .   S
    C689   C683      1.37472      .   S
    C688   C942      1.44574      .   S
    C688   C682      1.37472      .   S
    H767   C682      0.95051  1_565   S
    H766   C681      0.95051      .   S
    C943   C873      1.43040      .   S
    C941   C871      1.43040      .   S
    C942   C872      1.43040      .   S
    H768   C683      0.95051  1_455   S
    C681   C801      1.41715      .   S
    C683   C803      1.41715      .   S
    C682   C802      1.41715      .   S
    C873   H908      0.94698      .   S
    C873   C838      1.31172      .   S
    C871   H906      0.94698      .   S
    C871   C836      1.31172      .   S
    C872   H907      0.94698      .   S
    C872   C837      1.31172      .   S
    H616   N581      0.88080      .   S
    H617   N582      0.88080      .   S
    H618   N583      0.88080      .   S
    C801   C836      1.42467      .   S
    C801   N511      1.43139      .   S
    C802   C837      1.42467      .   S
    C802   N512      1.43139      .   S
    C803   C838      1.42467      .   S
    C803   N513      1.43139      .   S
    O184   C1023     1.13307      .   S
    O185   C1024     1.13307  1_565   S
    O186   C1025     1.13307  1_455   S
    C1025  N583      1.26439      .   S
    C1025  N513      1.46906      .   S
    C1024  N582      1.26439      .   S
    C1024  N512      1.46906      .   S
    C1023  N581      1.26439      .   S
    C1023  N511      1.46906      .   S
    C838   C1060     1.42151      .   S
    C836   C1058     1.42151      .   S
    C837   C1059     1.42151      .   S
    N581   C1093     1.47250      .   S
    N583   C1095     1.47250      .   S
    N582   C1094     1.47250      .   S
    N513   H548      0.88291  1_655   S
    N512   H547      0.88291  1_545   S
    N511   H546      0.88291      .   S
    C1060  C1095     1.45249      .   S
    C1060  C1305     1.48748      .   S
    C1059  C1094     1.45249      .   S
    C1059  C1304     1.48748      .   S
    C1058  C1093     1.45249      .   S
    C1058  C1303     1.48748      .   S
    C1095  C1130     1.38515      .   S
    C1093  C1128     1.38515      .   S
    C1094  C1129     1.38515      .   S
    C1128  H1163     0.94932      .   S
    C1128  C1198     1.43713      .   S
    C1129  H1164     0.94932      .   S
    C1129  C1199     1.43713      .   S
    C1130  H1165     0.94932      .   S
    C1130  C1200     1.43713      .   S
    C1304  H1339     0.95056      .   S
    C1304  C1234     1.28209      .   S
    C1305  H1340     0.95056      .   S
    C1305  C1235     1.28209      .   S
    C1303  H1338     0.95056      .   S
    C1303  C1233     1.28209      .   S
    O9     C38       1.51592      .   S
    O214   C1333     1.51592      .   S
    O215   C1334     1.51592      .   S
    O8     C38       1.16042      .   S
    O179   C1333     1.16042      .   S
    O180   C1334     1.16042      .   S
    C38    C33       1.53367      .   S
    C1333  C1158     1.53367      .   S
    C1334  C1159     1.53367      .   S
    H1229  C1194     0.95170      .   S
    H1228  C1193     0.95170      .   S
    H35    C34       0.95170      .   S
    C1200  C1235     1.41245      .   S
    C1200  C1375     1.53367      .   S
    C1199  C1234     1.41245      .   S
    C1199  C1374     1.53367      .   S
    C1198  C1233     1.41245      .   S
    C1198  C1373     1.53367      .   S
    C1235  H1270     0.95170      .   S
    C1234  H1269     0.95170      .   S
    C1233  H1268     0.95170      .   S
    C1194  C1159     1.41245      .   S
    C1194  C1264     1.28209      .   S
    C1193  C1158     1.41245      .   S
    C1193  C1263     1.28209      .   S
    C34    C33       1.41245      .   S
    C34    C36       1.28209      .   S
    C33    C31       1.43713      .   S
    C1158  C1088     1.43713      .   S
    C1159  C1089     1.43713      .   S
    C1375  O221      1.16042      .   S
    C1375  O256      1.51592      .   S
    C1374  O220      1.16042      .   S
    C1374  O255      1.51592      .   S
    C1373  O219      1.16042      .   S
    C1373  O254      1.51592      .   S
    H37    C36       0.95056      .   S
    H1298  C1263     0.95056      .   S
    H1299  C1264     0.95056      .   S
    H32    C31       0.94932      .   S
    H1123  C1088     0.94932      .   S
    H1124  C1089     0.94932      .   S
    C36    C0        1.48748      .   S
    C1263  C1018     1.48748      .   S
    C1264  C1019     1.48748      .   S
    C31    C30       1.38515      .   S
    C1088  C1053     1.38515      .   S
    C1089  C1054     1.38515      .   S
    C30    C0        1.45249      .   S
    C30    N16       1.47250      .   S
    C1053  C1018     1.45249      .   S
    C1053  N541      1.47250      .   S
    C1054  C1019     1.45249      .   S
    C1054  N542      1.47250      .   S
    C0     C23       1.42151      .   S
    C1018  C796      1.42151      .   S
    C1019  C797      1.42151      .   S
    H506   N471      0.88291  1_545   S
    H507   N472      0.88291  1_655   S
    H2     N1        0.88291      .   S
    N471   C983      1.46906      .   S
    N471   C761      1.43139      .   S
    N1     C28       1.46906      .   S
    N1     C22       1.43139      .   S
    N472   C984      1.46906      .   S
    N472   C762      1.43139      .   S
    N16    C28       1.26439      .   S
    N16    H17       0.88080      .   S
    N541   C983      1.26439      .   S
    N541   H576      0.88080      .   S
    N542   C984      1.26439      .   S
    N542   H577      0.88080      .   S
    C23    C22       1.42467      .   S
    C23    C24       1.31172      .   S
    C796   C761      1.42467      .   S
    C796   C831      1.31172      .   S
    C797   C762      1.42467      .   S
    C797   C832      1.31172      .   S
    C28    O7        1.13307      .   S
    C984   O143      1.13307  1_455   S
    C983   O142      1.13307  1_565   S
    C761   C310      1.41715      .   S
    C762   C311      1.41715      .   S
    C22    C20       1.41715      .   S
    H25    C24       0.94698      .   S
    H867   C832      0.94698      .   S
    H866   C831      0.94698      .   S
    O328   C1408     1.27106      .   S
    O329   C1409     1.27106      .   S
    O330   C1410     1.27106      .   S
    C832   C902      1.43040      .   S
    C831   C901      1.43040      .   S
    C24    C26       1.43040      .   S
    O399   C2306     1.14833      .   S
    O400   C2307     1.14833      .   S
    O401   C2308     1.14833      .   S
    C20    H21       0.95051      .   S
    C20    C19       1.37472      .   S
    C310   H308      0.95051  1_565   S
    C310   C646      1.37472      .   S
    C311   H309      0.95051  1_455   S
    C311   C647      1.37472      .   S
    H1671  C1636     0.94598      .   S
    H1669  C1634     0.94598      .   S
    H1670  C1635     0.94598      .   S
    C902   C647      1.44574      .   S
    C902   H937      0.94937      .   S
    C901   C646      1.44574      .   S
    C901   H936      0.94937      .   S
    C26    C19       1.44574      .   S
    C26    H27       0.94937      .   S
    C647   C612      1.47957      .   S
    C19    C18       1.47957      .   S
    C646   C611      1.47957      .   S
    C2306  N2168     1.49425      .   S
    C2306  N2238     1.46938      .   S
    C2307  N2169     1.49425      .   S
    C2307  N2239     1.46938      .   S
    C2308  N2170     1.49425      .   S
    C2308  N2240     1.46938      .   S
    C1408  O289      1.24881      .   S
    C1408  C1443     1.52151      .   S
    C1409  O290      1.24881      .   S
    C1409  C1444     1.52151      .   S
    C1410  O291      1.24881      .   S
    C1410  C1445     1.52151      .   S
    C1634  C1443     1.32211      .   S
    C1634  C1599     1.44525      .   S
    C1635  C1444     1.32211      .   S
    C1635  C1600     1.44525      .   S
    C1636  C1445     1.32211      .   S
    C1636  C1601     1.44525      .   S
    H2204  N2169     0.87878      .   S
    H2203  N2168     0.87878      .   S
    H2205  N2170     0.87878      .   S
    N2169  C1600     1.38928  1_455   S
    N2168  C1599     1.38928  1_565   S
    N2170  C1601     1.38928      .   S
    C611   O83       1.22516  1_565   S
    C611   O67       1.34273      .   S
    C612   O84       1.22516  1_455   S
    C612   O108      1.34273      .   S
    C18    O5        1.22516      .   S
    C18    O6        1.34273      .   S
    C1444  C1479     1.38417      .   S
    C1443  C1478     1.38417      .   S
    C1445  C1480     1.38417      .   S
    H2274  N2239     0.87926      .   S
    H2273  N2238     0.87926      .   S
    H2275  N2240     0.87926      .   S
    N2239  C1951     1.36686      .   S
    N2240  C1952     1.36686      .   S
    N2238  C1950     1.36686      .   S
    C1600  C1565     1.31386      .   S
    C1601  C1566     1.31386      .   S
    C1599  C1564     1.31386      .   S
    C1478  H1514     0.95075      .   S
    C1478  C1529     1.43854      .   S
    C1479  H1515     0.95075      .   S
    C1479  C1530     1.43854      .   S
    C1480  H1516     0.95075      .   S
    C1480  C1531     1.43854      .   S
    C1566  C1531     1.38180      .   S
    C1566  C1706     1.41515      .   S
    C1565  C1530     1.38180      .   S
    C1565  C1705     1.41515  1_655   S
    C1564  C1529     1.38180      .   S
    C1564  C1704     1.41515  1_545   S
    C1950  C1704     1.41521      .   S
    C1950  C1879     1.33862      .   S
    C1951  C1705     1.41521      .   S
    C1951  C1880     1.33862      .   S
    C1952  C1706     1.41521      .   S
    C1952  C1881     1.33862      .   S
    C1529  N1993     1.44860      .   S
    C1530  N1994     1.44860      .   S
    C1531  N1995     1.44860      .   S
    H1914  C1879     0.94802      .   S
    H1915  C1880     0.94802      .   S
    H1916  C1881     0.94802      .   S
    C1706  C1741     1.43562      .   S
    C1705  C1740     1.43562      .   S
    C1704  C1739     1.43562      .   S
    C1881  C1846     1.37475      .   S
    C1880  C1845     1.37475      .   S
    C1879  C1844     1.37475      .   S
    O470   C1987     1.19042      .   S
    O469   C1986     1.19042      .   S
    O468   C1985     1.19042      .   S
    O390   C2160     1.12166      .   S
    O391   C2161     1.12166      .   S
    O392   C2162     1.12166      .   S
    H2028  N1993     0.87778      .   S
    H2029  N1994     0.87778      .   S
    H2030  N1995     0.87778      .   S
    N1995  C2135     1.46454      .   S
    N1994  C2134     1.46454      .   S
    N1993  C2133     1.46454      .   S
    H1838  C1803     0.94808      .   S
    H1837  C1802     0.94808      .   S
    H1836  C1801     0.94808      .   S
    H2127  N2092     0.88301      .   S
    H2126  N2091     0.88301      .   S
    H2125  N2090     0.88301      .   S
    C1741  C1776     1.33681      .   S
    C1741  N2065     1.48041      .   S
    C1739  C1774     1.33681      .   S
    C1739  N2063     1.48041  1_565   S
    C1740  C1775     1.33681      .   S
    C1740  N2064     1.48041  1_455   S
    C1844  C1774     1.42566      .   S
    C1844  C969      1.55459      .   S
    C1845  C1775     1.42566      .   S
    C1845  C970      1.55459      .   S
    C1846  C1776     1.42566      .   S
    C1846  C971      1.55459      .   S
    C1987  O505      1.33972      .   S
    C1987  C1873     1.55459      .   S
    C1986  O504      1.33972      .   S
    C1986  C1872     1.55459      .   S
    C1985  O503      1.33972      .   S
    C1985  C1871     1.55459      .   S
    C2162  N2092     1.44487      .   S
    C2162  N2022     1.46454      .   S
    C2160  N2090     1.44487      .   S
    C2160  N2020     1.46454      .   S
    C2161  N2091     1.44487      .   S
    C2161  N2021     1.46454      .   S
    O477   C970      1.33972      .   S
    O476   C969      1.33972      .   S
    O478   C971      1.33972      .   S
    N2092  C1768     1.48041      .   S
    N2091  C1767     1.48041      .   S
    N2090  C1766     1.48041      .   S
    C1803  C1873     1.42566      .   S
    C1803  C1768     1.33681      .   S
    C1802  C1872     1.42566      .   S
    C1802  C1767     1.33681      .   S
    C1801  C1871     1.42566      .   S
    C1801  C1766     1.33681      .   S
    C1776  H1811     0.94808      .   S
    C1775  H1810     0.94808      .   S
    C1774  H1809     0.94808      .   S
    N2065  C2135     1.44487      .   S
    N2065  H2100     0.88301      .   S
    N2063  C2133     1.44487      .   S
    N2063  H2098     0.88301      .   S
    N2064  C2134     1.44487      .   S
    N2064  H2099     0.88301      .   S
    C2135  O365      1.12166      .   S
    C2133  O363      1.12166      .   S
    C2134  O364      1.12166      .   S
    C971   O443      1.19042      .   S
    C970   O442      1.19042      .   S
    C969   O441      1.19042      .   S
    C1872  C1907     1.37475      .   S
    C1873  C1908     1.37475      .   S
    C1871  C1906     1.37475      .   S
    C1766  C1731     1.43562      .   S
    C1768  C1733     1.43562      .   S
    C1767  C1732     1.43562      .   S
    N2022  H2057     0.87778      .   S
    N2022  C1558     1.44860      .   S
    N2021  H2056     0.87778      .   S
    N2021  C1557     1.44860      .   S
    N2020  H2055     0.87778      .   S
    N2020  C1556     1.44860      .   S
    C1906  H1941     0.94802      .   S
    C1906  C959      1.33862      .   S
    C1907  H1942     0.94802      .   S
    C1907  C960      1.33862      .   S
    C1908  H1943     0.94802      .   S
    C1908  C961      1.33862      .   S
    C1733  C961      1.41521      .   S
    C1733  C1593     1.41515      .   S
    C1731  C959      1.41521      .   S
    C1731  C1591     1.41515      .   S
    C1732  C960      1.41521      .   S
    C1732  C1592     1.41515      .   S
    C1556  C1591     1.38180      .   S
    C1556  C1505     1.43854      .   S
    C1557  C1592     1.38180      .   S
    C1557  C1506     1.43854      .   S
    C1558  C1593     1.38180      .   S
    C1558  C1507     1.43854      .   S
    C961   N2267     1.36686      .   S
    C960   N2266     1.36686      .   S
    C959   N2265     1.36686      .   S
    H727   C1505     0.95075      .   S
    H728   C1506     0.95075      .   S
    H729   C1507     0.95075      .   S
    C1593  C1628     1.31386      .   S
    C1592  C1627     1.31386      .   S
    C1591  C1626     1.31386      .   S
    C1507  C1472     1.38417      .   S
    C1505  C1470     1.38417      .   S
    C1506  C1471     1.38417      .   S
    O170   C672      1.34273      .   S
    O171   C673      1.34273      .   S
    O172   C674      1.34273      .   S
    C1627  N2196     1.38928      .   S
    C1627  C1662     1.44525      .   S
    C1626  N2195     1.38928      .   S
    C1626  C1661     1.44525      .   S
    C1628  N2197     1.38928      .   S
    C1628  C1663     1.44525      .   S
    N2265  H2300     0.87926      .   S
    N2265  C2333     1.46938      .   S
    N2266  H2301     0.87926      .   S
    N2266  C2334     1.46938      .   S
    N2267  H2302     0.87926      .   S
    N2267  C2335     1.46938      .   S
    O135   C674      1.22516      .   S
    O134   C673      1.22516      .   S
    O133   C672      1.22516      .   S
    C1470  C1661     1.32211      .   S
    C1470  C1435     1.52151      .   S
    C1471  C1662     1.32211      .   S
    C1471  C1436     1.52151      .   S
    C1472  C1663     1.32211      .   S
    C1472  C1437     1.52151      .   S
    C673   C709      1.47957      .   S
    C672   C708      1.47957      .   S
    C674   C710      1.47957      .   S
    O320   C1435     1.24881      .   S
    O321   C1436     1.24881      .   S
    O322   C1437     1.24881      .   S
    N2197  H2232     0.87878      .   S
    N2197  C2335     1.49425      .   S
    N2196  H2231     0.87878      .   S
    N2196  C2334     1.49425      .   S
    N2195  H2230     0.87878      .   S
    N2195  C2333     1.49425      .   S
    C1661  H1696     0.94598      .   S
    C1662  H1697     0.94598      .   S
    C1663  H1698     0.94598      .   S
    C1437  O357      1.27106      .   S
    C1436  O356      1.27106      .   S
    C1435  O355      1.27106      .   S
    C2335  O165      1.14833      .   S
    C2334  O164      1.14833      .   S
    C2333  O163      1.14833      .   S
    H1009  C433      0.94937      .   S
    H1010  C434      0.94937      .   S
    H1011  C435      0.94937      .   S
    C708   C433      1.44574      .   S
    C708   C752      1.37472      .   S
    C709   C434      1.44574      .   S
    C709   C753      1.37472      .   S
    C710   C435      1.44574      .   S
    C710   C754      1.37472      .   S
    C435   C894      1.43040      .   S
    C433   C892      1.43040      .   S
    C434   C893      1.43040      .   S
    H787   C752      0.95051      .   S
    H788   C753      0.95051      .   S
    H789   C754      0.95051      .   S
    C752   C822      1.41715      .   S
    C753   C823      1.41715      .   S
    C754   C824      1.41715      .   S
    C894   H929      0.94698      .   S
    C894   C859      1.31172      .   S
    C893   H928      0.94698      .   S
    C893   C858      1.31172      .   S
    C892   H927      0.94698      .   S
    C892   C857      1.31172      .   S
    H637   N602      0.88080  1_545   S
    H639   N604      0.88080  1_655   S
    H638   N603      0.88080      .   S
    C823   C858      1.42467      .   S
    C823   N533      1.43139      .   S
    C824   C859      1.42467      .   S
    C824   N534      1.43139      .   S
    C822   C857      1.42467      .   S
    C822   N532      1.43139      .   S
    O207   C1046     1.13307  1_655   S
    O206   C1045     1.13307      .   S
    O205   C1044     1.13307  1_545   S
    C1044  N602      1.26439      .   S
    C1044  N532      1.46906      .   S
    C1046  N604      1.26439      .   S
    C1046  N534      1.46906      .   S
    C1045  N603      1.26439      .   S
    C1045  N533      1.46906      .   S
    C859   C1081     1.42151      .   S
    C857   C1079     1.42151      .   S
    C858   C1080     1.42151      .   S
    N602   C1114     1.47250      .   S
    N604   C1116     1.47250      .   S
    N603   C1115     1.47250      .   S
    N534   H569      0.88291      .   S
    N533   H568      0.88291      .   S
    N532   H567      0.88291      .   S
    C1081  C1116     1.45249      .   S
    C1081  C1326     1.48748      .   S
    C1080  C1115     1.45249      .   S
    C1080  C1325     1.48748      .   S
    C1079  C1114     1.45249      .   S
    C1079  C1324     1.48748      .   S
    C1114  C1149     1.38515      .   S
    C1115  C1150     1.38515      .   S
    C1116  C1151     1.38515      .   S
    C1151  H1186     0.94932  1_455   S
    C1151  C1221     1.43713      .   S
    C1150  H1185     0.94932      .   S
    C1150  C1220     1.43713      .   S
    C1149  H1184     0.94932  1_565   S
    C1149  C1219     1.43713      .   S
    C1326  H1361     0.95056      .   S
    C1326  C1256     1.28209      .   S
    C1325  H1360     0.95056      .   S
    C1325  C1255     1.28209      .   S
    C1324  H1359     0.95056      .   S
    C1324  C1254     1.28209      .   S
    O283   C1402     1.51592      .   S
    O281   C1400     1.51592      .   S
    O282   C1401     1.51592      .   S
    O247   C1401     1.16042      .   S
    O248   C1402     1.16042      .   S
    O246   C1400     1.16042      .   S
    C1401  C1226     1.53367      .   S
    C1402  C1227     1.53367      .   S
    C1400  C1225     1.53367      .   S
    H1297  C1262     0.95170      .   S
    H1296  C1261     0.95170      .   S
    H1295  C1260     0.95170      .   S
    C1219  C1254     1.41245      .   S
    C1219  C1394     1.53367      .   S
    C1221  C1256     1.41245      .   S
    C1221  C1396     1.53367      .   S
    C1220  C1255     1.41245      .   S
    C1220  C1395     1.53367      .   S
    C1256  H1291     0.95170      .   S
    C1255  H1290     0.95170      .   S
    C1254  H1289     0.95170      .   S
    C1262  C1227     1.41245      .   S
    C1262  C1332     1.28209      .   S
    C1260  C1225     1.41245      .   S
    C1260  C1330     1.28209      .   S
    C1261  C1226     1.41245      .   S
    C1261  C1331     1.28209      .   S
    C1227  C1157     1.43713      .   S
    C1225  C1155     1.43713      .   S
    C1226  C1156     1.43713      .   S
    C1396  O242      1.16042  1_455   S
    C1396  O277      1.51592      .   S
    C1394  O240      1.16042  1_565   S
    C1394  O275      1.51592      .   S
    C1395  O241      1.16042      .   S
    C1395  O276      1.51592      .   S
    H1367  C1332     0.95056      .   S
    H1365  C1330     0.95056      .   S
    H1366  C1331     0.95056      .   S
    H1192  C1157     0.94932      .   S
    H1191  C1156     0.94932      .   S
    H1190  C1155     0.94932      .   S
    C1332  C1087     1.48748      .   S
    C1331  C1086     1.48748      .   S
    C1330  C1085     1.48748      .   S
    C1155  C1120     1.38515      .   S
    C1156  C1121     1.38515      .   S
    C1157  C1122     1.38515      .   S
    C1122  C1087     1.45249      .   S
    C1122  N610      1.47250      .   S
    C1120  C1085     1.45249      .   S
    C1120  N608      1.47250      .   S
    C1121  C1086     1.45249      .   S
    C1121  N609      1.47250      .   S
    C1085  C863      1.42151  1_655   S
    C1086  C864      1.42151  1_545   S
    C1087  C865      1.42151      .   S
    H575   N540      0.88291      .   S
    H574   N539      0.88291      .   S
    H573   N538      0.88291      .   S
    N540   C1052     1.46906      .   S
    N540   C830      1.43139      .   S
    N539   C1051     1.46906  1_565   S
    N539   C829      1.43139      .   S
    N538   C1050     1.46906  1_455   S
    N538   C828      1.43139      .   S
    N609   C1051     1.26439      .   S
    N609   H644      0.88080      .   S
    N608   C1050     1.26439      .   S
    N608   H643      0.88080      .   S
    N610   C1052     1.26439      .   S
    N610   H645      0.88080      .   S
    C863   C828      1.42467      .   S
    C863   C898      1.31172      .   S
    C864   C829      1.42467      .   S
    C864   C899      1.31172      .   S
    C865   C830      1.42467      .   S
    C865   C900      1.31172      .   S
    C1052  O213      1.13307      .   S
    C1050  O211      1.13307      .   S
    C1051  O212      1.13307      .   S
    C830   C760      1.41715      .   S
    C829   C759      1.41715      .   S
    C828   C758      1.41715      .   S
    H935   C900      0.94698      .   S
    H934   C899      0.94698      .   S
    H933   C898      0.94698      .   S
    O350   C1430     1.27106      .   S
    O349   C1429     1.27106      .   S
    O351   C1431     1.27106      .   S
    C898   C439      1.43040      .   S
    C899   C981      1.43040      .   S
    C900   C982      1.43040      .   S
    O422   C2329     1.14833      .   S
    O421   C2328     1.14833      .   S
    O420   C2327     1.14833      .   S
    C758   H793      0.95051      .   S
    C758   C714      1.37472      .   S
    C760   H795      0.95051      .   S
    C760   C307      1.37472      .   S
    C759   H794      0.95051      .   S
    C759   C306      1.37472      .   S
    H1692  C1657     0.94598      .   S
    H1691  C1656     0.94598      .   S
    H1690  C1655     0.94598      .   S
    C982   C307      1.44574      .   S
    C982   H1017     0.94937      .   S
    C981   C306      1.44574      .   S
    C981   H1016     0.94937      .   S
    C439   C714      1.44574      .   S
    C439   H1015     0.94937      .   S
    C306   C679      1.47957      .   S
    C307   C680      1.47957      .   S
    C714   C678      1.47957      .   S
    C2328  N2190     1.49425      .   S
    C2328  N2260     1.46938      .   S
    C2327  N2189     1.49425      .   S
    C2327  N2259     1.46938      .   S
    C2329  N2191     1.49425      .   S
    C2329  N2261     1.46938      .   S
    C1430  O315      1.24881      .   S
    C1430  C1465     1.52151      .   S
    C1429  O107      1.24881      .   S
    C1429  C1464     1.52151      .   S
    C1431  O316      1.24881      .   S
    C1431  C1466     1.52151      .   S
    C1655  C1464     1.32211      .   S
    C1655  C1620     1.44525      .   S
    C1656  C1465     1.32211      .   S
    C1656  C1621     1.44525      .   S
    C1657  C1466     1.32211      .   S
    C1657  C1622     1.44525      .   S
    H2224  N2189     0.87878      .   S
    H2225  N2190     0.87878      .   S
    H2226  N2191     0.87878      .   S
    N2190  C1621     1.38928      .   S
    N2189  C1620     1.38928      .   S
    N2191  C1622     1.38928      .   S
    C680   O141      1.22516      .   S
    C680   O178      1.34273      .   S
    C678   O139      1.22516      .   S
    C678   O176      1.34273      .   S
    C679   O140      1.22516      .   S
    C679   O177      1.34273      .   S
    C1465  C1500     1.38417      .   S
    C1466  C1501     1.38417      .   S
    C1464  C1499     1.38417      .   S
    H2294  N2259     0.87926      .   S
    H2296  N2261     0.87926      .   S
    H2295  N2260     0.87926      .   S
    N2259  C1971     1.36686      .   S
    N2260  C1972     1.36686      .   S
    N2261  C955      1.36686      .   S
    C1621  C1586     1.31386      .   S
    C1620  C1585     1.31386      .   S
    C1622  C1587     1.31386      .   S
    C1499  H721      0.95075      .   S
    C1499  C1550     1.43854      .   S
    C1501  H723      0.95075      .   S
    C1501  C1552     1.43854      .   S
    C1500  H722      0.95075      .   S
    C1500  C1551     1.43854      .   S
    C1586  C1551     1.38180      .   S
    C1586  C1726     1.41515      .   S
    C1585  C1550     1.38180      .   S
    C1585  C1725     1.41515      .   S
    C1587  C1552     1.38180      .   S
    C1587  C1727     1.41515      .   S
    C1971  C1725     1.41521      .   S
    C1971  C1900     1.33862      .   S
    C955   C1727     1.41521      .   S
    C955   C1902     1.33862      .   S
    C1972  C1726     1.41521      .   S
    C1972  C1901     1.33862      .   S
    C1552  N2016     1.44860      .   S
    C1551  N2015     1.44860      .   S
    C1550  N2014     1.44860      .   S
    H1935  C1900     0.94802      .   S
    H1937  C1902     0.94802      .   S
    H1936  C1901     0.94802      .   S
    C1726  C1761     1.43562      .   S
    C1725  C1760     1.43562      .   S
    C1727  C1762     1.43562      .   S
    C1902  C1867     1.37475      .   S
    C1901  C1866     1.37475      .   S
    C1900  C1865     1.37475      .   S
    O447   C975      1.19042      .   S
    O449   C977      1.19042      .   S
    O448   C976      1.19042      .   S
    O370   C2140     1.12166      .   S
    O369   C2139     1.12166      .   S
    O371   C2141     1.12166      .   S
    H2049  N2014     0.87778      .   S
    H2050  N2015     0.87778      .   S
    H2051  N2016     0.87778      .   S
    N2015  C2155     1.46454      .   S
    N2014  C2154     1.46454      .   S
    N2016  C2156     1.46454      .   S
    H1815  C1780     0.94808      .   S
    H1816  C1781     0.94808      .   S
    H1817  C1782     0.94808      .   S
    H2104  N2069     0.88301      .   S
    H2105  N2070     0.88301      .   S
    H2106  N2071     0.88301      .   S
    C1762  C1797     1.33681      .   S
    C1762  N2086     1.48041      .   S
    C1760  C1795     1.33681      .   S
    C1760  N2084     1.48041      .   S
    C1761  C1796     1.33681      .   S
    C1761  N2085     1.48041      .   S
    C1867  C1797     1.42566      .   S
    C1867  C1981     1.55459      .   S
    C1866  C1796     1.42566      .   S
    C1866  C1980     1.55459      .   S
    C1865  C1795     1.42566      .   S
    C1865  C1979     1.55459      .   S
    C975   O482      1.33972      .   S
    C975   C1850     1.55459      .   S
    C976   O483      1.33972      .   S
    C976   C1851     1.55459      .   S
    C977   O484      1.33972      .   S
    C977   C1852     1.55459      .   S
    C2140  N2070     1.44487      .   S
    C2140  N2000     1.46454      .   S
    C2139  N2069     1.44487      .   S
    C2139  N1999     1.46454      .   S
    C2141  N2071     1.44487      .   S
    C2141  N2001     1.46454      .   S
    O497   C1979     1.33972      .   S
    O498   C1980     1.33972      .   S
    O499   C1981     1.33972      .   S
    N2069  C1745     1.48041      .   S
    N2070  C1746     1.48041      .   S
    N2071  C1747     1.48041      .   S
    C1782  C1852     1.42566      .   S
    C1782  C1747     1.33681      .   S
    C1780  C1850     1.42566      .   S
    C1780  C1745     1.33681      .   S
    C1781  C1851     1.42566      .   S
    C1781  C1746     1.33681      .   S
    C1795  H1830     0.94808      .   S
    C1796  H1831     0.94808      .   S
    C1797  H1832     0.94808      .   S
    N2085  C2155     1.44487      .   S
    N2085  H2120     0.88301      .   S
    N2086  C2156     1.44487      .   S
    N2086  H2121     0.88301      .   S
    N2084  C2154     1.44487      .   S
    N2084  H2119     0.88301      .   S
    C2155  O385      1.12166      .   S
    C2154  O384      1.12166      .   S
    C2156  O386      1.12166      .   S
    C1979  O462      1.19042      .   S
    C1981  O464      1.19042      .   S
    C1980  O463      1.19042      .   S
    C1850  C1885     1.37475      .   S
    C1852  C1887     1.37475      .   S
    C1851  C1886     1.37475      .   S
    C1746  C1711     1.43562      .   S
    C1745  C1710     1.43562      .   S
    C1747  C1712     1.43562      .   S
    N1999  H2034     0.87778      .   S
    N1999  C1535     1.44860      .   S
    N2000  H2035     0.87778      .   S
    N2000  C1536     1.44860      .   S
    N2001  H2036     0.87778      .   S
    N2001  C1537     1.44860      .   S
    C1885  H1920     0.94802      .   S
    C1885  C1956     1.33862      .   S
    C1886  H1921     0.94802      .   S
    C1886  C1957     1.33862      .   S
    C1887  H1922     0.94802      .   S
    C1887  C1958     1.33862      .   S
    C1712  C1958     1.41521      .   S
    C1712  C1572     1.41515      .   S
    C1710  C1956     1.41521      .   S
    C1710  C1570     1.41515      .   S
    C1711  C1957     1.41521      .   S
    C1711  C1571     1.41515      .   S
    C1537  C1572     1.38180      .   S
    C1537  C1486     1.43854      .   S
    C1535  C1570     1.38180      .   S
    C1535  C1484     1.43854      .   S
    C1536  C1571     1.38180      .   S
    C1536  C1485     1.43854      .   S
    C1957  N2245     1.36686      .   S
    C1958  N2246     1.36686      .   S
    C1956  N2244     1.36686      .   S
    H1522  C1486     0.95075      .   S
    H1521  C1485     0.95075      .   S
    H1520  C1484     0.95075      .   S
    C1572  C1607     1.31386      .   S
    C1571  C1606     1.31386      .   S
    C1570  C1605     1.31386      .   S
    C1485  C1450     1.38417      .   S
    C1484  C1449     1.38417      .   S
    C1486  C1451     1.38417      .   S
    O159   C663      1.34273      .   S
    O160   C664      1.34273      .   S
    O161   C665      1.34273      .   S
    C1607  N2176     1.38928      .   S
    C1607  C1642     1.44525      .   S
    C1605  N2174     1.38928      .   S
    C1605  C1640     1.44525      .   S
    C1606  N2175     1.38928      .   S
    C1606  C1641     1.44525      .   S
    N2244  H2279     0.87926      .   S
    N2244  C2312     1.46938      .   S
    N2245  H2280     0.87926      .   S
    N2245  C2313     1.46938      .   S
    N2246  H2281     0.87926      .   S
    N2246  C2314     1.46938      .   S
    O125   C664      1.22516      .   S
    O126   C665      1.22516      .   S
    O124   C663      1.22516      .   S
    C1451  C1642     1.32211      .   S
    C1451  C1416     1.52151      .   S
    C1450  C1641     1.32211      .   S
    C1450  C1415     1.52151      .   S
    C1449  C1640     1.32211      .   S
    C1449  C1414     1.52151      .   S
    C665   C701      1.47957      .   S
    C663   C699      1.47957      .   S
    C664   C700      1.47957      .   S
    O296   C1415     1.24881      .   S
    O295   C1414     1.24881      .   S
    O297   C1416     1.24881      .   S
    N2176  H2211     0.87878      .   S
    N2176  C2314     1.49425      .   S
    N2175  H2210     0.87878      .   S
    N2175  C2313     1.49425      .   S
    N2174  H2209     0.87878      .   S
    N2174  C2312     1.49425      .   S
    C1641  H1676     0.94598      .   S
    C1642  H1677     0.94598      .   S
    C1640  H1675     0.94598      .   S
    C1414  O334      1.27106      .   S
    C1415  O335      1.27106      .   S
    C1416  O336      1.27106      .   S
    C2314  O407      1.14833      .   S
    C2313  O406      1.14833      .   S
    C2312  O405      1.14833      .   S
    H1002  C426      0.94937      .   S
    H1001  C954      0.94937      .   S
    H1000  C953      0.94937      .   S
    C701   C426      1.44574      .   S
    C701   C745      1.37472      .   S
    C699   C953      1.44574      .   S
    C699   C743      1.37472      .   S
    C700   C954      1.44574      .   S
    C700   C744      1.37472      .   S
    H779   C744      0.95051      .   S
    C954   C884      1.43040      .   S
    H780   C745      0.95051      .   S
    C426   C885      1.43040      .   S
    H778   C743      0.95051      .   S
    C953   C883      1.43040      .   S
    C744   C814      1.41715      .   S
    C745   C815      1.41715      .   S
    C743   C813      1.41715      .   S
    C883   H918      0.94698      .   S
    C883   C848      1.31172      .   S
    C884   H919      0.94698      .   S
    C884   C849      1.31172      .   S
    C885   H920      0.94698      .   S
    C885   C850      1.31172      .   S
    H630   N595      0.88080      .   S
    H628   N593      0.88080      .   S
    H629   N594      0.88080      .   S
    C813   C848      1.42467      .   S
    C813   N523      1.43139      .   S
    C815   C850      1.42467      .   S
    C815   N525      1.43139      .   S
    C814   C849      1.42467      .   S
    C814   N524      1.43139      .   S
    O198   C1037     1.13307      .   S
    O196   C1035     1.13307      .   S
    O197   C1036     1.13307      .   S
    C1037  N595      1.26439      .   S
    C1037  N525      1.46906      .   S
    C1035  N593      1.26439      .   S
    C1035  N523      1.46906  1_565   S
    C1036  N594      1.26439      .   S
    C1036  N524      1.46906  1_455   S
    C848   C1070     1.42151  1_545   S
    C849   C1071     1.42151  1_655   S
    C850   C1072     1.42151      .   S
    N594   C1106     1.47250      .   S
    N595   C1107     1.47250      .   S
    N593   C1105     1.47250      .   S
    N524   H559      0.88291      .   S
    N523   H558      0.88291      .   S
    N525   H560      0.88291      .   S
    C1072  C1107     1.45249      .   S
    C1072  C1317     1.48748      .   S
    C1070  C1105     1.45249      .   S
    C1070  C1315     1.48748      .   S
    C1071  C1106     1.45249      .   S
    C1071  C1316     1.48748      .   S
    C1105  C1140     1.38515      .   S
    C1106  C1141     1.38515      .   S
    C1107  C1142     1.38515      .   S
    C1142  H1177     0.94932      .   S
    C1142  C1212     1.43713      .   S
    C1141  H1176     0.94932      .   S
    C1141  C1211     1.43713      .   S
    C1140  H1175     0.94932      .   S
    C1140  C1210     1.43713      .   S
    C1315  H1350     0.95056      .   S
    C1315  C1245     1.28209      .   S
    C1316  H1351     0.95056      .   S
    C1316  C1246     1.28209      .   S
    C1317  H1352     0.95056      .   S
    C1317  C1247     1.28209      .   S
    O261   C1380     1.51592      .   S
    O262   C1381     1.51592      .   S
    O260   C1379     1.51592      .   S
    O225   C1379     1.16042  1_455   S
    O227   C1381     1.16042  1_565   S
    O226   C1380     1.16042      .   S
    C1381  C1206     1.53367      .   S
    C1380  C1205     1.53367      .   S
    C1379  C1204     1.53367      .   S
    H1275  C1240     0.95170      .   S
    H1274  C1239     0.95170      .   S
    H1276  C1241     0.95170      .   S
    C1212  C1247     1.41245      .   S
    C1212  C1387     1.53367      .   S
    C1211  C1246     1.41245      .   S
    C1211  C1386     1.53367      .   S
    C1210  C1245     1.41245      .   S
    C1210  C1385     1.53367      .   S
    C1247  H1282     0.95170      .   S
    C1246  H1281     0.95170      .   S
    C1245  H1280     0.95170      .   S
    C1241  C1206     1.41245      .   S
    C1241  C1311     1.28209      .   S
    C1240  C1205     1.41245      .   S
    C1240  C1310     1.28209      .   S
    C1239  C1204     1.41245      .   S
    C1239  C1309     1.28209      .   S
    C1206  C1136     1.43713      .   S
    C1205  C1135     1.43713      .   S
    C1204  C1134     1.43713      .   S
    C1387  O233      1.16042      .   S
    C1387  O268      1.51592      .   S
    C1385  O231      1.16042      .   S
    C1385  O266      1.51592      .   S
    C1386  O232      1.16042      .   S
    C1386  O267      1.51592      .   S
    H1345  C1310     0.95056      .   S
    H1346  C1311     0.95056      .   S
    H1344  C1309     0.95056      .   S
    H1169  C1134     0.94932  1_455   S
    H1170  C1135     0.94932      .   S
    H1171  C1136     0.94932  1_565   S
    C1309  C1064     1.48748      .   S
    C1310  C1065     1.48748      .   S
    C1311  C1066     1.48748      .   S
    C1134  C1099     1.38515      .   S
    C1135  C1100     1.38515      .   S
    C1136  C1101     1.38515      .   S
    C1099  C1064     1.45249      .   S
    C1099  N587      1.47250      .   S
    C1100  C1065     1.45249      .   S
    C1100  N588      1.47250      .   S
    C1101  C1066     1.45249      .   S
    C1101  N589      1.47250      .   S
    C1066  C844      1.42151      .   S
    C1065  C843      1.42151      .   S
    C1064  C842      1.42151      .   S
    H552   N517      0.88291      .   S
    H553   N518      0.88291      .   S
    H554   N519      0.88291      .   S
    N519   C1031     1.46906      .   S
    N519   C809      1.43139      .   S
    N518   C1030     1.46906      .   S
    N518   C808      1.43139      .   S
    N517   C1029     1.46906      .   S
    N517   C807      1.43139      .   S
    N589   C1031     1.26439      .   S
    N589   H624      0.88080  1_545   S
    N588   C1030     1.26439      .   S
    N588   H623      0.88080      .   S
    N587   C1029     1.26439      .   S
    N587   H622      0.88080  1_655   S
    C844   C809      1.42467      .   S
    C844   C879      1.31172      .   S
    C842   C807      1.42467      .   S
    C842   C877      1.31172      .   S
    C843   C808      1.42467      .   S
    C843   C878      1.31172      .   S
    C1030  O191      1.13307      .   S
    C1031  O192      1.13307  1_545   S
    C1029  O190      1.13307  1_655   S
    C807   C737      1.41715      .   S
    C808   C738      1.41715      .   S
    C809   C739      1.41715      .   S
    H914   C879      0.94698      .   S
    H913   C878      0.94698      .   S
    H912   C877      0.94698      .   S
    O340   C1420     1.27106      .   S
    O341   C1421     1.27106      .   S
    O342   C1422     1.27106      .   S
    C879   C949      1.43040      .   S
    C878   C948      1.43040      .   S
    C877   C947      1.43040      .   S
    O411   C2318     1.14833      .   S
    O412   C2319     1.14833      .   S
    O413   C2320     1.14833      .   S
    C739   H774      0.95051      .   S
    C739   C695      1.37472      .   S
    C738   H773      0.95051      .   S
    C738   C694      1.37472      .   S
    C737   H772      0.95051      .   S
    C737   C693      1.37472      .   S
    H1681  C1646     0.94598      .   S
    H1683  C1648     0.94598      .   S
    H1682  C1647     0.94598      .   S
    C948   C694      1.44574      .   S
    C948   H995      0.94937      .   S
    C949   C695      1.44574      .   S
    C949   H996      0.94937      .   S
    C947   C693      1.44574      .   S
    C947   H994      0.94937      .   S
    C694   C658      1.47957      .   S
    C695   C659      1.47957      .   S
    C693   C657      1.47957      .   S
    C2318  N2180     1.49425      .   S
    C2318  N2250     1.46938      .   S
    C2319  N2181     1.49425      .   S
    C2319  N2251     1.46938      .   S
    C2320  N2182     1.49425      .   S
    C2320  N2252     1.46938      .   S
    C1420  O301      1.24881      .   S
    C1420  C1455     1.52151      .   S
    C1421  O302      1.24881      .   S
    C1421  C1456     1.52151      .   S
    C1422  O303      1.24881      .   S
    C1422  C1457     1.52151      .   S
    C1648  C1457     1.32211      .   S
    C1648  C1613     1.44525      .   S
    C1647  C1456     1.32211      .   S
    C1647  C1612     1.44525      .   S
    C1646  C1455     1.32211      .   S
    C1646  C1611     1.44525      .   S
    H2217  N2182     0.87878      .   S
    H2216  N2181     0.87878      .   S
    H2215  N2180     0.87878      .   S
    N2180  C1611     1.38928      .   S
    N2181  C1612     1.38928      .   S
    N2182  C1613     1.38928      .   S
    C657   O118      1.22516      .   S
    C657   O153      1.34273      .   S
    C658   O119      1.22516      .   S
    C658   O154      1.34273      .   S
    C659   O120      1.22516      .   S
    C659   O155      1.34273      .   S
    C1455  C1490     1.38417      .   S
    C1456  C1491     1.38417      .   S
    C1457  C1492     1.38417      .   S
    H2286  N2251     0.87926      .   S
    H2287  N2252     0.87926      .   S
    H2285  N2250     0.87926      .   S
    N2250  C1962     1.36686      .   S
    N2251  C1963     1.36686      .   S
    N2252  C1964     1.36686      .   S
    C1611  C1576     1.31386      .   S
    C1612  C1577     1.31386      .   S
    C1613  C1578     1.31386      .   S
    C1492  H1528     0.95075      .   S
    C1492  C1543     1.43854      .   S
    C1491  H1527     0.95075      .   S
    C1491  C1542     1.43854      .   S
    C1490  H1526     0.95075      .   S
    C1490  C1541     1.43854      .   S
    C1578  C1543     1.38180      .   S
    C1578  C1718     1.41515      .   S
    C1576  C1541     1.38180      .   S
    C1576  C1716     1.41515      .   S
    C1577  C1542     1.38180      .   S
    C1577  C1717     1.41515      .   S
    C1962  C1716     1.41521      .   S
    C1962  C1891     1.33862      .   S
    C1963  C1717     1.41521      .   S
    C1963  C1892     1.33862      .   S
    C1964  C1718     1.41521      .   S
    C1964  C1893     1.33862      .   S
    C1541  N2005     1.44860      .   S
    C1542  N2006     1.44860      .   S
    C1543  N2007     1.44860      .   S
    H1926  C1891     0.94802      .   S
    H1927  C1892     0.94802      .   S
    H1928  C1893     0.94802      .   S
    C1716  C1751     1.43562      .   S
    C1717  C1752     1.43562      .   S
    C1718  C1753     1.43562      .   S
    C1893  C1858     1.37475      .   S
    C1891  C1856     1.37475      .   S
    C1892  C1857     1.37475      .   S
    O446   C974      1.19042      .   S
    O445   C973      1.19042      .   S
    O444   C972      1.19042      .   S
    O366   C2136     1.12166      .   S
    O367   C2137     1.12166      .   S
    O368   C2138     1.12166      .   S
    H2042  N2007     0.87778      .   S
    H2041  N2006     0.87778      .   S
    H2040  N2005     0.87778      .   S
    N2005  C2145     1.46454      .   S
    N2006  C2146     1.46454      .   S
    N2007  C2147     1.46454      .   S
    H1814  C1779     0.94808      .   S
    H1812  C1777     0.94808      .   S
    H1813  C1778     0.94808      .   S
    H2101  N2066     0.88301      .   S
    H2102  N2067     0.88301      .   S
    H2103  N2068     0.88301      .   S
    C1753  C1788     1.33681      .   S
    C1753  N2077     1.48041      .   S
    C1751  C1786     1.33681      .   S
    C1751  N2075     1.48041      .   S
    C1752  C1787     1.33681      .   S
    C1752  N2076     1.48041      .   S
    C1857  C1787     1.42566      .   S
    C1857  C1945     1.55459      .   S
    C1858  C1788     1.42566      .   S
    C1858  C1946     1.55459      .   S
    C1856  C1786     1.42566      .   S
    C1856  C1944     1.55459      .   S
    C974   O481      1.33972      .   S
    C974   C1849     1.55459      .   S
    C973   O480      1.33972      .   S
    C973   C1848     1.55459      .   S
    C972   O479      1.33972      .   S
    C972   C1847     1.55459      .   S
    C2136  N2066     1.44487      .   S
    C2136  N1996     1.46454      .   S
    C2137  N2067     1.44487      .   S
    C2137  N1997     1.46454      .   S
    C2138  N2068     1.44487      .   S
    C2138  N1998     1.46454      .   S
    O488   C1944     1.33972      .   S
    O489   C1945     1.33972      .   S
    O490   C1946     1.33972      .   S
    N2068  C1744     1.48041      .   S
    N2067  C1743     1.48041  1_565   S
    N2066  C1742     1.48041  1_455   S
    C1779  C1849     1.42566      .   S
    C1779  C1744     1.33681      .   S
    C1778  C1848     1.42566      .   S
    C1778  C1743     1.33681      .   S
    C1777  C1847     1.42566      .   S
    C1777  C1742     1.33681      .   S
    C1786  H1821     0.94808      .   S
    C1788  H1823     0.94808      .   S
    C1787  H1822     0.94808      .   S
    N2077  C2147     1.44487      .   S
    N2077  H2112     0.88301      .   S
    N2075  C2145     1.44487      .   S
    N2075  H2110     0.88301      .   S
    N2076  C2146     1.44487      .   S
    N2076  H2111     0.88301      .   S
    C2145  O375      1.12166      .   S
    C2146  O376      1.12166      .   S
    C2147  O377      1.12166      .   S
    C1946  O455      1.19042      .   S
    C1944  O453      1.19042      .   S
    C1945  O454      1.19042      .   S
    C1848  C1883     1.37475      .   S
    C1849  C1884     1.37475      .   S
    C1847  C1882     1.37475      .   S
    C1744  C1709     1.43562      .   S
    C1743  C1708     1.43562      .   S
    C1742  C1707     1.43562      .   S
    N1998  H2033     0.87778      .   S
    N1998  C1534     1.44860      .   S
    N1996  H2031     0.87778      .   S
    N1996  C1532     1.44860      .   S
    N1997  H2032     0.87778      .   S
    N1997  C1533     1.44860      .   S
    C1884  H1919     0.94802      .   S
    C1884  C1955     1.33862      .   S
    C1883  H1918     0.94802      .   S
    C1883  C1954     1.33862      .   S
    C1882  H1917     0.94802      .   S
    C1882  C1953     1.33862      .   S
    C1707  C1953     1.41521      .   S
    C1707  C1567     1.41515  1_655   S
    C1708  C1954     1.41521      .   S
    C1708  C1568     1.41515  1_545   S
    C1709  C1955     1.41521      .   S
    C1709  C1569     1.41515      .   S
    C1533  C1568     1.38180      .   S
    C1533  C1482     1.43854      .   S
    C1534  C1569     1.38180      .   S
    C1534  C1483     1.43854      .   S
    C1532  C1567     1.38180      .   S
    C1532  C1481     1.43854      .   S
    C1953  N2241     1.36686      .   S
    C1955  N2243     1.36686      .   S
    C1954  N2242     1.36686      .   S
    H1519  C1483     0.95075      .   S
    H1518  C1482     0.95075      .   S
    H1517  C1481     0.95075      .   S
    C1567  C1602     1.31386      .   S
    C1568  C1603     1.31386      .   S
    C1569  C1604     1.31386      .   S
    C1483  C1448     1.38417      .   S
    C1482  C1447     1.38417      .   S
    C1481  C1446     1.38417      .   S
    O146   C650      1.34273      .   S
    O145   C649      1.34273      .   S
    O144   C648      1.34273      .   S
    C1604  N2173     1.38928      .   S
    C1604  C1639     1.44525      .   S
    C1603  N2172     1.38928  1_565   S
    C1603  C1638     1.44525      .   S
    C1602  N2171     1.38928  1_455   S
    C1602  C1637     1.44525      .   S
    N2242  H2277     0.87926      .   S
    N2242  C2310     1.46938      .   S
    N2243  H2278     0.87926      .   S
    N2243  C2311     1.46938      .   S
    N2241  H2276     0.87926      .   S
    N2241  C2309     1.46938      .   S
    O109   C648      1.22516      .   S
    O110   C649      1.22516  1_455   S
    O111   C650      1.22516  1_565   S
    C1446  C1637     1.32211      .   S
    C1446  C1411     1.52151      .   S
    C1447  C1638     1.32211      .   S
    C1447  C1412     1.52151      .   S
    C1448  C1639     1.32211      .   S
    C1448  C1413     1.52151      .   S
    C648   C684      1.47957      .   S
    C649   C685      1.47957      .   S
    C650   C686      1.47957      .   S
    O294   C1413     1.24881      .   S
    O293   C1412     1.24881      .   S
    O292   C1411     1.24881      .   S
    N2171  H2206     0.87878      .   S
    N2171  C2309     1.49425      .   S
    N2173  H2208     0.87878      .   S
    N2173  C2311     1.49425      .   S
    N2172  H2207     0.87878      .   S
    N2172  C2310     1.49425      .   S
    C1637  H1672     0.94598      .   S
    C1638  H1673     0.94598      .   S
    C1639  H1674     0.94598      .   S
    C1413  O333      1.27106      .   S
    C1412  O332      1.27106      .   S
    C1411  O331      1.27106      .   S
    C2309  O402      1.14833      .   S
    C2310  O403      1.14833      .   S
    C2311  O404      1.14833      .   S
    H985   C938      0.94937      .   S
    H986   C939      0.94937      .   S
    H987   C940      0.94937      .   S
    C684   C938      1.44574      .   S
    C684   C312      1.37472      .   S
    C685   C939      1.44574      .   S
    C685   C313      1.37472      .   S
    C686   C940      1.44574      .   S
    C686   C314      1.37472      .   S
    C939   C869      1.43040      .   S
    C938   C868      1.43040      .   S
    C940   C870      1.43040      .   S
    H764   C313      0.95051  1_455   S
    H763   C312      0.95051      .   S
    H765   C314      0.95051  1_565   S
    C312   C798      1.41715      .   S
    C314   C800      1.41715      .   S
    C313   C799      1.41715      .   S
    C870   H905      0.94698      .   S
    C870   C835      1.31172      .   S
    C869   H904      0.94698      .   S
    C869   C834      1.31172      .   S
    C868   H903      0.94698      .   S
    C868   C833      1.31172      .   S
    H615   N580      0.88080      .   S
    H613   N578      0.88080      .   S
    H614   N579      0.88080      .   S
    C800   C835      1.42467      .   S
    C800   N510      1.43139      .   S
    C799   C834      1.42467      .   S
    C799   N509      1.43139      .   S
    C798   C833      1.42467      .   S
    C798   N508      1.43139      .   S
    O183   C1022     1.13307  1_565   S
    O182   C1021     1.13307  1_455   S
    O181   C1020     1.13307      .   S
    C1022  N580      1.26439      .   S
    C1022  N510      1.46906      .   S
    C1020  N578      1.26439      .   S
    C1020  N508      1.46906      .   S
    C1021  N579      1.26439      .   S
    C1021  N509      1.46906      .   S
    C835   C1057     1.42151      .   S
    C834   C1056     1.42151      .   S
    C833   C1055     1.42151      .   S
    N578   C1090     1.47250      .   S
    N580   C1092     1.47250      .   S
    N579   C1091     1.47250      .   S
    N508   H543      0.88291      .   S
    N509   H544      0.88291  1_655   S
    N510   H545      0.88291  1_545   S
    C1055  C1090     1.45249      .   S
    C1055  C1300     1.48748      .   S
    C1056  C1091     1.45249      .   S
    C1056  C1301     1.48748      .   S
    C1057  C1092     1.45249      .   S
    C1057  C1302     1.48748      .   S
    C1090  C1125     1.38515      .   S
    C1091  C1126     1.38515      .   S
    C1092  C1127     1.38515      .   S
    C1125  H1160     0.94932      .   S
    C1125  C1195     1.43713      .   S
    C1126  H1161     0.94932      .   S
    C1126  C1196     1.43713      .   S
    C1127  H1162     0.94932      .   S
    C1127  C1197     1.43713      .   S
    C1300  H1335     0.95056      .   S
    C1300  C1230     1.28209      .   S
    C1302  H1337     0.95056      .   S
    C1302  C1232     1.28209      .   S
    C1301  H1336     0.95056      .   S
    C1301  C1231     1.28209      .   S
    O259   C1378     1.51592      .   S
    O258   C1377     1.51592      .   S
    O257   C1376     1.51592      .   S
    O222   C1376     1.16042      .   S
    O223   C1377     1.16042      .   S
    O224   C1378     1.16042      .   S
    C1196  C1231     1.41245      .   S
    C1197  C1232     1.41245      .   S
    C1195  C1230     1.41245      .   S
