# CIF file generated by openbabel 2.4.90, see http://openbabel.sf.net
data_I
_chemical_name_common ''
_cell_length_a 24.4635
_cell_length_b 24.4635
_cell_length_c 112.996
_cell_angle_alpha 90
_cell_angle_beta 90
_cell_angle_gamma 120
_space_group_name_H-M_alt 'P 1'
_space_group_name_Hall 'P 1'
loop_
    _symmetry_equiv_pos_as_xyz
    x,y,z
loop_
    _atom_site_label
    _atom_site_type_symbol
    _atom_site_fract_x
    _atom_site_fract_y
    _atom_site_fract_z
    _atom_site_occupancy
    Zr0     Zr   0.00000   0.00000   0.57964   1.000
    Zr1     Zr   0.97026   0.05473   0.55658   1.000
    Zr2     Zr   0.24871   0.61158   0.48622   1.000
    Zr3     Zr   0.33330   0.66670   0.46351   1.000
    Zr4     Zr   0.00000   0.00000   0.92036   1.000
    Zr5     Zr   0.00000   0.00000   0.42036   1.000
    Zr6     Zr   0.00000   0.00000   0.07964   1.000
    Zr7     Zr   0.66667   0.33333   0.91297   1.000
    Zr8     Zr   0.66667   0.33333   0.25369   1.000
    Zr9     Zr   0.66667   0.33333   0.75369   1.000
    Zr10    Zr   0.66667   0.33333   0.41297   1.000
    Zr11    Zr   0.33333   0.66667   0.24631   1.000
    Zr12    Zr   0.33333   0.66667   0.58703   1.000
    Zr13    Zr   0.33333   0.66667   0.08703   1.000
    Zr14    Zr   0.33333   0.66667   0.74631   1.000
    Zr15    Zr   0.94527   0.91553   0.55658   1.000
    Zr16    Zr   0.08447   0.02974   0.55658   1.000
    Zr17    Zr   0.05473   0.97026   0.94342   1.000
    Zr18    Zr   0.91553   0.94527   0.94342   1.000
    Zr19    Zr   0.02974   0.08447   0.94342   1.000
    Zr20    Zr   0.02974   0.94527   0.44342   1.000
    Zr21    Zr   0.05473   0.08447   0.44342   1.000
    Zr22    Zr   0.91553   0.97026   0.44342   1.000
    Zr23    Zr   0.94527   0.02974   0.05658   1.000
    Zr24    Zr   0.08447   0.05473   0.05658   1.000
    Zr25    Zr   0.97026   0.91553   0.05658   1.000
    Zr26    Zr   0.63693   0.38806   0.88991   1.000
    Zr27    Zr   0.61194   0.24886   0.88991   1.000
    Zr28    Zr   0.75114   0.36307   0.88991   1.000
    Zr29    Zr   0.72140   0.30359   0.27675   1.000
    Zr30    Zr   0.58220   0.27860   0.27675   1.000
    Zr31    Zr   0.69641   0.41780   0.27675   1.000
    Zr32    Zr   0.69641   0.27860   0.77675   1.000
    Zr33    Zr   0.72140   0.41780   0.77675   1.000
    Zr34    Zr   0.58220   0.30359   0.77675   1.000
    Zr35    Zr   0.61194   0.36307   0.38991   1.000
    Zr36    Zr   0.75114   0.38806   0.38991   1.000
    Zr37    Zr   0.63693   0.24886   0.38991   1.000
    Zr38    Zr   0.30359   0.72140   0.22325   1.000
    Zr39    Zr   0.27860   0.58220   0.22325   1.000
    Zr40    Zr   0.41780   0.69641   0.22325   1.000
    Zr41    Zr   0.38806   0.63693   0.61009   1.000
    Zr42    Zr   0.24886   0.61194   0.61009   1.000
    Zr43    Zr   0.36307   0.75114   0.61009   1.000
    Zr44    Zr   0.36307   0.61194   0.11009   1.000
    Zr45    Zr   0.38806   0.75114   0.11009   1.000
    Zr46    Zr   0.24886   0.63693   0.11009   1.000
    Zr47    Zr   0.27860   0.69641   0.72325   1.000
    Zr48    Zr   0.41780   0.72140   0.72325   1.000
    Zr49    Zr   0.30359   0.58220   0.72325   1.000
    Zr50    Zr   0.38842   0.63713   0.48622   1.000
    Zr51    Zr   0.36287   0.75129   0.48622   1.000
    Zr52    Zr   0.61158   0.24871   0.01378   1.000
    Zr53    Zr   0.63713   0.38842   0.01378   1.000
    Zr54    Zr   0.75129   0.36287   0.01378   1.000
    Zr55    Zr   0.75129   0.38842   0.51378   1.000
    Zr56    Zr   0.61158   0.36287   0.51378   1.000
    Zr57    Zr   0.63713   0.24871   0.51378   1.000
    Zr58    Zr   0.38842   0.75129   0.98622   1.000
    Zr59    Zr   0.36287   0.61158   0.98622   1.000
    Zr60    Zr   0.24871   0.63713   0.98622   1.000
    Zr61    Zr   0.91538   0.94491   0.81955   1.000
    Zr62    Zr   0.05509   0.97046   0.81955   1.000
    Zr63    Zr   0.02954   0.08462   0.81955   1.000
    Zr64    Zr   0.27825   0.58204   0.34711   1.000
    Zr65    Zr   0.30380   0.72175   0.34711   1.000
    Zr66    Zr   0.41796   0.69620   0.34711   1.000
    Zr67    Zr   0.41796   0.72175   0.84711   1.000
    Zr68    Zr   0.27825   0.69620   0.84711   1.000
    Zr69    Zr   0.30380   0.58204   0.84711   1.000
    Zr70    Zr   0.05509   0.08462   0.31955   1.000
    Zr71    Zr   0.02954   0.94491   0.31955   1.000
    Zr72    Zr   0.91538   0.97046   0.31955   1.000
    Zr73    Zr   0.58204   0.27825   0.15289   1.000
    Zr74    Zr   0.72175   0.30380   0.15289   1.000
    Zr75    Zr   0.69620   0.41796   0.15289   1.000
    Zr76    Zr   0.94491   0.91538   0.68045   1.000
    Zr77    Zr   0.97046   0.05509   0.68045   1.000
    Zr78    Zr   0.08462   0.02954   0.68045   1.000
    Zr79    Zr   0.08462   0.05509   0.18045   1.000
    Zr80    Zr   0.94491   0.02954   0.18045   1.000
    Zr81    Zr   0.97046   0.91538   0.18045   1.000
    Zr82    Zr   0.72175   0.41796   0.65289   1.000
    Zr83    Zr   0.69620   0.27825   0.65289   1.000
    Zr84    Zr   0.58204   0.30380   0.65289   1.000
    Zr85    Zr   0.66670   0.33330   0.03649   1.000
    Zr86    Zr   0.66670   0.33330   0.53649   1.000
    Zr87    Zr   0.33330   0.66670   0.96351   1.000
    Zr88    Zr   0.99997   0.00003   0.79684   1.000
    Zr89    Zr   0.99997   0.99993   0.79684   1.000
    Zr90    Zr   0.00007   0.00003   0.79684   1.000
    Zr91    Zr   0.33337   0.66663   0.36982   1.000
    Zr92    Zr   0.33337   0.66663   0.86982   1.000
    Zr93    Zr   0.99997   0.00003   0.29684   1.000
    Zr94    Zr   0.00007   0.00003   0.29684   1.000
    Zr95    Zr   0.99997   0.99993   0.29684   1.000
    Zr96    Zr   0.66663   0.33337   0.13018   1.000
    Zr97    Zr   0.00003   0.99997   0.70316   1.000
    Zr98    Zr   0.99993   0.99997   0.70316   1.000
    Zr99    Zr   0.00003   0.00007   0.70316   1.000
    Zr100   Zr   0.00003   0.99997   0.20316   1.000
    Zr101   Zr   0.00003   0.00007   0.20316   1.000
    Zr102   Zr   0.99993   0.99997   0.20316   1.000
    Zr103   Zr   0.66663   0.33337   0.63018   1.000
    N104    N    0.54754   0.00258   0.31311   1.000
    O105    O    0.49105   0.86917   0.32828   1.000
    O106    O    0.62408   0.13480   0.29740   1.000
    O107    O    0.56391   0.12312   0.29684   1.000
    O108    O    0.44041   0.88034   0.32842   1.000
    N109    N    0.45504   0.45246   0.31311   1.000
    O110    O    0.37812   0.50895   0.32828   1.000
    O111    O    0.51071   0.37592   0.29740   1.000
    O112    O    0.55921   0.43609   0.29684   1.000
    O113    O    0.43993   0.55959   0.32842   1.000
    N114    N    0.11913   0.78838   0.52022   1.000
    O115    O    0.17562   0.71146   0.50506   1.000
    O116    O    0.04258   0.84405   0.53594   1.000
    O117    O    0.10276   0.89255   0.53650   1.000
    O118    O    0.22626   0.77326   0.50491   1.000
    N119    N    0.33075   0.21162   0.97978   1.000
    O120    O    0.46416   0.28854   0.99494   1.000
    O121    O    0.19854   0.15595   0.96406   1.000
    O122    O    0.21021   0.10745   0.96350   1.000
    O123    O    0.45300   0.22674   0.99509   1.000
    N124    N    0.87829   0.21420   0.35355   1.000
    O125    O    0.95521   0.15772   0.33839   1.000
    O126    O    0.89341   0.10708   0.33825   1.000
    O127    O    0.82262   0.29075   0.36927   1.000
    O128    O    0.77412   0.23058   0.36983   1.000
    N129    N    0.54496   0.99742   0.18689   1.000
    O130    O    0.62188   0.13083   0.17172   1.000
    O131    O    0.48929   0.86520   0.20260   1.000
    O132    O    0.56007   0.11966   0.17158   1.000
    O133    O    0.44079   0.87688   0.20316   1.000
    N134    N    0.00258   0.45504   0.68689   1.000
    O135    O    0.12312   0.55921   0.70316   1.000
    O136    O    0.88034   0.43993   0.67158   1.000
    O137    O    0.13480   0.51071   0.70260   1.000
    O138    O    0.86917   0.37812   0.67172   1.000
    N139    N    0.45246   0.99742   0.68689   1.000
    O140    O    0.50895   0.13083   0.67172   1.000
    O141    O    0.55959   0.11966   0.67158   1.000
    O142    O    0.37592   0.86520   0.70260   1.000
    O143    O    0.43609   0.87688   0.70316   1.000
    N144    N    0.21162   0.33075   0.52022   1.000
    O145    O    0.15595   0.19854   0.53594   1.000
    O146    O    0.22674   0.45300   0.50491   1.000
    O147    O    0.10745   0.21021   0.53650   1.000
    O148    O    0.28854   0.46416   0.50506   1.000
    N149    N    0.50650   0.99767   0.43781   1.000
    O150    O    0.56466   0.10875   0.41699   1.000
    O151    O    0.43377   0.85281   0.44903   1.000
    O152    O    0.57804   0.14464   0.42694   1.000
    O153    O    0.43977   0.88798   0.45851   1.000
    N154    N    0.88087   0.21162   0.47978   1.000
    O155    O    0.95742   0.15595   0.46406   1.000
    O156    O    0.89724   0.10745   0.46350   1.000
    O157    O    0.77374   0.22674   0.49509   1.000
    O158    O    0.82438   0.28854   0.49494   1.000
    N159    N    0.66925   0.78838   0.02022   1.000
    O160    O    0.80146   0.84405   0.03594   1.000
    O161    O    0.53584   0.71146   0.00506   1.000
    O162    O    0.78979   0.89255   0.03650   1.000
    O163    O    0.54700   0.77326   0.00491   1.000
    N164    N    0.87829   0.66409   0.85355   1.000
    O165    O    0.82262   0.53187   0.86927   1.000
    O166    O    0.95521   0.79749   0.83839   1.000
    O167    O    0.77412   0.54354   0.86983   1.000
    O168    O    0.89341   0.78633   0.83825   1.000
    N169    N    0.33591   0.21420   0.85355   1.000
    O170    O    0.46813   0.29075   0.86927   1.000
    O171    O    0.20251   0.15772   0.83839   1.000
    O172    O    0.45646   0.23058   0.86983   1.000
    O173    O    0.21367   0.10708   0.83825   1.000
    N174    N    0.78580   0.12171   0.85355   1.000
    O175    O    0.84228   0.04479   0.83839   1.000
    O176    O    0.70925   0.17738   0.86927   1.000
    O177    O    0.76942   0.22588   0.86983   1.000
    O178    O    0.89292   0.10659   0.83825   1.000
    N179    N    0.99742   0.54496   0.31311   1.000
    O180    O    0.13083   0.62187   0.32828   1.000
    O181    O    0.86520   0.48929   0.29740   1.000
    O182    O    0.87688   0.44078   0.29684   1.000
    O183    O    0.11966   0.56007   0.32842   1.000
    N184    N    0.45504   0.00258   0.81311   1.000
    O185    O    0.37812   0.86917   0.82828   1.000
    O186    O    0.51071   0.13480   0.79740   1.000
    O187    O    0.55921   0.12312   0.79684   1.000
    O188    O    0.43993   0.88034   0.82842   1.000
    N189    N    0.99742   0.45246   0.81311   1.000
    O190    O    0.13083   0.50895   0.82828   1.000
    O191    O    0.86520   0.37592   0.79740   1.000
    O192    O    0.11966   0.55959   0.82842   1.000
    O193    O    0.87688   0.43609   0.79684   1.000
    N194    N    0.11913   0.33075   0.02022   1.000
    O195    O    0.17562   0.46416   0.00506   1.000
    O196    O    0.04258   0.19854   0.03594   1.000
    O197    O    0.10276   0.21021   0.03650   1.000
    O198    O    0.22626   0.45300   0.00491   1.000
    N199    N    0.88087   0.66925   0.97978   1.000
    O200    O    0.82438   0.53584   0.99494   1.000
    O201    O    0.95742   0.80146   0.96406   1.000
    O202    O    0.89724   0.78979   0.96350   1.000
    O203    O    0.77374   0.54700   0.99509   1.000
    N204    N    0.54496   0.54754   0.68689   1.000
    O205    O    0.62188   0.49105   0.67172   1.000
    O206    O    0.48929   0.62408   0.70260   1.000
    O207    O    0.56007   0.44041   0.67158   1.000
    O208    O    0.44079   0.56391   0.70316   1.000
    N209    N    0.66925   0.88087   0.52022   1.000
    O210    O    0.53584   0.82438   0.50506   1.000
    O211    O    0.80146   0.95742   0.53594   1.000
    O212    O    0.78979   0.89724   0.53650   1.000
    O213    O    0.54700   0.77374   0.50491   1.000
    N214    N    0.66409   0.87829   0.64645   1.000
    O215    O    0.53187   0.82262   0.63073   1.000
    O216    O    0.78633   0.89341   0.66175   1.000
    O217    O    0.79749   0.95521   0.66161   1.000
    O218    O    0.54354   0.77412   0.63017   1.000
    N219    N    0.21420   0.33591   0.64645   1.000
    O220    O    0.29075   0.46813   0.63073   1.000
    O221    O    0.10708   0.21367   0.66175   1.000
    O222    O    0.15772   0.20251   0.66161   1.000
    O223    O    0.23058   0.45646   0.63017   1.000
    N224    N    0.66409   0.78580   0.14645   1.000
    O225    O    0.53187   0.70925   0.13073   1.000
    O226    O    0.78633   0.89292   0.16175   1.000
    O227    O    0.54354   0.76942   0.13017   1.000
    O228    O    0.79749   0.84228   0.16161   1.000
    N229    N    0.21420   0.87829   0.14645   1.000
    O230    O    0.23058   0.77412   0.13017   1.000
    O231    O    0.29075   0.82262   0.13073   1.000
    O232    O    0.10708   0.89341   0.16175   1.000
    O233    O    0.15772   0.95521   0.16161   1.000
    N234    N    0.78838   0.11913   0.97978   1.000
    O235    O    0.71146   0.17562   0.99494   1.000
    O236    O    0.84405   0.04258   0.96406   1.000
    O237    O    0.77326   0.22626   0.99509   1.000
    O238    O    0.89255   0.10276   0.96350   1.000
    N239    N    0.33591   0.12171   0.35355   1.000
    O240    O    0.46813   0.17738   0.36927   1.000
    O241    O    0.21367   0.10659   0.33825   1.000
    O242    O    0.20251   0.04479   0.33839   1.000
    O243    O    0.45646   0.22588   0.36983   1.000
    N244    N    0.78580   0.66409   0.35355   1.000
    O245    O    0.84228   0.79749   0.33839   1.000
    O246    O    0.70925   0.53187   0.36927   1.000
    O247    O    0.89292   0.78633   0.33825   1.000
    O248    O    0.76942   0.54354   0.36983   1.000
    N249    N    0.78838   0.66925   0.47978   1.000
    O250    O    0.71146   0.53584   0.49494   1.000
    O251    O    0.84405   0.80146   0.46406   1.000
    O252    O    0.77326   0.54700   0.49509   1.000
    O253    O    0.89255   0.78979   0.46350   1.000
    N254    N    0.33075   0.11913   0.47978   1.000
    O255    O    0.46416   0.17562   0.49494   1.000
    O256    O    0.19854   0.04258   0.46406   1.000
    O257    O    0.21021   0.10276   0.46350   1.000
    O258    O    0.45300   0.22626   0.49509   1.000
    N259    N    0.21162   0.88087   0.02022   1.000
    O260    O    0.28854   0.82438   0.00506   1.000
    O261    O    0.15595   0.95742   0.03594   1.000
    O262    O    0.10745   0.89724   0.03650   1.000
    O263    O    0.22674   0.77374   0.00491   1.000
    N264    N    0.00233   0.50883   0.43781   1.000
    O265    O    0.89125   0.45591   0.41699   1.000
    O266    O    0.85536   0.43340   0.42694   1.000
    O267    O    0.14719   0.58099   0.44903   1.000
    O268    O    0.11202   0.55178   0.45851   1.000
    N269    N    0.49117   0.49350   0.43781   1.000
    O270    O    0.54409   0.43534   0.41699   1.000
    O271    O    0.56660   0.42196   0.42694   1.000
    O272    O    0.41901   0.56623   0.44903   1.000
    O273    O    0.44822   0.56023   0.45851   1.000
    N274    N    0.99767   0.50650   0.06219   1.000
    O275    O    0.10875   0.56466   0.08301   1.000
    O276    O    0.14464   0.57804   0.07306   1.000
    O277    O    0.85281   0.43377   0.05097   1.000
    O278    O    0.88798   0.43977   0.04149   1.000
    N279    N    0.50883   0.00233   0.06219   1.000
    O280    O    0.45591   0.89125   0.08301   1.000
    O281    O    0.43340   0.85536   0.07306   1.000
    O282    O    0.58099   0.14719   0.05097   1.000
    O283    O    0.55178   0.11202   0.04149   1.000
    N284    N    0.49350   0.49117   0.06219   1.000
    O285    O    0.43534   0.54409   0.08301   1.000
    O286    O    0.42196   0.56660   0.07306   1.000
    O287    O    0.56623   0.41901   0.05097   1.000
    O288    O    0.56023   0.44822   0.04149   1.000
    N289    N    0.16017   0.82450   0.39552   1.000
    O290    O    0.23289   0.75234   0.38430   1.000
    O291    O    0.08863   0.89994   0.40639   1.000
    O292    O    0.22690   0.78155   0.37482   1.000
    O293    O    0.10201   0.87743   0.41634   1.000
    N294    N    0.16017   0.33567   0.89552   1.000
    O295    O    0.08863   0.18869   0.90639   1.000
    O296    O    0.22690   0.44535   0.87482   1.000
    O297    O    0.23289   0.48052   0.88430   1.000
    O298    O    0.10201   0.22458   0.91634   1.000
    N299    N    0.66433   0.82450   0.89552   1.000
    O300    O    0.81131   0.89994   0.90639   1.000
    O301    O    0.51948   0.75234   0.88430   1.000
    O302    O    0.77542   0.87743   0.91634   1.000
    O303    O    0.55465   0.78155   0.87482   1.000
    N304    N    0.17550   0.83983   0.89552   1.000
    O305    O    0.10006   0.91137   0.90639   1.000
    O306    O    0.24766   0.76711   0.88430   1.000
    O307    O    0.12257   0.89799   0.91634   1.000
    O308    O    0.21845   0.77310   0.87482   1.000
    N309    N    0.66900   0.82684   0.27115   1.000
    O310    O    0.52202   0.75529   0.26027   1.000
    O311    O    0.81386   0.89956   0.28236   1.000
    O312    O    0.81388   0.89956   0.28236   1.000
    O313    O    0.81386   0.89953   0.28236   1.000
    O314    O    0.55792   0.76868   0.25033   1.000
    O315    O    0.77869   0.89357   0.29185   1.000
    N316    N    0.00233   0.49350   0.93781   1.000
    O317    O    0.89125   0.43534   0.91699   1.000
    O318    O    0.85536   0.42196   0.92694   1.000
    O319    O    0.11202   0.56023   0.95851   1.000
    O320    O    0.14719   0.56623   0.94903   1.000
    N321    N    0.49117   0.99767   0.93781   1.000
    O322    O    0.54409   0.10875   0.91699   1.000
    O323    O    0.41901   0.85281   0.94903   1.000
    O324    O    0.56660   0.14464   0.92694   1.000
    O325    O    0.44822   0.88798   0.95851   1.000
    N326    N    0.50650   0.50883   0.93781   1.000
    O327    O    0.56466   0.45591   0.91699   1.000
    O328    O    0.43377   0.58099   0.94903   1.000
    O329    O    0.57804   0.43340   0.92694   1.000
    O330    O    0.43977   0.55178   0.95851   1.000
    N331    N    0.50883   0.50650   0.56219   1.000
    O332    O    0.45591   0.56466   0.58301   1.000
    O333    O    0.58099   0.43377   0.55097   1.000
    O334    O    0.55178   0.43977   0.54149   1.000
    O335    O    0.43340   0.57804   0.57306   1.000
    N336    N    0.83983   0.17550   0.60448   1.000
    O337    O    0.89799   0.12257   0.58366   1.000
    O338    O    0.91137   0.10006   0.59361   1.000
    O339    O    0.76711   0.24766   0.61570   1.000
    O340    O    0.77310   0.21845   0.62518   1.000
    N341    N    0.82450   0.66433   0.60448   1.000
    O342    O    0.87743   0.77542   0.58366   1.000
    O343    O    0.89994   0.81131   0.59361   1.000
    O344    O    0.75234   0.51948   0.61570   1.000
    O345    O    0.78155   0.55465   0.62518   1.000
    N346    N    0.17316   0.84216   0.27115   1.000
    O347    O    0.24471   0.76673   0.26027   1.000
    O348    O    0.10643   0.88512   0.29185   1.000
    O349    O    0.23132   0.78924   0.25033   1.000
    O350    O    0.10044   0.91432   0.28236   1.000
    O351    O    0.10047   0.91432   0.28236   1.000
    O352    O    0.10044   0.91430   0.28236   1.000
    N353    N    0.83983   0.66433   0.10448   1.000
    O354    O    0.91137   0.81131   0.09361   1.000
    O355    O    0.77310   0.55465   0.12518   1.000
    O356    O    0.89799   0.77542   0.08366   1.000
    O357    O    0.76711   0.51948   0.11570   1.000
    N358    N    0.82684   0.66900   0.22885   1.000
    O359    O    0.76868   0.55792   0.24967   1.000
    O360    O    0.89357   0.77869   0.20815   1.000
    O361    O    0.89956   0.81386   0.21764   1.000
    O362    O    0.89956   0.81388   0.21764   1.000
    O363    O    0.89953   0.81386   0.21764   1.000
    O364    O    0.75529   0.52202   0.23973   1.000
    N365    N    0.33100   0.15784   0.22885   1.000
    O366    O    0.44208   0.21076   0.24967   1.000
    O367    O    0.22131   0.11488   0.20815   1.000
    O368    O    0.47798   0.23327   0.23973   1.000
    O369    O    0.18614   0.08568   0.21764   1.000
    O370    O    0.18614   0.08570   0.21764   1.000
    O371    O    0.18612   0.08568   0.21764   1.000
    N372    N    0.84216   0.17316   0.22885   1.000
    O373    O    0.78924   0.23132   0.24967   1.000
    O374    O    0.88512   0.10643   0.20815   1.000
    O375    O    0.76673   0.24471   0.23973   1.000
    O376    O    0.91432   0.10044   0.21764   1.000
    O377    O    0.91432   0.10047   0.21764   1.000
    O378    O    0.91430   0.10044   0.21764   1.000
    N379    N    0.33567   0.16017   0.60448   1.000
    O380    O    0.22458   0.10201   0.58366   1.000
    O381    O    0.18869   0.08863   0.59361   1.000
    O382    O    0.48052   0.23289   0.61570   1.000
    O383    O    0.44535   0.22690   0.62518   1.000
    N384    N    0.54754   0.54496   0.81311   1.000
    O385    O    0.62408   0.48929   0.79740   1.000
    O386    O    0.44041   0.56007   0.82842   1.000
    O387    O    0.56391   0.44079   0.79684   1.000
    O388    O    0.49105   0.62188   0.82828   1.000
    N389    N    0.00258   0.54754   0.18689   1.000
    O390    O    0.86917   0.49105   0.17172   1.000
    O391    O    0.13480   0.62408   0.20260   1.000
    O392    O    0.88034   0.44041   0.17158   1.000
    O393    O    0.12312   0.56391   0.20316   1.000
    N394    N    0.49350   0.00233   0.56219   1.000
    O395    O    0.43534   0.89125   0.58301   1.000
    O396    O    0.42196   0.85536   0.57306   1.000
    O397    O    0.56623   0.14719   0.55097   1.000
    O398    O    0.56023   0.11202   0.54149   1.000
    N399    N    0.82450   0.16017   0.10448   1.000
    O400    O    0.78155   0.22690   0.12518   1.000
    O401    O    0.89994   0.08863   0.09361   1.000
    O402    O    0.75234   0.23289   0.11570   1.000
    O403    O    0.87743   0.10201   0.08366   1.000
    N404    N    0.33100   0.17316   0.72885   1.000
    O405    O    0.22131   0.10643   0.70815   1.000
    O406    O    0.47798   0.24471   0.73973   1.000
    O407    O    0.18614   0.10044   0.71764   1.000
    O408    O    0.18612   0.10044   0.71764   1.000
    O409    O    0.18614   0.10047   0.71764   1.000
    O410    O    0.44208   0.23132   0.74967   1.000
    N411    N    0.84216   0.66900   0.72885   1.000
    O412    O    0.88512   0.77869   0.70815   1.000
    O413    O    0.78924   0.55792   0.74967   1.000
    O414    O    0.76673   0.52202   0.73973   1.000
    O415    O    0.91432   0.81386   0.71764   1.000
    O416    O    0.91430   0.81386   0.71764   1.000
    O417    O    0.91432   0.81388   0.71764   1.000
    N418    N    0.82684   0.15784   0.72885   1.000
    O419    O    0.76868   0.21076   0.74967   1.000
    O420    O    0.89357   0.11488   0.70815   1.000
    O421    O    0.89956   0.08568   0.71764   1.000
    O422    O    0.89953   0.08568   0.71764   1.000
    O423    O    0.89956   0.08570   0.71764   1.000
    O424    O    0.75529   0.23327   0.73973   1.000
    N425    N    0.45246   0.45504   0.18689   1.000
    O426    O    0.37592   0.51071   0.20260   1.000
    O427    O    0.55959   0.43993   0.17158   1.000
    O428    O    0.50895   0.37812   0.17172   1.000
    O429    O    0.43609   0.55921   0.20316   1.000
    N430    N    0.15784   0.33100   0.27115   1.000
    O431    O    0.23327   0.47798   0.26027   1.000
    O432    O    0.21076   0.44208   0.25033   1.000
    O433    O    0.11488   0.22131   0.29185   1.000
    O434    O    0.08568   0.18614   0.28236   1.000
    O435    O    0.08570   0.18614   0.28236   1.000
    O436    O    0.08568   0.18612   0.28236   1.000
    N437    N    0.33567   0.17550   0.10448   1.000
    O438    O    0.44535   0.21845   0.12518   1.000
    O439    O    0.18869   0.10006   0.09361   1.000
    O440    O    0.22458   0.12257   0.08366   1.000
    O441    O    0.48052   0.24766   0.11570   1.000
    N442    N    0.12171   0.33591   0.14645   1.000
    O443    O    0.10659   0.21367   0.16175   1.000
    O444    O    0.17738   0.46813   0.13073   1.000
    O445    O    0.22588   0.45646   0.13017   1.000
    O446    O    0.04479   0.20251   0.16161   1.000
    N447    N    0.99767   0.49117   0.56219   1.000
    O448    O    0.10875   0.54409   0.58301   1.000
    O449    O    0.85281   0.41901   0.55097   1.000
    O450    O    0.88798   0.44822   0.54149   1.000
    O451    O    0.14464   0.56660   0.57306   1.000
    N452    N    0.12171   0.78580   0.64645   1.000
    O453    O    0.10659   0.89292   0.66175   1.000
    O454    O    0.17738   0.70925   0.63073   1.000
    O455    O    0.04479   0.84228   0.66161   1.000
    O456    O    0.22588   0.76942   0.63017   1.000
    N457    N    0.00003   0.00007   0.18645   1.000
    O458    O    0.02118   0.01382   0.18495   1.000
    O459    O    0.00003   0.00007   0.19062   1.000
    O460    O    0.98625   0.00743   0.18495   1.000
    O461    O    0.99264   0.97889   0.18495   1.000
    O462    O    0.00003   0.00004   0.19062   1.000
    O463    O    0.00001   0.00004   0.19062   1.000
    N464    N    0.99993   0.99997   0.18645   1.000
    O465    O    0.99993   0.99997   0.19062   1.000
    O466    O    0.98618   0.00736   0.18495   1.000
    O467    O    0.02111   0.01375   0.18495   1.000
    O468    O    0.99257   0.97882   0.18495   1.000
    O469    O    0.99996   0.99997   0.19062   1.000
    O470    O    0.99996   0.99999   0.19062   1.000
    N471    N    0.17316   0.33100   0.77115   1.000
    O472    O    0.23132   0.44208   0.75033   1.000
    O473    O    0.24471   0.47798   0.76027   1.000
    O474    O    0.10643   0.22131   0.79185   1.000
    O475    O    0.10044   0.18614   0.78236   1.000
    O476    O    0.10044   0.18612   0.78236   1.000
    O477    O    0.10047   0.18614   0.78236   1.000
    N478    N    0.66900   0.84216   0.77115   1.000
    O479    O    0.55792   0.78924   0.75033   1.000
    O480    O    0.52202   0.76673   0.76027   1.000
    O481    O    0.77869   0.88512   0.79185   1.000
    O482    O    0.81386   0.91432   0.78236   1.000
    O483    O    0.81386   0.91430   0.78236   1.000
    O484    O    0.81388   0.91432   0.78236   1.000
    N485    N    0.66663   0.33337   0.64689   1.000
    O486    O    0.66663   0.33337   0.64271   1.000
    O487    O    0.64549   0.32597   0.64839   1.000
    O488    O    0.68041   0.35451   0.64839   1.000
    O489    O    0.67403   0.31959   0.64839   1.000
    N490    N    0.17550   0.33567   0.39552   1.000
    O491    O    0.24766   0.48052   0.38430   1.000
    O492    O    0.10006   0.18869   0.40639   1.000
    O493    O    0.21845   0.44535   0.37482   1.000
    O494    O    0.12257   0.22458   0.41634   1.000
    N495    N    0.15784   0.82684   0.77115   1.000
    O496    O    0.23327   0.75529   0.76027   1.000
    O497    O    0.11488   0.89357   0.79185   1.000
    O498    O    0.08568   0.89956   0.78236   1.000
    O499    O    0.08568   0.89953   0.78236   1.000
    O500    O    0.08570   0.89956   0.78236   1.000
    O501    O    0.21076   0.76868   0.75033   1.000
    N502    N    0.66433   0.83983   0.39552   1.000
    O503    O    0.81131   0.91137   0.40639   1.000
    O504    O    0.55465   0.77310   0.37482   1.000
    O505    O    0.51948   0.76711   0.38430   1.000
    O506    O    0.77542   0.89799   0.41634   1.000
    N507    N    0.33330   0.66670   0.48022   1.000
    O508    O    0.33330   0.66670   0.47604   1.000
    O509    O    0.34069   0.68785   0.48172   1.000
    O510    O    0.31215   0.65292   0.48172   1.000
    O511    O    0.34708   0.65931   0.48172   1.000
    N512    N    0.00000   0.00000   0.56245   1.000
    O513    O    0.99256   0.01368   0.56098   1.000
    O514    O    0.02112   0.00743   0.56098   1.000
    O515    O    0.00000   0.00000   0.56675   1.000
    O516    O    0.98632   0.97888   0.56098   1.000
    N517    N    0.00000   0.00000   0.43755   1.000
    O518    O    0.00744   0.98632   0.43902   1.000
    O519    O    0.01368   0.02112   0.43902   1.000
    O520    O    0.00000   0.00000   0.43325   1.000
    O521    O    0.97888   0.99256   0.43902   1.000
    N522    N    0.00000   0.00000   0.06245   1.000
    O523    O    0.02112   0.01368   0.06098   1.000
    O524    O    0.98632   0.00743   0.06098   1.000
    O525    O    0.00000   0.00000   0.06675   1.000
    O526    O    0.99256   0.97888   0.06098   1.000
    N527    N    0.33330   0.66670   0.98022   1.000
    O528    O    0.33330   0.66670   0.97604   1.000
    O529    O    0.31215   0.65931   0.98172   1.000
    O530    O    0.34708   0.68785   0.98172   1.000
    O531    O    0.34069   0.65292   0.98172   1.000
    N532    N    0.99997   0.00003   0.81355   1.000
    O533    O    0.99997   0.00003   0.80938   1.000
    O534    O    0.00736   0.02118   0.81505   1.000
    O535    O    0.97882   0.98625   0.81505   1.000
    O536    O    0.01375   0.99264   0.81505   1.000
    O537    O    0.99997   0.00001   0.80938   1.000
    O538    O    0.99999   0.00003   0.80938   1.000
    N539    N    0.33333   0.66667   0.22912   1.000
    O540    O    0.35445   0.67410   0.22765   1.000
    O541    O    0.32590   0.68035   0.22765   1.000
    O542    O    0.33333   0.66667   0.23341   1.000
    O543    O    0.31965   0.64555   0.22765   1.000
    N544    N    0.33333   0.66667   0.60422   1.000
    O545    O    0.34702   0.65923   0.60568   1.000
    O546    O    0.34077   0.68778   0.60568   1.000
    O547    O    0.33333   0.66667   0.59992   1.000
    O548    O    0.31222   0.65298   0.60568   1.000
    N549    N    0.00000   0.00000   0.93755   1.000
    O550    O    0.97888   0.98632   0.93902   1.000
    O551    O    0.01368   0.99256   0.93902   1.000
    O552    O    0.00000   0.00000   0.93325   1.000
    O553    O    0.00744   0.02112   0.93902   1.000
    N554    N    0.00003   0.00007   0.68645   1.000
    O555    O    0.99264   0.01382   0.68495   1.000
    O556    O    0.00003   0.00007   0.69062   1.000
    O557    O    0.98625   0.97889   0.68495   1.000
    O558    O    0.02118   0.00743   0.68495   1.000
    O559    O    0.00003   0.00004   0.69062   1.000
    O560    O    0.00001   0.00004   0.69062   1.000
    N561    N    0.00003   0.99997   0.18645   1.000
    O562    O    0.99264   0.97882   0.18495   1.000
    O563    O    0.00003   0.99997   0.19062   1.000
    O564    O    0.02118   0.01375   0.18495   1.000
    O565    O    0.98625   0.00736   0.18495   1.000
    O566    O    0.00003   0.99999   0.19062   1.000
    O567    O    0.00001   0.99997   0.19062   1.000
    N568    N    0.66670   0.33330   0.01978   1.000
    O569    O    0.66670   0.33330   0.02396   1.000
    O570    O    0.68785   0.34069   0.01828   1.000
    O571    O    0.65292   0.31215   0.01828   1.000
    O572    O    0.65931   0.34708   0.01828   1.000
    N573    N    0.66670   0.33330   0.51978   1.000
    O574    O    0.65931   0.31215   0.51828   1.000
    O575    O    0.66670   0.33330   0.52396   1.000
    O576    O    0.68785   0.34708   0.51828   1.000
    O577    O    0.65292   0.34069   0.51828   1.000
    N578    N    0.99997   0.00003   0.31355   1.000
    O579    O    0.99997   0.00003   0.30938   1.000
    O580    O    0.97882   0.99264   0.31505   1.000
    O581    O    0.01375   0.02118   0.31505   1.000
    O582    O    0.00736   0.98625   0.31505   1.000
    O583    O    0.99999   0.00003   0.30938   1.000
    O584    O    0.99997   0.00001   0.30938   1.000
    N585    N    0.00007   0.00003   0.31355   1.000
    O586    O    0.00007   0.00003   0.30938   1.000
    O587    O    0.01382   0.02118   0.31505   1.000
    O588    O    0.00743   0.98625   0.31505   1.000
    O589    O    0.97889   0.99264   0.31505   1.000
    O590    O    0.00004   0.00003   0.30938   1.000
    O591    O    0.00004   0.00001   0.30938   1.000
    N592    N    0.33337   0.66663   0.35311   1.000
    O593    O    0.35451   0.67403   0.35161   1.000
    O594    O    0.33337   0.66663   0.35729   1.000
    O595    O    0.31959   0.64549   0.35161   1.000
    O596    O    0.32597   0.68041   0.35161   1.000
    N597    N    0.33337   0.66663   0.85311   1.000
    O598    O    0.32597   0.64549   0.85161   1.000
    O599    O    0.33337   0.66663   0.85729   1.000
    O600    O    0.35451   0.68041   0.85161   1.000
    O601    O    0.31959   0.67403   0.85161   1.000
    N602    N    0.00003   0.99997   0.68645   1.000
    O603    O    0.02118   0.00736   0.68495   1.000
    O604    O    0.00003   0.99997   0.69062   1.000
    O605    O    0.98625   0.97882   0.68495   1.000
    O606    O    0.99264   0.01375   0.68495   1.000
    O607    O    0.00001   0.99997   0.69062   1.000
    O608    O    0.00003   0.99999   0.69062   1.000
    N609    N    0.99993   0.99997   0.68645   1.000
    O610    O    0.98618   0.97882   0.68495   1.000
    O611    O    0.99993   0.99997   0.69062   1.000
    O612    O    0.99257   0.01375   0.68495   1.000
    O613    O    0.02111   0.00736   0.68495   1.000
    O614    O    0.99996   0.99997   0.69062   1.000
    O615    O    0.99996   0.99999   0.69062   1.000
    N616    N    0.33333   0.66667   0.10422   1.000
    O617    O    0.34077   0.65298   0.10568   1.000
    O618    O    0.34702   0.68778   0.10568   1.000
    O619    O    0.33333   0.66667   0.09992   1.000
    O620    O    0.31222   0.65923   0.10568   1.000
    N621    N    0.33333   0.66667   0.72912   1.000
    O622    O    0.35445   0.68035   0.72765   1.000
    O623    O    0.31965   0.67410   0.72765   1.000
    O624    O    0.33333   0.66667   0.73341   1.000
    O625    O    0.32590   0.64555   0.72765   1.000
    N626    N    0.99997   0.99993   0.81355   1.000
    O627    O    0.99997   0.99993   0.80938   1.000
    O628    O    0.97882   0.98618   0.81505   1.000
    O629    O    0.01375   0.99257   0.81505   1.000
    O630    O    0.00736   0.02111   0.81505   1.000
    O631    O    0.99997   0.99996   0.80938   1.000
    O632    O    0.99999   0.99996   0.80938   1.000
    N633    N    0.00007   0.00003   0.81355   1.000
    O634    O    0.00007   0.00003   0.80938   1.000
    O635    O    0.01382   0.99264   0.81505   1.000
    O636    O    0.97889   0.98625   0.81505   1.000
    O637    O    0.00743   0.02118   0.81505   1.000
    O638    O    0.00004   0.00003   0.80938   1.000
    O639    O    0.00004   0.00001   0.80938   1.000
    N640    N    0.66667   0.33333   0.89578   1.000
    O641    O    0.65923   0.34702   0.89432   1.000
    O642    O    0.65298   0.31222   0.89432   1.000
    O643    O    0.66667   0.33333   0.90008   1.000
    O644    O    0.68778   0.34077   0.89432   1.000
    N645    N    0.66667   0.33333   0.27088   1.000
    O646    O    0.68035   0.32590   0.27235   1.000
    O647    O    0.67410   0.35445   0.27235   1.000
    O648    O    0.66667   0.33333   0.26659   1.000
    O649    O    0.64555   0.31965   0.27235   1.000
    N650    N    0.99997   0.99993   0.31355   1.000
    O651    O    0.99997   0.99993   0.30938   1.000
    O652    O    0.00736   0.98618   0.31505   1.000
    O653    O    0.01375   0.02111   0.31505   1.000
    O654    O    0.97882   0.99257   0.31505   1.000
    O655    O    0.99997   0.99996   0.30938   1.000
    O656    O    0.99999   0.99996   0.30938   1.000
    N657    N    0.66663   0.33337   0.14689   1.000
    O658    O    0.66663   0.33337   0.14271   1.000
    O659    O    0.67403   0.35451   0.14839   1.000
    O660    O    0.64549   0.31959   0.14839   1.000
    O661    O    0.68041   0.32597   0.14839   1.000
    N662    N    0.66667   0.33333   0.77088   1.000
    O663    O    0.68035   0.35445   0.77235   1.000
    O664    O    0.67410   0.31965   0.77235   1.000
    O665    O    0.66667   0.33333   0.76659   1.000
    O666    O    0.64555   0.32590   0.77235   1.000
    N667    N    0.66667   0.33333   0.39578   1.000
    O668    O    0.65298   0.34077   0.39432   1.000
    O669    O    0.65923   0.31222   0.39432   1.000
    O670    O    0.66667   0.33333   0.40008   1.000
    O671    O    0.68778   0.34702   0.39432   1.000
loop_
    _geom_bond_atom_site_label_1
    _geom_bond_atom_site_label_2
    _geom_bond_distance
    _geom_bond_site_symmetry_2
    _ccdc_geom_bond_type
    N104   O105      3.31453  1_545   S
    Zr66   O105      4.25056      .   S
    N104   O106      3.32653      .   S
    Zr29   O106      4.28125      .   S
    N104   O107      3.32526      .   S
    Zr30   O107      4.25632      .   S
    N104   O108      3.31147  1_545   S
    Zr65   O108      4.20900      .   S
    N109   O110      3.31453      .   S
    Zr64   O110      4.25056      .   S
    N109   O111      3.32653      .   S
    Zr30   O111      4.28125      .   S
    N109   O112      3.32526      .   S
    Zr31   O112      4.25632      .   S
    N109   O113      3.31147      .   S
    Zr66   O113      4.20900      .   S
    N114   O115      3.31453      .   S
    Zr2    O115      4.25056      .   S
    N114   O116      3.32653      .   S
    Zr15   O116      4.28125  1_655   S
    N114   O117      3.32526      .   S
    Zr16   O117      4.25632  1_545   S
    N114   O118      3.31147      .   S
    Zr51   O118      4.20900      .   S
    N119   O120      3.31453      .   S
    Zr53   O120      4.25056  1_554   S
    N119   O121      3.32653      .   S
    Zr19   O121      4.28125      .   S
    N119   O122      3.32526      .   S
    Zr17   O122      4.25632  1_565   S
    N119   O123      3.31147      .   S
    Zr52   O123      4.20900  1_554   S
    N124   O125      3.31453      .   S
    Zr70   O125      4.25056  1_455   S
    N124   O126      3.31147      .   S
    Zr72   O126      4.20900  1_565   S
    N124   O127      3.32653      .   S
    Zr36   O127      4.28125      .   S
    N124   O128      3.32526      .   S
    Zr37   O128      4.25632      .   S
    N129   O130      3.31453  1_565   S
    Zr74   O130      4.25056      .   S
    N129   O131      3.32653      .   S
    Zr40   O131      4.28125      .   S
    N129   O132      3.31147  1_565   S
    Zr73   O132      4.20900      .   S
    N129   O133      3.32526      .   S
    Zr38   O133      4.25632      .   S
    N134   O135      3.32526      .   S
    Zr47   O135      4.25632      .   S
    N134   O136      3.31147  1_455   S
    Zr82   O136      4.20900      .   S
    N134   O137      3.32653      .   S
    Zr49   O137      4.28125      .   S
    N134   O138      3.31453  1_455   S
    Zr83   O138      4.25056      .   S
    N139   O140      3.31453  1_565   S
    Zr84   O140      4.25056      .   S
    N139   O141      3.31147  1_565   S
    Zr83   O141      4.20900      .   S
    N139   O142      3.32653      .   S
    Zr47   O142      4.28125      .   S
    N139   O143      3.32526      .   S
    Zr48   O143      4.25632      .   S
    N144   O145      3.32653      .   S
    Zr16   O145      4.28125      .   S
    N144   O146      3.31147      .   S
    Zr2    O146      4.20900      .   S
    N144   O147      3.32526      .   S
    Zr1    O147      4.25632  1_655   S
    N144   O148      3.31453      .   S
    Zr50   O148      4.25056      .   S
    N149   O150      3.32834  1_565   S
    Zr37   O150      4.26352      .   S
    N149   O151      3.32035      .   S
    Zr3    O151      4.27278      .   S
    N149   O152      3.34780  1_565   S
    Zr10   O152      4.30015      .   S
    N149   O153      3.30976      .   S
    Zr51   O153      4.26996      .   S
    N154   O155      3.32653      .   S
    Zr21   O155      4.28125  1_455   S
    N154   O156      3.32526      .   S
    Zr22   O156      4.25632  1_565   S
    N154   O157      3.31147      .   S
    Zr57   O157      4.20900      .   S
    N154   O158      3.31453      .   S
    Zr55   O158      4.25056      .   S
    N159   O160      3.32653      .   S
    Zr25   O160      4.28125      .   S
    N159   O161      3.31453      .   S
    Zr59   O161      4.25056  1_556   S
    N159   O162      3.32526      .   S
    Zr23   O162      4.25632  1_545   S
    N159   O163      3.31147      .   S
    Zr58   O163      4.20900  1_556   S
    N164   O165      3.32653      .   S
    Zr28   O165      4.28125      .   S
    N164   O166      3.31453      .   S
    Zr62   O166      4.25056  1_455   S
    N164   O167      3.32526      .   S
    Zr26   O167      4.25632      .   S
    N164   O168      3.31147      .   S
    Zr61   O168      4.20900      .   S
    N169   O170      3.32653      .   S
    Zr26   O170      4.28125      .   S
    N169   O171      3.31453      .   S
    Zr63   O171      4.25056      .   S
    N169   O172      3.32526      .   S
    Zr27   O172      4.25632      .   S
    N169   O173      3.31147      .   S
    Zr62   O173      4.20900  1_565   S
    N174   O175      3.31453      .   S
    Zr61   O175      4.25056  1_565   S
    N174   O176      3.32653      .   S
    Zr27   O176      4.28125      .   S
    N174   O177      3.32526      .   S
    Zr28   O177      4.25632      .   S
    N174   O178      3.31147      .   S
    Zr63   O178      4.20900  1_455   S
    N179   O180      3.31453  1_655   S
    Zr65   O180      4.25056      .   S
    N179   O181      3.32653      .   S
    Zr31   O181      4.28125      .   S
    N179   O182      3.32526      .   S
    Zr29   O182      4.25632      .   S
    N179   O183      3.31147  1_655   S
    Zr64   O183      4.20900      .   S
    N184   O185      3.31453  1_545   S
    Zr68   O185      4.25056      .   S
    N184   O186      3.32653      .   S
    Zr34   O186      4.28125      .   S
    N184   O187      3.32526      .   S
    Zr32   O187      4.25632      .   S
    N184   O188      3.31147  1_545   S
    Zr67   O188      4.20900      .   S
    N189   O190      3.31453  1_655   S
    Zr69   O190      4.25056      .   S
    N189   O191      3.32653      .   S
    Zr32   O191      4.28125      .   S
    N189   O192      3.31147  1_655   S
    Zr68   O192      4.20900      .   S
    N189   O193      3.32526      .   S
    Zr33   O193      4.25632      .   S
    N194   O195      3.31453      .   S
    Zr60   O195      4.25056  1_556   S
    N194   O196      3.32653      .   S
    Zr23   O196      4.28125  1_655   S
    N194   O197      3.32526      .   S
    Zr24   O197      4.25632      .   S
    N194   O198      3.31147      .   S
    Zr59   O198      4.20900  1_556   S
    N199   O200      3.31453      .   S
    Zr54   O200      4.25056  1_554   S
    N199   O201      3.32653      .   S
    Zr17   O201      4.28125  1_455   S
    N199   O202      3.32526      .   S
    Zr18   O202      4.25632      .   S
    N199   O203      3.31147      .   S
    Zr53   O203      4.20900  1_554   S
    N204   O205      3.31453      .   S
    Zr82   O205      4.25056      .   S
    N204   O206      3.32653      .   S
    Zr48   O206      4.28125      .   S
    N204   O207      3.31147      .   S
    Zr84   O207      4.20900      .   S
    N204   O208      3.32526      .   S
    Zr49   O208      4.25632      .   S
    N209   O210      3.31453      .   S
    Zr51   O210      4.25056      .   S
    N209   O211      3.32653      .   S
    Zr1    O211      4.28125  1_545   S
    N209   O212      3.32526      .   S
    Zr15   O212      4.25632      .   S
    N209   O213      3.31147      .   S
    Zr50   O213      4.20900      .   S
    N214   O215      3.32653      .   S
    Zr43   O215      4.28125      .   S
    N214   O216      3.31147      .   S
    Zr76   O216      4.20900      .   S
    N214   O217      3.31453      .   S
    Zr77   O217      4.25056  1_545   S
    N214   O218      3.32526      .   S
    Zr41   O218      4.25632      .   S
    N219   O220      3.32653      .   S
    Zr41   O220      4.28125      .   S
    N219   O221      3.31147      .   S
    Zr77   O221      4.20900  1_655   S
    N219   O222      3.31453      .   S
    Zr78   O222      4.25056      .   S
    N219   O223      3.32526      .   S
    Zr42   O223      4.25632      .   S
    N224   O225      3.32653      .   S
    Zr44   O225      4.28125      .   S
    N224   O226      3.31147      .   S
    Zr80   O226      4.20900  1_545   S
    N224   O227      3.32526      .   S
    Zr45   O227      4.25632      .   S
    N224   O228      3.31453      .   S
    Zr81   O228      4.25056      .   S
    N229   O230      3.32526      .   S
    Zr46   O230      4.25632      .   S
    N229   O231      3.32653      .   S
    Zr45   O231      4.28125      .   S
    N229   O232      3.31147      .   S
    Zr81   O232      4.20900  1_655   S
    N229   O233      3.31453      .   S
    Zr79   O233      4.25056  1_545   S
    N234   O235      3.31453      .   S
    Zr52   O235      4.25056  1_554   S
    N234   O236      3.32653      .   S
    Zr18   O236      4.28125  1_565   S
    N234   O237      3.31147      .   S
    Zr54   O237      4.20900  1_554   S
    N234   O238      3.32526      .   S
    Zr19   O238      4.25632  1_455   S
    N239   O240      3.32653      .   S
    Zr37   O240      4.28125      .   S
    N239   O241      3.31147      .   S
    Zr70   O241      4.20900      .   S
    N239   O242      3.31453      .   S
    Zr71   O242      4.25056  1_565   S
    N239   O243      3.32526      .   S
    Zr35   O243      4.25632      .   S
    N244   O245      3.31453      .   S
    Zr72   O245      4.25056      .   S
    N244   O246      3.32653      .   S
    Zr35   O246      4.28125      .   S
    N244   O247      3.31147      .   S
    Zr71   O247      4.20900  1_455   S
    N244   O248      3.32526      .   S
    Zr36   O248      4.25632      .   S
    N249   O250      3.31453      .   S
    Zr56   O250      4.25056      .   S
    N249   O251      3.32653      .   S
    Zr22   O251      4.28125      .   S
    N249   O252      3.31147      .   S
    Zr55   O252      4.20900      .   S
    N249   O253      3.32526      .   S
    Zr20   O253      4.25632  1_455   S
    N254   O255      3.31453      .   S
    Zr57   O255      4.25056      .   S
    N254   O256      3.32653      .   S
    Zr20   O256      4.28125  1_565   S
    N254   O257      3.32526      .   S
    Zr21   O257      4.25632      .   S
    N254   O258      3.31147      .   S
    Zr56   O258      4.20900      .   S
    N259   O260      3.31453      .   S
    Zr58   O260      4.25056  1_556   S
    N259   O261      3.32653      .   S
    Zr24   O261      4.28125  1_545   S
    N259   O262      3.32526      .   S
    Zr25   O262      4.25632  1_655   S
    N259   O263      3.31147      .   S
    Zr60   O263      4.20900  1_556   S
    N264   O265      3.32834  1_455   S
    Zr36   O265      4.26352      .   S
    N264   O266      3.34780  1_455   S
    Zr10   O266      4.30015      .   S
    N264   O267      3.32035      .   S
    Zr3    O267      4.27270      .   S
    N264   O268      3.30976      .   S
    Zr2    O268      4.26996      .   S
    N269   O270      3.32834      .   S
    Zr35   O270      4.26352      .   S
    N269   O271      3.34780      .   S
    Zr10   O271      4.30015      .   S
    N269   O272      3.32084      .   S
    Zr3    O272      4.27421      .   S
    N269   O273      3.30976      .   S
    Zr50   O273      4.26996      .   S
    N274   O275      3.32834  1_655   S
    Zr46   O275      4.26352      .   S
    N274   O276      3.34780  1_655   S
    Zr13   O276      4.30015      .   S
    N274   O277      3.32035      .   S
    Zr85   O277      4.27278      .   S
    N274   O278      3.30976      .   S
    Zr54   O278      4.26996      .   S
    N279   O280      3.32834  1_545   S
    Zr45   O280      4.26352      .   S
    N279   O281      3.34780  1_545   S
    Zr13   O281      4.30015      .   S
    N279   O282      3.32035      .   S
    Zr85   O282      4.27270      .   S
    N279   O283      3.30976      .   S
    Zr52   O283      4.26996      .   S
    N284   O285      3.32834      .   S
    Zr44   O285      4.26352      .   S
    N284   O286      3.34780      .   S
    Zr13   O286      4.30015      .   S
    N284   O287      3.32084      .   S
    Zr85   O287      4.27421      .   S
    N284   O288      3.30976      .   S
    Zr53   O288      4.26996      .   S
    N289   O290      3.32084      .   S
    Zr91   O290      4.27421      .   S
    N289   O291      3.34780      .   S
    Zr5    O291      4.30015  1_545   S
    N289   O292      3.30976      .   S
    Zr65   O292      4.26996      .   S
    N289   O293      3.32834      .   S
    Zr20   O293      4.26352      .   S
    N294   O295      3.34780      .   S
    Zr4    O295      4.30015      .   S
    N294   O296      3.30976      .   S
    Zr69   O296      4.26996      .   S
    N294   O297      3.32035      .   S
    Zr92   O297      4.27278      .   S
    N294   O298      3.32834      .   S
    Zr19   O298      4.26352      .   S
    N299   O300      3.34780      .   S
    Zr4    O300      4.30015  1_445   S
    N299   O301      3.32035      .   S
    Zr92   O301      4.27270      .   S
    N299   O302      3.32834      .   S
    Zr18   O302      4.26352      .   S
    N299   O303      3.30976      .   S
    Zr67   O303      4.26996      .   S
    N304   O305      3.34780      .   S
    Zr4    O305      4.30015  1_545   S
    N304   O306      3.32084      .   S
    Zr92   O306      4.27421      .   S
    N304   O307      3.32834      .   S
    Zr17   O307      4.26352      .   S
    N304   O308      3.30976      .   S
    Zr68   O308      4.26996      .   S
    N309   O310      3.34780      .   S
    Zr11   O310      4.30015      .   S
    N309   O311      3.32035      .   S
    Zr93   O311      4.27278  1_545   S
    N309   O312      3.32084      .   S
    Zr94   O312      4.27421  1_445   S
    N309   O313      3.32035      .   S
    Zr95   O313      4.27270      .   S
    N309   O314      3.32834      .   S
    Zr40   O314      4.26352      .   S
    N309   O315      3.30976      .   S
    Zr72   O315      4.26996      .   S
    N316   O317      3.32834  1_455   S
    Zr28   O317      4.26352      .   S
    N316   O318      3.34780  1_455   S
    Zr7    O318      4.30015      .   S
    N316   O319      3.30976      .   S
    Zr60   O319      4.26996      .   S
    N316   O320      3.32035      .   S
    Zr87   O320      4.27278      .   S
    N321   O322      3.32834  1_565   S
    Zr27   O322      4.26352      .   S
    N321   O323      3.32035      .   S
    Zr87   O323      4.27270      .   S
    N321   O324      3.34780  1_565   S
    Zr7    O324      4.30015      .   S
    N321   O325      3.30976      .   S
    Zr58   O325      4.26996      .   S
    N326   O327      3.32834      .   S
    Zr26   O327      4.26352      .   S
    N326   O328      3.32084      .   S
    Zr87   O328      4.27421      .   S
    N326   O329      3.34780      .   S
    Zr7    O329      4.30015      .   S
    N326   O330      3.30976      .   S
    Zr59   O330      4.26996      .   S
    N331   O332      3.32834      .   S
    Zr41   O332      4.26352      .   S
    N331   O333      3.32084      .   S
    Zr86   O333      4.27421      .   S
    N331   O334      3.30976      .   S
    Zr56   O334      4.26996      .   S
    N331   O335      3.34780      .   S
    Zr12   O335      4.30015      .   S
    N336   O337      3.32834      .   S
    Zr1    O337      4.26352      .   S
    N336   O338      3.34780      .   S
    Zr0    O338      4.30015  1_455   S
    N336   O339      3.32084      .   S
    Zr103  O339      4.27421      .   S
    N336   O340      3.30976      .   S
    Zr83   O340      4.26996      .   S
    N341   O342      3.32834      .   S
    Zr15   O342      4.26352      .   S
    N341   O343      3.34780      .   S
    Zr0    O343      4.30015  1_445   S
    N341   O344      3.32035      .   S
    Zr103  O344      4.27270      .   S
    N341   O345      3.30976      .   S
    Zr82   O345      4.26996      .   S
    N346   O347      3.34780      .   S
    Zr11   O347      4.30015      .   S
    N346   O348      3.30976      .   S
    Zr71   O348      4.26996      .   S
    N346   O349      3.32834      .   S
    Zr38   O349      4.26352      .   S
    N346   O350      3.32084      .   S
    Zr93   O350      4.27421  1_645   S
    N346   O351      3.32035      .   S
    Zr94   O351      4.27270  1_545   S
    N346   O352      3.32035      .   S
    Zr95   O352      4.27278  1_655   S
    N353   O354      3.34780      .   S
    Zr6    O354      4.30015  1_445   S
    N353   O355      3.30976      .   S
    Zr75   O355      4.26996      .   S
    N353   O356      3.32834      .   S
    Zr25   O356      4.26352      .   S
    N353   O357      3.32035      .   S
    Zr96   O357      4.27278      .   S
    N358   O359      3.32834      .   S
    Zr31   O359      4.26352      .   S
    N358   O360      3.30976      .   S
    Zr81   O360      4.26996      .   S
    N358   O361      3.32035      .   S
    Zr100  O361      4.27278  1_455   S
    N358   O362      3.32084      .   S
    Zr101  O362      4.27421  1_445   S
    N358   O363      3.32035      .   S
    Zr102  O363      4.27270      .   S
    N358   O364      3.34780      .   S
    Zr8    O364      4.30015      .   S
    N365   O366      3.32834      .   S
    Zr30   O366      4.26352      .   S
    N365   O367      3.30976      .   S
    Zr79   O367      4.26996      .   S
    N365   O368      3.34780      .   S
    Zr8    O368      4.30015      .   S
    N365   O369      3.32035      .   S
    Zr100  O369      4.27270  1_565   S
    N365   O370      3.32035      .   S
    Zr101  O370      4.27278      .   S
    N365   O371      3.32084      .   S
    Zr102  O371      4.27421  1_665   S
    N372   O373      3.32834      .   S
    Zr29   O373      4.26352      .   S
    N372   O374      3.30976      .   S
    Zr80   O374      4.26996      .   S
    N372   O375      3.34780      .   S
    Zr8    O375      4.30015      .   S
    N372   O376      3.32084      .   S
    Zr100  O376      4.27421  1_465   S
    N372   O377      3.32035      .   S
    Zr101  O377      4.27270  1_455   S
    N372   O378      3.32035      .   S
    Zr102  O378      4.27278  1_565   S
    N379   O380      3.32834      .   S
    Zr16   O380      4.26352      .   S
    N379   O381      3.34780      .   S
    Zr0    O381      4.30015      .   S
    N379   O382      3.32035      .   S
    Zr103  O382      4.27278      .   S
    N379   O383      3.30976      .   S
    Zr84   O383      4.26996      .   S
    N384   O385      3.32653      .   S
    Zr33   O385      4.28125      .   S
    N384   O386      3.31147      .   S
    Zr69   O386      4.20900      .   S
    N384   O387      3.32526      .   S
    Zr34   O387      4.25632      .   S
    N384   O388      3.31453      .   S
    Zr67   O388      4.25056      .   S
    N389   O390      3.31453  1_455   S
    Zr75   O390      4.25056      .   S
    N389   O391      3.32653      .   S
    Zr38   O391      4.28125      .   S
    N389   O392      3.31147  1_455   S
    Zr74   O392      4.20900      .   S
    N389   O393      3.32526      .   S
    Zr39   O393      4.25632      .   S
    N394   O395      3.32834  1_545   S
    Zr43   O395      4.26352      .   S
    N394   O396      3.34780  1_545   S
    Zr12   O396      4.30015      .   S
    N394   O397      3.32035      .   S
    Zr86   O397      4.27278      .   S
    N394   O398      3.30976      .   S
    Zr57   O398      4.26996      .   S
    N399   O400      3.30976      .   S
    Zr74   O400      4.26996      .   S
    N399   O401      3.34780      .   S
    Zr6    O401      4.30015  1_455   S
    N399   O402      3.32084      .   S
    Zr96   O402      4.27421      .   S
    N399   O403      3.32834      .   S
    Zr23   O403      4.26352      .   S
    N404   O405      3.30976      .   S
    Zr78   O405      4.26996      .   S
    N404   O406      3.34780      .   S
    Zr9    O406      4.30015      .   S
    N404   O407      3.32035      .   S
    Zr97   O407      4.27278  1_565   S
    N404   O408      3.32084      .   S
    Zr98   O408      4.27421  1_665   S
    N404   O409      3.32035      .   S
    Zr99   O409      4.27270      .   S
    N404   O410      3.32834      .   S
    Zr34   O410      4.26352      .   S
    N411   O412      3.30976      .   S
    Zr76   O412      4.26996      .   S
    N411   O413      3.32834      .   S
    Zr33   O413      4.26352      .   S
    N411   O414      3.34780      .   S
    Zr9    O414      4.30015      .   S
    N411   O415      3.32035      .   S
    Zr97   O415      4.27270  1_455   S
    N411   O416      3.32035      .   S
    Zr98   O416      4.27278      .   S
    N411   O417      3.32084      .   S
    Zr99   O417      4.27421  1_445   S
    N418   O419      3.32834      .   S
    Zr32   O419      4.26352      .   S
    N418   O420      3.30976      .   S
    Zr77   O420      4.26996      .   S
    N418   O421      3.32084      .   S
    Zr97   O421      4.27421  1_465   S
    N418   O422      3.32035      .   S
    Zr98   O422      4.27270  1_565   S
    N418   O423      3.32035      .   S
    Zr99   O423      4.27278  1_455   S
    N418   O424      3.34780      .   S
    Zr9    O424      4.30015      .   S
    N425   O426      3.32653      .   S
    Zr39   O426      4.28125      .   S
    N425   O427      3.31147      .   S
    Zr75   O427      4.20900      .   S
    N425   O428      3.31453      .   S
    Zr73   O428      4.25056      .   S
    N425   O429      3.32526      .   S
    Zr40   O429      4.25632      .   S
    N430   O431      3.34780      .   S
    Zr11   O431      4.30015      .   S
    N430   O432      3.32834      .   S
    Zr39   O432      4.26352      .   S
    N430   O433      3.30976      .   S
    Zr70   O433      4.26996      .   S
    N430   O434      3.32035      .   S
    Zr93   O434      4.27270  1_655   S
    N430   O435      3.32035      .   S
    Zr94   O435      4.27278      .   S
    N430   O436      3.32084      .   S
    Zr95   O436      4.27421  1_665   S
    N437   O438      3.30976      .   S
    Zr73   O438      4.26996      .   S
    N437   O439      3.34780      .   S
    Zr6    O439      4.30015      .   S
    N437   O440      3.32834      .   S
    Zr24   O440      4.26352      .   S
    N437   O441      3.32035      .   S
    Zr96   O441      4.27270      .   S
    N442   O443      3.31147      .   S
    Zr79   O443      4.20900      .   S
    N442   O444      3.32653      .   S
    Zr46   O444      4.28125      .   S
    N442   O445      3.32526      .   S
    Zr44   O445      4.25632      .   S
    N442   O446      3.31453      .   S
    Zr80   O446      4.25056  1_655   S
    N447   O448      3.32834  1_655   S
    Zr42   O448      4.26352      .   S
    N447   O449      3.32035      .   S
    Zr86   O449      4.27270      .   S
    N447   O450      3.30976      .   S
    Zr55   O450      4.26996      .   S
    N447   O451      3.34780  1_655   S
    Zr12   O451      4.30015      .   S
    N452   O453      3.31147      .   S
    Zr78   O453      4.20900  1_545   S
    N452   O454      3.32653      .   S
    Zr42   O454      4.28125      .   S
    N452   O455      3.31453      .   S
    Zr76   O455      4.25056  1_655   S
    N452   O456      3.32526      .   S
    Zr43   O456      4.25632      .   S
    N457   O458      0.48530      .   S
    Zr79   O458      1.45590      .   S
    N457   O459      0.47204      .   S
    Zr101  O459      1.41612      .   S
    N457   O460      0.48540  1_455   S
    Zr80   O460      1.45620      .   S
    N457   O461      0.48584  1_445   S
    Zr81   O461      1.45752      .   S
    N457   O462      0.47204      .   S
    Zr100  O462      1.41612  1_565   S
    N457   O463      0.47204      .   S
    Zr102  O463      1.41612  1_665   S
    N464   O465      0.47204      .   S
    Zr102  O465      1.41612      .   S
    N464   O466      0.48530  1_565   S
    Zr80   O466      1.45590      .   S
    N464   O467      0.48584  1_665   S
    Zr79   O467      1.45752      .   S
    N464   O468      0.48540      .   S
    Zr81   O468      1.45620      .   S
    N464   O469      0.47204      .   S
    Zr100  O469      1.41612  1_455   S
    N464   O470      0.47204      .   S
    Zr101  O470      1.41612  1_445   S
    N471   O472      3.32834      .   S
    Zr49   O472      4.26352      .   S
    N471   O473      3.34780      .   S
    Zr14   O473      4.30015      .   S
    N471   O474      3.30976      .   S
    Zr63   O474      4.26996      .   S
    N471   O475      3.32035      .   S
    Zr88   O475      4.27278  1_655   S
    N471   O476      3.32084      .   S
    Zr89   O476      4.27421  1_665   S
    N471   O477      3.32035      .   S
    Zr90   O477      4.27270      .   S
    N478   O479      3.32834      .   S
    Zr48   O479      4.26352      .   S
    N478   O480      3.34780      .   S
    Zr14   O480      4.30015      .   S
    N478   O481      3.30976      .   S
    Zr61   O481      4.26996      .   S
    N478   O482      3.32035      .   S
    Zr88   O482      4.27270  1_545   S
    N478   O483      3.32035      .   S
    Zr89   O483      4.27278      .   S
    N478   O484      3.32084      .   S
    Zr90   O484      4.27421  1_445   S
    N485   O486      0.47204      .   S
    Zr103  O486      1.41612      .   S
    N485   O487      0.48530      .   S
    Zr84   O487      1.45590      .   S
    N485   O488      0.48540      .   S
    Zr82   O488      1.45620      .   S
    N485   O489      0.48584      .   S
    Zr83   O489      1.45752      .   S
    N490   O491      3.32035      .   S
    Zr91   O491      4.27270      .   S
    N490   O492      3.34780      .   S
    Zr5    O492      4.30015      .   S
    N490   O493      3.30976      .   S
    Zr64   O493      4.26996      .   S
    N490   O494      3.32834      .   S
    Zr21   O494      4.26352      .   S
    N495   O496      3.34780      .   S
    Zr14   O496      4.30015      .   S
    N495   O497      3.30976      .   S
    Zr62   O497      4.26996      .   S
    N495   O498      3.32084      .   S
    Zr88   O498      4.27421  1_645   S
    N495   O499      3.32035      .   S
    Zr89   O499      4.27270  1_655   S
    N495   O500      3.32035      .   S
    Zr90   O500      4.27278  1_545   S
    N495   O501      3.32834      .   S
    Zr47   O501      4.26352      .   S
    N502   O503      3.34780      .   S
    Zr5    O503      4.30015  1_445   S
    N502   O504      3.30976      .   S
    Zr66   O504      4.26996      .   S
    N502   O505      3.32035      .   S
    Zr91   O505      4.27278      .   S
    N502   O506      3.32834      .   S
    Zr22   O506      4.26352      .   S
    N507   O508      0.47204      .   S
    Zr3    O508      1.41612      .   S
    N507   O509      0.48530      .   S
    Zr51   O509      1.45590      .   S
    N507   O510      0.48540      .   S
    Zr2    O510      1.45620      .   S
    N507   O511      0.48584      .   S
    Zr50   O511      1.45752      .   S
    N512   O513      0.48322  1_455   S
    Zr1    O513      1.44965      .   S
    N512   O514      0.48322      .   S
    Zr16   O514      1.44965      .   S
    N512   O515      0.48560      .   S
    Zr0    O515      1.45680      .   S
    N512   O516      0.48322  1_445   S
    Zr15   O516      1.44965      .   S
    N517   O518      0.48322  1_545   S
    Zr20   O518      1.44965      .   S
    N517   O519      0.48322      .   S
    Zr21   O519      1.44965      .   S
    N517   O520      0.48560      .   S
    Zr5    O520      1.45680      .   S
    N517   O521      0.48322  1_445   S
    Zr22   O521      1.44965      .   S
    N522   O523      0.48322      .   S
    Zr24   O523      1.44965      .   S
    N522   O524      0.48322  1_455   S
    Zr23   O524      1.44965      .   S
    N522   O525      0.48560      .   S
    Zr6    O525      1.45680      .   S
    N522   O526      0.48322  1_445   S
    Zr25   O526      1.44965      .   S
    N527   O528      0.47204      .   S
    Zr87   O528      1.41612      .   S
    N527   O529      0.48530      .   S
    Zr60   O529      1.45590      .   S
    N527   O530      0.48540      .   S
    Zr58   O530      1.45620      .   S
    N527   O531      0.48584      .   S
    Zr59   O531      1.45752      .   S
    N532   O533      0.47204      .   S
    Zr88   O533      1.41612      .   S
    N532   O534      0.48530  1_655   S
    Zr63   O534      1.45590      .   S
    N532   O535      0.48540  1_545   S
    Zr61   O535      1.45620      .   S
    N532   O536      0.48584  1_645   S
    Zr62   O536      1.45752      .   S
    N532   O537      0.47204      .   S
    Zr89   O537      1.41612  1_565   S
    N532   O538      0.47204      .   S
    Zr90   O538      1.41612  1_455   S
    N539   O540      0.48322      .   S
    Zr40   O540      1.44965      .   S
    N539   O541      0.48322      .   S
    Zr38   O541      1.44965      .   S
    N539   O542      0.48560      .   S
    Zr11   O542      1.45680      .   S
    N539   O543      0.48322      .   S
    Zr39   O543      1.44965      .   S
    N544   O545      0.48322      .   S
    Zr41   O545      1.44965      .   S
    N544   O546      0.48322      .   S
    Zr43   O546      1.44965      .   S
    N544   O547      0.48560      .   S
    Zr12   O547      1.45680      .   S
    N544   O548      0.48322      .   S
    Zr42   O548      1.44965      .   S
    N549   O550      0.48322  1_445   S
    Zr18   O550      1.44965      .   S
    N549   O551      0.48322  1_545   S
    Zr17   O551      1.44965      .   S
    N549   O552      0.48560      .   S
    Zr4    O552      1.45680      .   S
    N549   O553      0.48322      .   S
    Zr19   O553      1.44965      .   S
    N554   O555      0.48530  1_455   S
    Zr77   O555      1.45590      .   S
    N554   O556      0.47204      .   S
    Zr99   O556      1.41612      .   S
    N554   O557      0.48584  1_445   S
    Zr76   O557      1.45752      .   S
    N554   O558      0.48540      .   S
    Zr78   O558      1.45620      .   S
    N554   O559      0.47204      .   S
    Zr97   O559      1.41612  1_565   S
    N554   O560      0.47204      .   S
    Zr98   O560      1.41612  1_665   S
    N561   O562      0.48530  1_455   S
    Zr81   O562      1.45590      .   S
    N561   O563      0.47204      .   S
    Zr100  O563      1.41612      .   S
    N561   O564      0.48540  1_565   S
    Zr79   O564      1.45620      .   S
    N561   O565      0.48584  1_465   S
    Zr80   O565      1.45752      .   S
    N561   O566      0.47204      .   S
    Zr101  O566      1.41612  1_545   S
    N561   O567      0.47204      .   S
    Zr102  O567      1.41612  1_655   S
    N568   O569      0.47204      .   S
    Zr85   O569      1.41612      .   S
    N568   O570      0.48530      .   S
    Zr54   O570      1.45590      .   S
    N568   O571      0.48540      .   S
    Zr52   O571      1.45620      .   S
    N568   O572      0.48584      .   S
    Zr53   O572      1.45752      .   S
    N573   O574      0.48530      .   S
    Zr57   O574      1.45590      .   S
    N573   O575      0.47204      .   S
    Zr86   O575      1.41612      .   S
    N573   O576      0.48540      .   S
    Zr55   O576      1.45620      .   S
    N573   O577      0.48584      .   S
    Zr56   O577      1.45752      .   S
    N578   O579      0.47204      .   S
    Zr93   O579      1.41612      .   S
    N578   O580      0.48530  1_545   S
    Zr72   O580      1.45590      .   S
    N578   O581      0.48540  1_655   S
    Zr70   O581      1.45620      .   S
    N578   O582      0.48584  1_645   S
    Zr71   O582      1.45752      .   S
    N578   O583      0.47204      .   S
    Zr94   O583      1.41612  1_455   S
    N578   O584      0.47204      .   S
    Zr95   O584      1.41612  1_565   S
    N585   O586      0.47204      .   S
    Zr94   O586      1.41612      .   S
    N585   O587      0.48530      .   S
    Zr70   O587      1.45590      .   S
    N585   O588      0.48540  1_545   S
    Zr71   O588      1.45620      .   S
    N585   O589      0.48584  1_445   S
    Zr72   O589      1.45752      .   S
    N585   O590      0.47204      .   S
    Zr93   O590      1.41612  1_655   S
    N585   O591      0.47204      .   S
    Zr95   O591      1.41612  1_665   S
    N592   O593      0.48530      .   S
    Zr66   O593      1.45590      .   S
    N592   O594      0.47204      .   S
    Zr91   O594      1.41612      .   S
    N592   O595      0.48540      .   S
    Zr64   O595      1.45620      .   S
    N592   O596      0.48584      .   S
    Zr65   O596      1.45752      .   S
    N597   O598      0.48530      .   S
    Zr69   O598      1.45590      .   S
    N597   O599      0.47204      .   S
    Zr92   O599      1.41612      .   S
    N597   O600      0.48540      .   S
    Zr67   O600      1.45620      .   S
    N597   O601      0.48584      .   S
    Zr68   O601      1.45752      .   S
    N602   O603      0.48530  1_565   S
    Zr78   O603      1.45590      .   S
    N602   O604      0.47204      .   S
    Zr97   O604      1.41612      .   S
    N602   O605      0.48540  1_455   S
    Zr76   O605      1.45620      .   S
    N602   O606      0.48584  1_465   S
    Zr77   O606      1.45752      .   S
    N602   O607      0.47204      .   S
    Zr98   O607      1.41612  1_655   S
    N602   O608      0.47204      .   S
    Zr99   O608      1.41612  1_545   S
    N609   O610      0.48530      .   S
    Zr76   O610      1.45590      .   S
    N609   O611      0.47204      .   S
    Zr98   O611      1.41612      .   S
    N609   O612      0.48540  1_565   S
    Zr77   O612      1.45620      .   S
    N609   O613      0.48584  1_665   S
    Zr78   O613      1.45752      .   S
    N609   O614      0.47204      .   S
    Zr97   O614      1.41612  1_455   S
    N609   O615      0.47204      .   S
    Zr99   O615      1.41612  1_445   S
    N616   O617      0.48322      .   S
    Zr44   O617      1.44965      .   S
    N616   O618      0.48322      .   S
    Zr45   O618      1.44965      .   S
    N616   O619      0.48560      .   S
    Zr13   O619      1.45680      .   S
    N616   O620      0.48322      .   S
    Zr46   O620      1.44965      .   S
    N621   O622      0.48322      .   S
    Zr48   O622      1.44965      .   S
    N621   O623      0.48322      .   S
    Zr47   O623      1.44965      .   S
    N621   O624      0.48560      .   S
    Zr14   O624      1.45680      .   S
    N621   O625      0.48322      .   S
    Zr49   O625      1.44965      .   S
    N626   O627      0.47204      .   S
    Zr89   O627      1.41612      .   S
    N626   O628      0.48530      .   S
    Zr61   O628      1.45590      .   S
    N626   O629      0.48540  1_655   S
    Zr62   O629      1.45620      .   S
    N626   O630      0.48584  1_665   S
    Zr63   O630      1.45752      .   S
    N626   O631      0.47204      .   S
    Zr88   O631      1.41612  1_545   S
    N626   O632      0.47204      .   S
    Zr90   O632      1.41612  1_445   S
    N633   O634      0.47204      .   S
    Zr90   O634      1.41612      .   S
    N633   O635      0.48530  1_545   S
    Zr62   O635      1.45590      .   S
    N633   O636      0.48584  1_445   S
    Zr61   O636      1.45752      .   S
    N633   O637      0.48540      .   S
    Zr63   O637      1.45620      .   S
    N633   O638      0.47204      .   S
    Zr88   O638      1.41612  1_655   S
    N633   O639      0.47204      .   S
    Zr89   O639      1.41612  1_665   S
    N640   O641      0.48322      .   S
    Zr26   O641      1.44965      .   S
    N640   O642      0.48322      .   S
    Zr27   O642      1.44965      .   S
    N640   O643      0.48560      .   S
    Zr7    O643      1.45680      .   S
    N640   O644      0.48322      .   S
    Zr28   O644      1.44965      .   S
    N645   O646      0.48322      .   S
    Zr29   O646      1.44965      .   S
    N645   O647      0.48322      .   S
    Zr31   O647      1.44965      .   S
    N645   O648      0.48560      .   S
    Zr8    O648      1.45680      .   S
    N645   O649      0.48322      .   S
    Zr30   O649      1.44965      .   S
    N650   O651      0.47204      .   S
    Zr95   O651      1.41612      .   S
    N650   O652      0.48530  1_655   S
    Zr71   O652      1.45590      .   S
    N650   O653      0.48584  1_665   S
    Zr70   O653      1.45752      .   S
    N650   O654      0.48540      .   S
    Zr72   O654      1.45620      .   S
    N650   O655      0.47204      .   S
    Zr93   O655      1.41612  1_545   S
    N650   O656      0.47204      .   S
    Zr94   O656      1.41612  1_445   S
    N657   O658      0.47204      .   S
    Zr96   O658      1.41612      .   S
    N657   O659      0.48530      .   S
    Zr75   O659      1.45590      .   S
    N657   O660      0.48540      .   S
    Zr73   O660      1.45620      .   S
    N657   O661      0.48584      .   S
    Zr74   O661      1.45752      .   S
    N662   O663      0.48322      .   S
    Zr33   O663      1.44965      .   S
    N662   O664      0.48322      .   S
    Zr32   O664      1.44965      .   S
    N662   O665      0.48560      .   S
    Zr9    O665      1.45680      .   S
    N662   O666      0.48322      .   S
    Zr34   O666      1.44965      .   S
    N667   O668      0.48322      .   S
    Zr35   O668      1.44965      .   S
    N667   O669      0.48322      .   S
    Zr37   O669      1.44965      .   S
    N667   O670      0.48560      .   S
    Zr10   O670      1.45680      .   S
    N667   O671      0.48322      .   S
    Zr36   O671      1.44965      .   S
