#------------------------------------------------------------------------------
#$Date: 2017-03-17 06:22:12 +0200 (Fri, 17 Mar 2017) $
#$Revision: 194315 $
#$URL: file:///home/coder/svn-repositories/cod/cif/1/54/55/1545584.cif $
#------------------------------------------------------------------------------
#
# This file is available in the Crystallography Open Database (COD),
# http://www.crystallography.net/
#
# All data on this site have been placed in the public domain by the
# contributors.
#
data_1545584
loop_
_publ_author_name
'Desai, Sai Puneet'
'Malonzo, Camille'
'Webber, Thomas'
'Duan, Jiaxin'
'Thompson, Anthony B.'
'Tereniak, Stephen J.'
'DeStefano, Matthew R.'
'Buru, Cassandra T.'
'Li, Zhanyong'
'Penn, R. Lee'
'Farha, Omar'
'Hupp, J. T.'
'Stein, Andreas'
'Lu, Connie'
_publ_section_title
;
 Assembly of Dicobalt and Cobalt-Aluminum Oxide Clusters on Metal-Organic
 Framework and Nanocast Silica Supports
;
_journal_name_full               'Faraday Discuss.'
_journal_paper_doi               10.1039/C7FD00055C
_journal_year                    2017
_chemical_formula_moiety         'C27 H29 Co2 N7 O'
_chemical_formula_sum            'C27 H29 Co2 N7 O'
_chemical_formula_weight         585.43
_chemical_melting_point          600
_chemical_name_common            CoCoOPh
_chemical_name_systematic        CoCoOPh
_chemical_properties_physical
', Air-sensitive,Moisture-sensitive,Oxygen-sensitive'
_space_group_crystal_system      orthorhombic
_space_group_IT_number           19
_space_group_name_Hall           'P 2ac 2ab'
_space_group_name_H-M_alt        'P 21 21 21'
_symmetry_space_group_name_Hall  'P 2ac 2ab'
_symmetry_space_group_name_H-M   'P 21 21 21'
_atom_sites_solution_hydrogens   geom
_audit_creation_method           SHELXL-2014/7
_audit_update_record
;
2016-12-28 deposited with the CCDC.
2017-03-16 downloaded from the CCDC.
;
_cell_angle_alpha                90
_cell_angle_beta                 90
_cell_angle_gamma                90
_cell_formula_units_Z            4
_cell_length_a                   10.717(2)
_cell_length_b                   15.289(3)
_cell_length_c                   15.415(3)
_cell_measurement_reflns_used    8807
_cell_measurement_temperature    296(2)
_cell_measurement_theta_max      25.22
_cell_measurement_theta_min      2.31
_cell_volume                     2525.8(8)
_computing_cell_refinement       'SAINT, Bruker'
_computing_data_collection       'SMART, Bruker'
_computing_data_reduction        'SAINT, Bruker'
_computing_molecular_graphics    'SHELXTL, Bruker'
_computing_structure_refinement  'SHELXL-2014/7 (Sheldrick, 2014)'
_diffrn_ambient_temperature      296(2)
_diffrn_measured_fraction_theta_full 1.000
_diffrn_measured_fraction_theta_max 0.998
_diffrn_measurement_device_type  'Bruker SMART Platform CCD'
_diffrn_measurement_method       'area detector, omega scans per phi'
_diffrn_radiation_type           MoK\a
_diffrn_radiation_wavelength     0.71073
_diffrn_reflns_av_R_equivalents  0.0419
_diffrn_reflns_av_unetI/netI     0.0323
_diffrn_reflns_Laue_measured_fraction_full 1.000
_diffrn_reflns_Laue_measured_fraction_max 0.998
_diffrn_reflns_limit_h_max       13
_diffrn_reflns_limit_h_min       -13
_diffrn_reflns_limit_k_max       19
_diffrn_reflns_limit_k_min       -19
_diffrn_reflns_limit_l_max       19
_diffrn_reflns_limit_l_min       -19
_diffrn_reflns_number            28977
_diffrn_reflns_point_group_measured_fraction_full 1.000
_diffrn_reflns_point_group_measured_fraction_max 0.997
_diffrn_reflns_theta_full        25.242
_diffrn_reflns_theta_max         27.236
_diffrn_reflns_theta_min         1.876
_diffrn_source                   normal
_exptl_absorpt_coefficient_mu    1.349
_exptl_absorpt_correction_type   multi-scan
_exptl_absorpt_process_details   'SADABS, R. Blessing, 1995'
_exptl_crystal_colour            'purple green'
_exptl_crystal_density_diffrn    1.539
_exptl_crystal_description       cuboidal
_exptl_crystal_F_000             1208
_exptl_crystal_recrystallization_method Layering
_exptl_crystal_size_max          0.4
_exptl_crystal_size_mid          0.4
_exptl_crystal_size_min          0.4
_exptl_transmission_factor_max   0.7455
_exptl_transmission_factor_min   0.6254
_refine_diff_density_max         0.351
_refine_diff_density_min         -0.246
_refine_diff_density_rms         0.052
_refine_ls_abs_structure_details
;
 Flack x determined using 2070 quotients [(I+)-(I-)]/[(I+)+(I-)]
 (Parsons, Flack and Wagner, Acta Cryst. B69 (2013) 249-259).
;
_refine_ls_abs_structure_Flack   -0.008(7)
_refine_ls_extinction_method     none
_refine_ls_goodness_of_fit_ref   1.030
_refine_ls_hydrogen_treatment    constr
_refine_ls_matrix_type           full
_refine_ls_number_parameters     334
_refine_ls_number_reflns         5625
_refine_ls_number_restraints     0
_refine_ls_restrained_S_all      1.030
_refine_ls_R_factor_all          0.0345
_refine_ls_R_factor_gt           0.0284
_refine_ls_shift/su_max          0.025
_refine_ls_shift/su_mean         0.002
_refine_ls_structure_factor_coef Fsqd
_refine_ls_weighting_details
'w=1/[\s^2^(Fo^2^)+(0.0303P)^2^+0.6266P] where P=(Fo^2^+2Fc^2^)/3'
_refine_ls_weighting_scheme      calc
_refine_ls_wR_factor_gt          0.0621
_refine_ls_wR_factor_ref         0.0647
_reflns_Friedel_coverage         0.777
_reflns_Friedel_fraction_full    1.000
_reflns_Friedel_fraction_max     0.996
_reflns_number_gt                5079
_reflns_number_total             5625
_reflns_threshold_expression     'I > 2\s(I)'
_cod_data_source_file            c7fd00055c2.cif
_cod_data_source_block           16243_z
_cod_depositor_comments
;
The following automatic conversions were performed:

'_chemical_melting_point' value '600 K' was changed to '600' - the
value should be numeric and without a unit designator.

Automatic conversion script
Id: cif_fix_values 4973 2017-02-22 13:04:09Z antanas 
;
_cod_original_cell_volume        2525.8(9)
_cod_database_code               1545584
_shelx_shelxl_version_number     2014/7
_shelx_space_group_comment
;
The symmetry employed for this shelxl refinement is uniquely defined
by the following loop, which should always be used as a source of
symmetry information in preference to the above space-group names.
They are only intended as comments.
;
_shelx_res_file
;

    16243_z.res created by SHELXL-2014/7


TITL 16243_z in P2(1)2(1)2(1)
CELL 0.71073 10.7174 15.2891 15.4147 90.000 90.000 90.000
ZERR 4.00 0.0022 0.0031 0.0031 0.000 0.000 0.000
LATT -1
SYMM x+1/2, -y+1/2, -z
SYMM -x, y+1/2, -z+1/2
SYMM -x+1/2, -y, z+1/2
SFAC C H N O CO
UNIT 108 116 28 4 8
LIST 4 ! automatically inserted. Change 6 to 4 for CHECKCIF!!
TEMP 23.000
ACTA
L.S. 1
FMAP 2
PLAN -5 0 0.00
HTAB
BOND $H
CONF
WGHT    0.030300    0.626600
FVAR       0.12061
CO1   5    0.261796    0.494119    0.961916    11.00000    0.01995    0.01785 =
         0.02291   -0.00043    0.00033    0.00031
CO2   5    0.081685    0.415577    1.031533    11.00000    0.02122    0.02022 =
         0.02744    0.00295    0.00000   -0.00056
O1    4    0.401054    0.561532    0.909879    11.00000    0.02997    0.02084 =
         0.03261    0.00230    0.00187   -0.00270
N1    3    0.055371    0.344494    0.933282    11.00000    0.03383    0.02683 =
         0.03384    0.00239   -0.00327   -0.01173
N2    3   -0.063018    0.353549    1.088680    11.00000    0.02570    0.03044 =
         0.03999    0.00856   -0.00153   -0.00374
N3    3    0.182511    0.373156    1.123506    11.00000    0.03157    0.02574 =
         0.02824    0.00464   -0.00095   -0.00254
N4    3    0.345170    0.459607    1.078311    11.00000    0.01944    0.02380 =
         0.02473   -0.00207   -0.00098    0.00382
N5    3   -0.008315    0.521284    1.045277    11.00000    0.02583    0.02783 =
         0.04150    0.00426    0.00737    0.00317
N6    3    0.142222    0.599581    0.973318    11.00000    0.02247    0.02021 =
         0.02313   -0.00064   -0.00167    0.00128
N7    3    0.217084    0.411293    0.860989    11.00000    0.02717    0.01882 =
         0.02447   -0.00252   -0.00390    0.00311
C1    1   -0.042853    0.278744    0.944985    11.00000    0.03980    0.03570 =
         0.04205    0.00232   -0.00832   -0.01561
AFIX  23
H20   2   -0.006321    0.223145    0.961523    11.00000   -1.20000
H19   2   -0.088373    0.270651    0.891192    11.00000   -1.20000
AFIX   0
C2    1   -0.131965    0.311296    1.016872    11.00000    0.03387    0.04674 =
         0.04900    0.01011   -0.00489   -0.01471
AFIX  23
H17   2   -0.190576    0.352788    0.992265    11.00000   -1.20000
H18   2   -0.179213    0.262196    1.039431    11.00000   -1.20000
AFIX   0
C3    1   -0.005080    0.289460    1.148585    11.00000    0.03750    0.03554 =
         0.04482    0.01421    0.00106   -0.00534
AFIX  23
H8    2    0.016905    0.236992    1.116681    11.00000   -1.20000
H1    2   -0.064731    0.273377    1.193142    11.00000   -1.20000
AFIX   0
C4    1    0.111633    0.327359    1.191081    11.00000    0.03780    0.03083 =
         0.03055    0.00762    0.00283   -0.00075
AFIX  23
H7    2    0.088591    0.367712    1.236920    11.00000   -1.20000
H6    2    0.161665    0.280886    1.216082    11.00000   -1.20000
AFIX   0
C5    1    0.293325    0.408426    1.141678    11.00000    0.02390    0.01987 =
         0.02513   -0.00283    0.00019    0.00651
C6    1    0.455716    0.499270    1.095950    11.00000    0.02393    0.03410 =
         0.03174   -0.00315   -0.00031    0.00166
AFIX  43
H2    2    0.491072    0.533992    1.052943    11.00000   -1.20000
AFIX   0
C7    1    0.518688    0.491423    1.173202    11.00000    0.02045    0.05094 =
         0.03553   -0.00649   -0.00622    0.00130
AFIX  43
H3    2    0.593644    0.520590    1.182531    11.00000   -1.20000
AFIX   0
C8    1    0.466494    0.438268    1.237178    11.00000    0.03112    0.04576 =
         0.03003   -0.00278   -0.00820    0.00994
AFIX  43
H5    2    0.507224    0.430929    1.289951    11.00000   -1.20000
AFIX   0
C9    1    0.356568    0.397401    1.222384    11.00000    0.03530    0.03038 =
         0.02666    0.00044   -0.00146    0.00901
AFIX  43
H4    2    0.322018    0.361905    1.265085    11.00000   -1.20000
AFIX   0
C10   1   -0.132884    0.422903    1.134532    11.00000    0.03022    0.04642 =
         0.04570    0.00970    0.01281    0.00037
AFIX  23
H9    2   -0.095035    0.433179    1.190777    11.00000   -1.20000
H16   2   -0.218096    0.403738    1.143941    11.00000   -1.20000
AFIX   0
C11   1   -0.133475    0.508631    1.082270    11.00000    0.02763    0.03557 =
         0.05065    0.00754    0.01178    0.00764
AFIX  23
H14   2   -0.195015    0.505453    1.036236    11.00000   -1.20000
H15   2   -0.154610    0.557364    1.119786    11.00000   -1.20000
AFIX   0
C12   1    0.024870    0.596937    1.009809    11.00000    0.02339    0.02352 =
         0.02518   -0.00070   -0.00205    0.00242
C13   1    0.182525    0.675921    0.939575    11.00000    0.02480    0.02466 =
         0.02748   -0.00177   -0.00321   -0.00260
AFIX  43
H13   2    0.262376    0.677512    0.916013    11.00000   -1.20000
AFIX   0
C14   1    0.113488    0.751147    0.937787    11.00000    0.03585    0.02026 =
         0.03998    0.00165   -0.00314   -0.00046
AFIX  43
H12   2    0.145285    0.802095    0.913340    11.00000   -1.20000
AFIX   0
C15   1   -0.006016    0.749271    0.973690    11.00000    0.03556    0.02227 =
         0.04171   -0.00437   -0.00794    0.00838
AFIX  43
H11   2   -0.055243    0.799363    0.973789    11.00000   -1.20000
AFIX   0
C16   1   -0.049991    0.673326    1.008636    11.00000    0.02318    0.02978 =
         0.03977   -0.00215    0.00068    0.00507
AFIX  43
H10   2   -0.129989    0.671660    1.031951    11.00000   -1.20000
AFIX   0
C17   1    0.126614    0.347209    0.862576    11.00000    0.02875    0.02141 =
         0.03218    0.00142   -0.00991   -0.00016
C18   1    0.283991    0.422397    0.787141    11.00000    0.02811    0.02697 =
         0.02812    0.00292   -0.00223    0.00583
AFIX  43
H24   2    0.342123    0.467538    0.785826    11.00000   -1.20000
AFIX   0
C19   1    0.271923    0.371938    0.714662    11.00000    0.04600    0.03803 =
         0.02159   -0.00062   -0.00095    0.01257
AFIX  43
H23   2    0.318699    0.382930    0.665029    11.00000   -1.20000
AFIX   0
C20   1    0.186251    0.302937    0.718052    11.00000    0.05602    0.03509 =
         0.03158   -0.01300   -0.01302    0.01020
AFIX  43
H22   2    0.177922    0.265532    0.670829    11.00000   -1.20000
AFIX   0
C21   1    0.115448    0.290348    0.789687    11.00000    0.04760    0.02671 =
         0.03750   -0.00454   -0.01256   -0.00220
AFIX  43
H21   2    0.059000    0.244181    0.791373    11.00000   -1.20000
AFIX   0
C22   1    0.509383    0.535436    0.891912    11.00000    0.03198    0.01989 =
         0.01296    0.00030   -0.00131   -0.00241
C23   1    0.608724    0.594908    0.874399    11.00000    0.03041    0.02783 =
         0.03090   -0.00077    0.00413   -0.00313
AFIX  43
H25   2    0.591981    0.654576    0.875794    11.00000   -1.20000
AFIX   0
C24   1    0.728909    0.567907    0.855421    11.00000    0.02905    0.03917 =
         0.03935    0.00262    0.00371   -0.00806
AFIX  43
H26   2    0.790496    0.609599    0.845602    11.00000   -1.20000
AFIX   0
C25   1    0.759046    0.480441    0.850798    11.00000    0.02417    0.04867 =
         0.03905    0.00082    0.00696    0.00523
AFIX  43
H27   2    0.839617    0.462625    0.837028    11.00000   -1.20000
AFIX   0
C26   1    0.666278    0.419925    0.867182    11.00000    0.03013    0.02957 =
         0.04832   -0.00208   -0.00176    0.00508
AFIX  43
H28   2    0.684644    0.360568    0.863891    11.00000   -1.20000
AFIX   0
C27   1    0.546259    0.446137    0.888447    11.00000    0.02497    0.02648 =
         0.04498    0.00175    0.00139   -0.00126
AFIX  43
H29   2    0.487209    0.403404    0.901010    11.00000   -1.20000
AFIX   0
HKLF 4 1 1 0 0 0 1 0 0 0 1

REM  16243_z in P2(1)2(1)2(1)
REM R1 =  0.0284 for    5079 Fo > 4sig(Fo)  and  0.0345 for all    5625 data
REM    334 parameters refined using      0 restraints

END

WGHT      0.0303      0.6266

REM Instructions for potential hydrogen bonds
HTAB C6 O1
HTAB C13 O1
HTAB C18 O1

REM Highest difference peak  0.351,  deepest hole -0.246,  1-sigma level  0.052
Q1    1   0.5195  0.5024  0.9087  11.00000  0.05    0.35
Q2    1   0.5152  0.5052  0.8710  11.00000  0.05    0.34
Q3    1   0.0645  0.4037  0.9727  11.00000  0.05    0.31
Q4    1   0.4581  0.5419  0.8935  11.00000  0.05    0.30
Q5    1   0.2755  0.4450  0.9127  11.00000  0.05    0.28
;
_shelx_res_checksum              89868
_shelx_hkl_file
;
   1   0   0    0.19    0.06
   1   0   0    0.08    0.05
  -1   0   0    0.25    0.06
   2   0   0   10.43    0.29
   2   0   0   10.99    0.46
   2   0   0   10.58    0.46
  -2   0   0   10.21    0.39
   3   0   0    0.06    0.17
   3   0   0   -0.18    0.06
   3   0   0   -0.04    0.12
  -3   0   0   -0.16    0.10
   4   0   0   27.74    1.09
   4   0   0   29.08    1.09
   4   0   0   29.39    0.71
  -4   0   0   28.54    0.96
  -5   0   0   -0.04    0.14
   5   0   0    0.02    0.20
   5   0   0    0.06    0.20
  -5   0   0    0.13    0.08
   6   0   0   77.14    2.45
  -6   0   0   75.55    2.16
   7   0   0    0.20    0.30
   7   0   0    0.42    0.30
  -7   0   0    0.26    0.25
  -8   0   0   27.77    1.27
   8   0   0   28.72    1.52
   8   0   0   26.81    1.47
   9   0   0   -0.02    0.40
   9   0   0   -0.17    0.38
  -9   0   0    0.02    0.28
 -10   0   0    4.87    0.72
  10   0   0    3.75    0.79
  10   0   0    2.78    0.69
  11   0   0    0.17    0.49
  11   0   0    0.49    0.53
 -11   0   0   -0.34    0.33
 -12   0   0    8.80    1.07
  12   0   0   10.43    1.42
  12   0   0    8.61    1.24
 -13   0   0    0.05    0.51
  13   0   0   -0.31    0.62
   0  -1   0   -1.20    0.04
   0   1   0   -1.40    0.02
   0   1   0   -1.34    0.03
   1  -1   0  716.72   15.42
   1  -1   0  711.41   15.20
   1   1   0  733.79   14.89
   1   1   0  732.82   15.23
  -1   1   0  704.97   14.57
   1   1   0  673.13   15.66
   1   1   0  756.68   14.79
   2   1   0    6.71    0.28
  -2  -1   0    6.69    0.31
   2  -1   0    6.98    0.38
   2  -1   0    7.65    0.39
  -2   1   0    7.74    0.37
   2   1   0    6.74    0.39
   2   1   0    6.57    0.39
   3   1   0    4.96    0.41
  -3  -1   0    7.23    0.37
  -3   1   0    6.59    0.39
   3   1   0    6.17    0.29
   3  -1   0    5.85    0.41
   3   1   0    6.64    0.44
  -4   1   0   33.67    1.11
   4   1   0   35.88    1.27
   4  -1   0   34.36    1.21
   4   1   0   34.19    1.24
   4   1   0   34.86    0.92
   4  -1   0   33.37    1.21
  -4  -1   0   33.78    1.06
  -5  -1   0   93.58    2.38
   5   1   0   91.17    2.15
  -5   1   0   94.23    2.46
   5  -1   0   93.59    2.66
   5  -1   0   90.88    2.65
   5   1   0   94.47    2.71
   6  -1   0    0.47    0.30
   6  -1   0   -0.10    0.23
   6   1   0    0.21    0.26
  -6  -1   0   -0.05    0.17
  -6   1   0    0.12    0.22
   6   1   0    0.13    0.12
   6   1   0    0.04    0.24
  -7  -1   0   49.29    1.63
   7   1   0   48.86    1.94
   7  -1   0   48.94    1.89
   7  -1   0   45.61    1.86
  -7   1   0   47.60    1.69
   7   1   0   48.66    1.91
  -8   1   0    8.75    0.83
   8  -1   0    9.20    0.95
   8   1   0    9.08    1.01
   8  -1   0   10.93    1.08
   8   1   0    8.42    0.90
  -8  -1   0    8.34    0.69
  -9   1   0    4.34    0.66
   9   1   0    4.64    0.81
  -9  -1   0    4.71    0.65
   9  -1   0    4.70    0.79
   9   1   0    4.70    0.85
   9  -1   0    3.71    0.70
  10  -1   0   13.46    1.43
 -10  -1   0   12.58    0.96
 -10   1   0   13.94    1.06
  10   1   0   12.55    1.30
  10  -1   0   11.94    1.23
  10   1   0   11.03    1.27
 -11   1   0   13.63    1.12
  11   1   0   12.84    1.36
  11   1   0   12.03    1.34
  11  -1   0   12.83    1.39
 -11  -1   0   15.78    1.14
  11  -1   0   13.06    1.45
  12  -1   0    0.11    0.62
  12   1   0    0.73    0.66
 -12  -1   0    1.80    0.60
  12   1   0    0.40    0.60
 -12   1   0    0.93    0.52
  12  -1   0    0.97    0.66
 -13   1   0    3.30    0.81
  13   1   0    2.71    0.91
  13  -1   0    2.15    0.82
  13  -1   0    1.63    0.77
   0   2   0  932.58   19.74
   0   2   0  959.07   19.69
   0  -2   0  965.83   20.84
   1  -2   0  241.60    5.19
  -1   2   0  233.75    5.06
   1   2   0  250.91    5.37
   1  -2   0  236.82    5.34
   1   2   0  242.62    5.03
   1   2   0  243.50    5.15
  -1   2   0  234.61    5.08
   2   2   0  124.55    2.79
  -2   2   0  124.62    2.66
   2  -2   0  120.16    2.88
  -2   2   0  121.55    2.81
   2  -2   0  122.82    2.95
   2   2   0  122.97    3.00
   2   2   0  124.61    2.93
   2   2   0  125.35    2.73
   3  -2   0    0.85    0.21
   3  -2   0    1.23    0.22
  -3  -2   0    1.06    0.18
   3   2   0    1.26    0.26
   3   2   0    1.14    0.17
  -3   2   0    1.20    0.23
   3   2   0    1.66    0.26
   4   2   0  162.17    3.97
   4   2   0  165.78    3.60
  -4  -2   0  158.35    3.61
   4  -2   0  151.82    3.91
   4   2   0  153.12    4.02
  -4   2   0  159.61    3.76
   4  -2   0  163.67    3.97
  -5   2   0  229.55    5.21
  -5  -2   0  216.95    5.03
   5   2   0  229.50    4.98
   5  -2   0  225.01    5.51
   5   2   0  229.63    5.52
   5  -2   0  227.74    5.48
   5   2   0  216.41    5.56
   6   2   0   80.19    2.50
   6  -2   0   79.71    2.47
  -6   2   0   75.71    2.27
  -6  -2   0   73.46    2.12
   6   2   0   78.02    2.50
   6  -2   0   77.15    2.45
   6   2   0   79.03    1.96
  -7  -2   0   59.34    1.83
   7  -2   0   57.31    2.11
   7  -2   0   57.35    2.12
  -7   2   0   62.10    2.00
   7   2   0   55.16    2.13
   7   2   0   53.84    2.11
   8  -2   0   29.82    1.56
  -8   2   0   30.94    1.42
  -8  -2   0   31.46    1.31
   8   2   0   29.10    1.58
   8   2   0   31.23    1.62
   9  -2   0    5.08    0.81
  -9  -2   0    4.12    0.61
  -9   2   0    3.45    0.62
   9  -2   0    4.32    0.76
   9   2   0    2.75    0.68
   9   2   0    4.73    0.79
  10   2   0   15.31    1.34
 -10   2   0   14.30    1.14
  10  -2   0   15.31    1.45
 -10  -2   0   13.83    1.00
  10  -2   0   12.98    1.33
  10   2   0   14.93    1.29
  11  -2   0   13.99    1.45
  11   2   0   13.45    1.54
  11  -2   0   12.73    1.41
 -11  -2   0   14.73    1.11
 -11   2   0   14.92    1.37
  11   2   0   13.99    1.56
 -12  -2   0   13.94    1.15
  12  -2   0   12.48    1.53
  12   2   0   12.03    1.51
 -12   2   0   14.23    1.37
  12  -2   0   11.14    1.38
  13  -2   0    3.13    0.94
 -13   2   0    1.81    0.68
 -13  -2   0    0.99    0.70
  13  -2   0    1.33    0.72
  13   2   0    1.94    0.84
   0  -3   0    0.02    0.07
   0   3   0    0.08    0.11
   0   3   0   -0.04    0.10
   0  -3   0    0.01    0.11
  -1  -3   0    2.52    0.23
   1   3   0    4.03    0.29
   1  -3   0    3.28    0.21
   1  -3   0    3.25    0.29
   1   3   0    2.81    0.24
  -1   3   0    3.27    0.25
  -1   3   0    3.83    0.31
   2   3   0   15.85    0.69
   2  -3   0   15.79    0.66
   2   3   0   15.79    0.61
   2   3   0   15.31    0.62
  -2   3   0   16.13    0.52
   2  -3   0   16.36    0.60
   2   3   0   16.76    0.59
  -3   3   0   31.74    1.05
   3   3   0   31.13    1.12
   3   3   0   30.70    0.96
   3  -3   0   30.71    1.07
   3   3   0   29.94    0.93
   3   3   0   30.61    1.07
  -3   3   0   32.15    0.80
   3  -3   0   30.33    1.02
  -4   3   0  157.64    3.78
   4  -3   0  158.71    3.96
   4   3   0  161.93    3.98
   4   3   0  161.46    3.66
   4  -3   0  152.35    3.88
  -4  -3   0  155.27    3.59
   4   3   0  159.35    4.06
   5  -3   0   94.48    2.72
   5   3   0   98.88    2.41
   5  -3   0   90.40    2.67
   5   3   0   98.68    2.83
  -5  -3   0   94.46    2.41
  -5   3   0   92.80    2.60
   5   3   0   98.66    2.79
   6   3   0    0.07    0.23
   6  -3   0   -0.03    0.25
  -6   3   0    0.21    0.22
   6   3   0    0.27    0.27
   6   3   0    0.07    0.17
   6  -3   0   -0.08    0.24
  -6  -3   0    0.00    0.16
   7  -3   0   26.22    1.32
   7  -3   0   25.74    1.31
   7   3   0   21.75    1.27
   7   3   0   23.62    1.32
  -7  -3   0   24.54    1.05
  -7   3   0   25.19    1.21
   7   3   0   24.06    0.92
   8  -3   0   27.90    1.49
  -8   3   0   27.59    1.36
   8  -3   0   29.14    1.51
   8   3   0   25.69    1.50
   8   3   0   25.88    1.48
  -8  -3   0   27.26    1.20
   9  -3   0    7.63    0.97
   9  -3   0    8.76    1.01
   9   3   0    7.88    1.01
  -9   3   0    7.60    0.87
   9   3   0    8.70    1.00
  -9  -3   0    9.01    0.83
  10  -3   0   48.47    2.27
  10  -3   0   48.76    2.27
  10   3   0   45.13    2.26
 -10   3   0   45.30    2.01
 -10  -3   0   45.67    1.84
  10   3   0   44.95    2.23
  11  -3   0   17.09    1.51
  11   3   0   13.51    1.49
 -11   3   0   16.85    1.30
  11  -3   0   18.80    1.75
 -11  -3   0   17.14    1.19
  12  -3   0    1.44    0.75
  12  -3   0    0.36    0.59
  12   3   0    1.56    0.75
 -12   3   0    1.44    0.61
  13   3   0   -0.71    0.59
 -13  -3   0    0.36    0.64
  13  -3   0    0.18    0.70
  13  -3   0    0.02    0.65
 -13   3   0    0.52    0.59
   0   4   0    9.38    0.45
   0   4   0    8.29    0.44
   0  -4   0    8.79    0.34
   0  -4   0    8.92    0.48
  -1   4   0   42.53    1.21
   1   4   0   43.78    1.19
   1   4   0   45.38    1.28
  -1  -4   0   45.99    1.17
  -1  -4   0   44.92    1.32
   1  -4   0   43.06    1.31
  -1   4   0   44.86    1.27
   1  -4   0   45.42    1.10
   2  -4   0    0.88    0.22
  -2   4   0    1.17    0.19
   2   4   0    1.05    0.21
  -2   4   0    0.82    0.23
   2  -4   0    1.17    0.19
   2   4   0    0.92    0.22
  -2  -4   0    0.78    0.19
   2   4   0    0.66    0.20
   3   4   0    5.36    0.37
  -3   4   0    6.04    0.46
   3   4   0    5.40    0.39
   3  -4   0    5.36    0.45
   3   4   0    5.86    0.43
   3   4   0    5.86    0.47
  -3   4   0    5.81    0.32
   3  -4   0    5.00    0.39
  -4   4   0  277.15    6.22
  -4   4   0  283.17    5.88
   4  -4   0  262.31    6.33
   4   4   0  271.78    6.14
   4   4   0  285.81    6.61
   4   4   0  274.77    6.42
   4  -4   0  265.21    6.47
   4   4   0  275.87    5.99
  -5   4   0   71.40    2.14
   5  -4   0   70.84    2.16
  -5  -4   0   67.58    1.89
   5   4   0   71.15    2.29
  -5   4   0   72.47    1.60
   5   4   0   70.69    2.21
   5   4   0   70.27    1.94
   5  -4   0   68.45    2.18
  -6   4   0    0.02    0.22
   6  -4   0   -0.11    0.24
   6   4   0    0.25    0.29
   6   4   0    0.00    0.19
  -6  -4   0    0.10    0.17
   6   4   0    0.19    0.27
   6  -4   0    0.16    0.26
  -7  -4   0   57.54    1.82
   7   4   0   58.63    2.19
   7   4   0   58.19    2.24
   7  -4   0   59.65    2.16
   7   4   0   59.14    1.76
   7  -4   0   61.81    2.21
  -7   4   0   56.19    2.04
   8   4   0  107.55    3.48
  -8  -4   0  108.59    3.00
   8  -4   0  107.44    3.44
  -8   4   0  115.34    3.33
   8   4   0  109.72    3.57
   8  -4   0  107.34    3.42
   9  -4   0    0.77    0.51
   9  -4   0    1.19    0.53
   9   4   0    1.11    0.55
  -9  -4   0    0.83    0.35
   9   4   0    0.98    0.55
  -9   4   0    1.50    0.50
  10  -4   0    9.85    1.21
 -10  -4   0   12.70    0.94
  10  -4   0   10.71    1.21
  10   4   0   10.18    1.26
 -10   4   0   12.58    1.20
 -11   4   0   19.55    1.42
  11  -4   0   18.78    1.54
  11  -4   0   15.77    1.56
  11   4   0   18.74    1.61
  12  -4   0    1.02    0.72
  12  -4   0    2.45    0.85
 -12   4   0    2.86    0.78
 -12  -4   0    1.29    0.73
  12   4   0    2.46    0.79
  13   4   0    3.72    0.99
 -13   4   0    4.96    1.00
  13  -4   0    4.03    1.06
 -13  -4   0    3.64    1.00
  13  -4   0    2.46    0.95
   0  -5   0   -0.14    0.09
   0  -5   0   -0.20    0.14
   0   5   0   -0.16    0.13
   0   5   0   -0.02    0.14
  -1   5   0    1.43    0.25
   1  -5   0    1.76    0.29
   1   5   0    1.31    0.26
  -1   5   0    1.48    0.27
   1   5   0    0.70    0.18
  -1  -5   0    0.87    0.22
   1  -5   0    1.52    0.16
  -1  -5   0    0.86    0.16
   2   5   0    2.75    0.31
   2  -5   0    2.23    0.24
   2  -5   0    3.18    0.39
   2   5   0    2.54    0.33
  -2  -5   0    2.37    0.28
  -2   5   0    2.32    0.28
  -2   5   0    2.65    0.34
   3   5   0  253.11    6.01
   3   5   0  257.71    5.54
   3  -5   0  249.67    5.70
   3   5   0  243.45    5.69
  -3  -5   0  253.08    5.82
  -3   5   0  254.85    5.52
   3  -5   0  244.50    5.95
  -3   5   0  248.66    5.70
   4   5   0   23.16    0.94
   4  -5   0   21.68    1.03
   4  -5   0   22.96    0.96
  -4   5   0   23.66    0.76
   4   5   0   22.69    0.87
  -4   5   0   21.30    1.02
   4   5   0   25.92    1.13
   5   5   0   -0.04    0.19
  -5   5   0   -0.10    0.11
   5   5   0   -0.04    0.19
   5   5   0    0.10    0.16
   5   5   0    0.14    0.24
  -5   5   0    0.13    0.25
   5  -5   0   -0.03    0.22
   5  -5   0    0.23    0.24
  -6   5   0   -0.25    0.24
   6   5   0    0.28    0.29
   6  -5   0    0.10    0.27
   6   5   0   -0.02    0.19
   6   5   0    0.16    0.27
  -6  -5   0    0.00    0.15
   6  -5   0   -0.18    0.24
   7   5   0   20.38    1.23
  -7   5   0   20.64    1.18
  -7  -5   0   20.42    0.94
   7  -5   0   19.95    1.18
   7  -5   0   20.34    1.20
   7   5   0   19.76    1.21
   7   5   0   19.54    0.95
   8  -5   0    6.29    0.83
   8   5   0    5.08    0.79
  -8  -5   0    5.84    0.63
   8   5   0    5.67    0.79
  -8   5   0    7.85    0.91
   8  -5   0    6.28    0.83
  -9   5   0   22.49    1.38
   9  -5   0   21.08    1.41
   9  -5   0   20.55    1.39
   9   5   0   19.26    1.42
  -9  -5   0   22.94    1.15
  10  -5   0   16.40    1.38
 -10   5   0   17.46    1.32
  10   5   0   15.00    1.50
  10  -5   0   17.04    1.41
  11  -5   0    4.38    0.91
  11   5   0    4.34    0.92
 -11  -5   0    3.87    0.89
  11  -5   0    4.47    0.93
 -11   5   0    3.93    0.86
 -12  -5   0    0.36    0.62
  12  -5   0    0.70    0.63
 -12   5   0   -0.06    0.50
  12   5   0    0.72    0.58
  12  -5   0    1.00    0.71
  13  -5   0    0.78    0.83
  13   5   0    1.62    0.75
 -13   5   0    1.39    0.69
 -13  -5   0    2.63    0.96
  13  -5   0    1.36    0.80
   0   6   0   24.86    0.93
   0   6   0   24.50    0.96
   0  -6   0   26.05    0.75
   0  -6   0   24.50    1.00
   1  -6   0    1.44    0.17
  -1   6   0    1.30    0.27
  -1   6   0    1.41    0.29
   1   6   0    1.66    0.26
  -1  -6   0    1.19    0.19
  -1  -6   0    1.55    0.29
   1  -6   0    1.01    0.26
   1   6   0    1.06    0.25
  -2   6   0   70.76    1.96
   2  -6   0   74.61    1.86
   2   6   0   73.70    2.08
   2   6   0   73.95    1.98
  -2  -6   0   76.40    1.97
   2  -6   0   73.72    2.17
  -2  -6   0   77.42    2.19
   3  -6   0    2.24    0.31
  -3  -6   0    1.74    0.32
  -3   6   0    2.01    0.29
   3  -6   0    2.22    0.40
   3   6   0    2.24    0.37
   3   6   0    2.33    0.33
  -3   6   0    1.97    0.36
   3   6   0    1.67    0.37
  -4  -6   0  135.09    3.60
   4  -6   0  140.28    3.74
   4   6   0  137.28    3.50
   4   6   0  136.21    3.33
  -4   6   0  141.13    3.26
  -4   6   0  139.72    3.61
   4  -6   0  138.91    3.49
   4   6   0  137.14    3.75
   5   6   0    1.68    0.41
   5   6   0    1.85    0.37
  -5  -6   0    1.96    0.41
  -5   6   0    2.11    0.27
  -5   6   0    1.65    0.41
   5   6   0    1.93    0.33
   5  -6   0    2.25    0.45
   5  -6   0    1.38    0.34
   6   6   0    0.05    0.25
   6  -6   0    0.00    0.25
   6   6   0    0.09    0.26
  -6  -6   0    0.07    0.16
   6  -6   0   -0.39    0.23
  -6   6   0   -0.39    0.24
   7  -6   0    2.09    0.50
   7   6   0    2.68    0.46
  -7   6   0    2.64    0.57
   7   6   0    3.14    0.60
  -7  -6   0    2.74    0.43
   7  -6   0    2.90    0.61
   8   6   0   29.78    1.65
   8  -6   0   30.82    1.64
  -8   6   0   31.32    1.60
   8  -6   0   31.52    1.61
  -8  -6   0   30.22    1.27
  -9  -6   0    7.15    0.78
   9  -6   0    8.50    1.02
  -9   6   0    7.95    0.99
  -9  -6   0    5.68    0.90
   9   6   0    7.58    1.02
   9  -6   0    8.83    1.12
 -10  -6   0   42.55    2.23
  10   6   0   46.65    2.29
  10  -6   0   42.39    2.14
  10  -6   0   38.90    2.15
 -10   6   0   43.16    2.11
  11  -6   0   -0.35    0.49
  11  -6   0   -0.05    0.55
 -11  -6   0   -0.29    0.51
 -11   6   0   -0.44    0.44
  11   6   0   -0.19    0.49
 -12  -6   0    1.34    0.72
  12   6   0    0.75    0.67
  12  -6   0    0.17    0.66
  12  -6   0   -0.27    0.59
 -12   6   0    1.33    0.64
 -13   6   0   -0.01    0.60
  13   6   0    0.33    0.67
  13  -6   0   -0.03    0.63
 -13  -6   0    0.06    0.66
  13  -6   0    0.39    0.75
   0   7   0    0.10    0.20
   0   7   0   -0.16    0.16
   0  -7   0    0.13    0.21
   0  -7   0   -0.01    0.10
   1   7   0   14.60    0.70
   1  -7   0   12.86    0.48
  -1  -7   0   15.44    0.58
   1   7   0   15.19    0.77
  -1   7   0   14.29    0.72
  -1   7   0   13.28    0.73
  -1  -7   0   14.44    0.79
   1  -7   0   13.48    0.77
  -2  -7   0    6.75    0.43
   2   7   0    7.42    0.58
   2  -7   0    6.19    0.63
  -2   7   0    4.60    0.53
  -2   7   0    5.20    0.50
  -2  -7   0    6.89    0.67
   2  -7   0    4.98    0.34
   2   7   0    5.56    0.46
  -3  -7   0  195.01    4.65
  -3   7   0  191.63    4.51
   3  -7   0  196.39    4.51
   3  -7   0  194.58    4.93
   3   7   0  194.00    4.54
   3   7   0  190.63    4.70
  -3   7   0  190.45    4.71
  -3  -7   0  195.16    4.92
   4  -7   0    3.95    0.44
   4  -7   0    3.31    0.48
  -4   7   0    5.12    0.63
  -4   7   0    4.90    0.45
   4   7   0    4.31    0.49
   4   7   0    4.68    0.55
   4   7   0    5.42    0.67
  -4  -7   0    4.88    0.55
   5   7   0    7.99    0.58
   5  -7   0    6.52    0.62
   5   7   0    6.51    0.64
   5   7   0    7.64    0.83
  -5  -7   0    7.29    0.72
  -5   7   0    7.33    0.47
  -5   7   0    8.07    0.82
   5  -7   0    6.32    0.70
   6   7   0    5.24    0.56
   6   7   0    3.96    0.62
   6   7   0    4.77    0.59
   6  -7   0    3.96    0.57
  -6  -7   0    3.89    0.59
   6  -7   0    3.26    0.58
  -6   7   0    4.27    0.66
  -7  -7   0    2.91    0.59
  -7  -7   0    4.10    0.51
   7   7   0    4.07    0.57
   7   7   0    3.77    0.70
  -7   7   0    2.58    0.55
   7  -7   0    2.91    0.61
   7  -7   0    3.68    0.62
  -8   7   0    2.84    0.65
  -8  -7   0    4.99    0.62
   8   7   0    6.04    0.70
   8  -7   0    3.69    0.68
  -8  -7   0    3.71    0.70
   8  -7   0    3.85    0.77
   8   7   0    3.97    0.76
  -9   7   0   58.71    2.48
   9   7   0   58.86    2.57
   9  -7   0   64.33    2.50
  -9  -7   0   60.08    2.61
   9  -7   0   59.93    2.55
  10   7   0   11.47    1.30
  10  -7   0   10.89    1.30
 -10  -7   0   13.65    1.51
 -10   7   0   12.71    1.35
  10  -7   0   12.88    1.31
  11  -7   0    3.43    0.89
 -11  -7   0    2.49    0.81
 -11   7   0    2.83    0.81
  11  -7   0    3.51    0.85
  11   7   0    2.92    0.86
  12  -7   0    0.09    0.62
 -12   7   0    1.03    0.69
  12   7   0    0.99    0.73
 -12  -7   0    1.46    0.80
  12  -7   0    0.52    0.67
   0   8   0    4.05    0.48
   0  -8   0    4.61    0.57
   0  -8   0    4.37    0.29
   0   8   0    4.82    0.55
   1  -8   0   38.59    1.48
  -1   8   0   37.40    1.37
  -1   8   0   38.29    1.40
  -1  -8   0   39.64    1.48
   1   8   0   39.04    1.43
   1   8   0   39.24    1.34
  -1  -8   0   41.10    1.17
   1  -8   0   38.44    1.03
  -2   8   0   56.84    1.87
  -2  -8   0   58.67    1.64
  -2   8   0   54.19    1.75
   2   8   0   57.76    1.88
   2   8   0   58.95    1.76
   2  -8   0   56.49    1.94
  -2  -8   0   57.50    1.93
   2  -8   0   56.55    1.50
  -3  -8   0   -0.08    0.15
  -3   8   0    0.07    0.20
   3  -8   0    0.02    0.17
  -3   8   0    0.09    0.24
   3   8   0    0.36    0.23
   3   8   0    0.17    0.26
  -3  -8   0   -0.29    0.18
   3  -8   0    0.23    0.30
   4   8   0  113.76    3.20
  -4  -8   0  115.36    3.17
   4  -8   0  114.59    3.02
  -4   8   0  117.36    2.98
   4   8   0  118.43    3.05
  -4   8   0  121.06    3.35
   4  -8   0  115.28    3.40
  -5  -8   0   12.67    0.85
  -5   8   0   12.53    0.67
   5  -8   0   12.08    0.93
   5   8   0   12.99    0.94
   5  -8   0   12.96    0.80
  -5   8   0   11.77    0.93
   5   8   0   12.03    0.74
   5   8   0   10.94    0.81
   6   8   0    2.05    0.38
  -6   8   0    1.29    0.49
   6   8   0    0.92    0.36
   6  -8   0    1.21    0.47
  -6  -8   0    0.87    0.40
   6   8   0    1.48    0.50
   6  -8   0    1.38    0.42
   7   8   0   20.33    1.33
  -7   8   0   19.60    1.32
   7  -8   0   19.16    1.17
   7   8   0   19.99    1.13
  -7  -8   0   20.32    1.00
  -7  -8   0   20.74    1.28
   7  -8   0   19.74    1.31
   8  -8   0   32.35    1.83
  -8  -8   0   39.50    1.90
   8   8   0   34.54    1.56
  -8   8   0   35.73    1.84
   8   8   0   37.18    1.89
   8  -8   0   38.10    1.77
  -9  -8   0    1.41    0.58
   9   8   0    1.11    0.55
  -9   8   0    0.96    0.57
   9  -8   0    1.17    0.54
   9  -8   0    2.37    0.73
  10   8   0    9.53    1.23
 -10   8   0   12.07    1.39
 -10  -8   0    9.57    1.20
  10  -8   0   10.27    1.21
  10  -8   0   11.25    1.32
  11   8   0    5.99    1.11
 -11  -8   0    4.63    1.01
  11  -8   0    6.18    1.07
 -11   8   0    6.37    1.14
  11  -8   0    5.54    1.01
  12   8   0    0.94    0.73
  12  -8   0    1.25    0.81
 -12  -8   0    2.26    0.86
 -12   8   0    1.64    0.76
   0  -9   0    0.05    0.23
   0  -9   0    0.00    0.12
   0   9   0   -0.01    0.23
   0   9   0   -0.01    0.20
  -1   9   0   66.87    2.08
   1  -9   0   66.40    1.61
  -1  -9   0   66.26    1.78
  -1   9   0   67.70    2.09
   1   9   0   64.29    2.10
  -1  -9   0   61.62    2.13
   1   9   0   67.89    2.01
  -2   9   0   30.92    1.32
  -2   9   0   31.43    1.24
  -2  -9   0   26.77    1.29
   2  -9   0   30.30    1.36
  -2  -9   0   30.51    1.06
   2   9   0   27.45    1.27
   2  -9   0   31.65    0.94
   2   9   0   30.01    1.21
   3  -9   0   67.82    2.32
   3   9   0   66.67    2.09
   3  -9   0   72.55    1.88
  -3   9   0   69.01    2.08
   3   9   0   68.14    2.23
  -3  -9   0   69.32    2.32
  -3  -9   0   66.77    2.00
  -3   9   0   65.29    2.24
  -4   9   0   31.07    1.45
  -4  -9   0   29.87    1.42
  -4  -9   0   30.05    1.25
   4  -9   0   28.96    1.13
  -4   9   0   29.49    1.19
   4   9   0   32.33    1.28
   4   9   0   30.72    1.37
   4  -9   0   30.44    1.45
   5  -9   0   37.15    1.39
   5   9   0   33.28    1.34
   5   9   0   36.99    1.55
  -5  -9   0   36.17    1.50
   5  -9   0   33.83    1.63
  -5   9   0   35.16    1.65
  -5   9   0   34.34    1.28
  -6  -9   0    1.06    0.42
   6   9   0    1.21    0.37
   6  -9   0    0.52    0.44
   6  -9   0    1.39    0.40
   6   9   0    0.64    0.39
  -6   9   0    1.39    0.50
   6   9   0    1.11    0.46
  -7   9   0    5.51    0.89
   7  -9   0    7.46    1.00
  -7  -9   0    7.32    0.91
   7  -9   0    7.61    0.83
   7   9   0    7.00    0.81
   7   9   0    6.94    0.94
  -8   9   0   32.48    1.81
  -8  -9   0   35.00    1.82
   8  -9   0   28.45    1.75
   8  -9   0   34.15    1.86
   8   9   0   34.89    1.60
   8   9   0   35.72    1.89
  -9   9   0    9.33    1.16
  -9  -9   0   13.72    1.42
   9   9   0    8.54    1.13
   9  -9   0   10.37    1.24
 -10  -9   0   18.78    1.59
 -10   9   0   19.24    1.58
  10  -9   0   18.85    1.59
  10   9   0   19.97    1.60
 -11   9   0    8.01    1.27
  11   9   0   10.34    1.31
  11  -9   0   11.89    1.51
 -11  -9   0   12.91    1.50
 -12   9   0    1.14    0.77
  12   9   0    3.25    0.93
 -12  -9   0    1.51    0.83
  12  -9   0    2.57    0.95
   0 -10   0  136.82    3.95
   0  10   0  147.45    3.86
   0  10   0  147.28    3.75
   1  10   0   24.58    1.09
   1  10   0   21.89    1.14
   1 -10   0   21.83    1.17
  -1 -10   0   21.55    1.16
  -1  10   0   22.53    1.12
  -1  10   0   21.62    1.11
   2  10   0   63.04    2.04
   2  10   0   62.21    2.17
  -2 -10   0   66.86    1.89
  -2 -10   0   66.70    2.27
  -2  10   0   64.57    2.09
  -2  10   0   63.45    2.17
  -3 -10   0    2.98    0.42
   3 -10   0    3.35    0.62
  -3  10   0    3.38    0.57
   3  10   0    3.40    0.52
  -3 -10   0    2.12    0.48
  -3  10   0    3.49    0.52
   3  10   0    2.01    0.46
   4 -10   0   13.70    1.05
  -4  10   0   13.18    1.01
  -4  10   0   13.77    0.85
   4  10   0   12.54    0.94
  -4 -10   0   13.74    0.83
   4  10   0   17.45    0.95
  -4 -10   0   14.21    1.00
  -5 -10   0   39.95    1.80
  -5  10   0   38.61    1.81
   5  10   0   39.73    1.54
  -5 -10   0   39.31    1.62
   5  10   0   38.43    1.68
  -5  10   0   43.66    1.52
   5 -10   0   40.62    1.86
   6 -10   0   26.33    1.55
  -6  10   0   25.58    1.50
  -6 -10   0   25.97    1.37
   6  10   0   27.32    1.42
  -7 -10   0    7.53    0.92
   7  10   0    9.94    1.02
   7 -10   0    9.96    1.14
   7  10   0    6.90    0.97
  -7  10   0    9.41    1.14
  -8 -10   0   10.08    1.14
  -8  10   0    9.12    1.21
   8  10   0    9.75    1.19
   8  10   0    9.98    1.04
   8 -10   0   10.45    1.20
  -9  10   0    8.93    1.23
   9  10   0    9.25    1.19
   9 -10   0    7.87    1.14
  -9 -10   0    9.60    1.18
  10 -10   0    0.80    0.74
 -10  10   0    1.55    0.73
  10  10   0    2.88    0.84
 -10 -10   0    1.47    0.66
  11  10   0   -0.45    0.57
 -11  10   0    0.62    0.67
  11 -10   0   -0.43    0.60
 -11 -10   0    0.25    0.60
   0 -11   0    0.06    0.27
   0  11   0    0.24    0.32
   0  11   0    0.17    0.24
  -1  11   0   83.73    2.58
   1 -11   0   79.60    2.67
   1  11   0   81.23    2.45
  -1  11   0   80.63    2.52
  -1 -11   0   75.10    2.62
   1  11   0   79.40    2.59
  -2 -11   0   16.05    1.07
   2 -11   0   18.70    1.18
  -2  11   0   20.37    1.10
  -2  11   0   19.42    1.13
   2  11   0   17.82    1.01
   2  11   0   17.25    1.09
  -3  11   0    2.02    0.45
   3  11   0    0.99    0.43
   3 -11   0    0.90    0.45
  -3  11   0    0.97    0.42
  -3 -11   0    1.12    0.44
   3  11   0    1.34    0.41
   4  11   0   11.83    0.86
   4 -11   0   12.65    1.07
  -4  11   0   11.59    0.86
  -4  11   0   13.48    1.06
  -4 -11   0   11.69    0.98
   4  11   0   10.90    0.93
  -5 -11   0  112.00    3.51
  -5  11   0  107.12    3.47
   5  11   0  108.68    3.37
   5 -11   0  105.17    3.53
  -6  11   0    0.21    0.44
   6 -11   0    0.10    0.47
   6  11   0   -0.14    0.35
  -6 -11   0    0.38    0.43
   7  11   0   12.97    1.21
  -7  11   0   12.25    1.34
   7 -11   0   13.01    1.33
   8  11   0    2.88    0.73
  -8  11   0    2.11    0.73
   8 -11   0    1.20    0.67
  -8 -11   0    2.65    0.74
   8  11   0    1.96    0.57
   9  11   0    1.65    0.72
  -9 -11   0    1.31    0.63
   9 -11   0    1.37    0.67
  -9  11   0    1.90    0.77
  10  11   0    0.18    0.60
  10 -11   0    0.09    0.66
 -10  11   0   -0.07    0.62
 -11  11   0    6.29    1.22
  11  11   0    4.65    1.02
  11 -11   0    5.78    1.18
   0 -12   0  235.60    6.35
   0  12   0  245.41    6.18
   0  12   0  254.61    6.02
  -1 -12   0   19.96    1.24
   1  12   0   15.45    1.12
  -1  12   0   18.45    1.12
  -1  12   0   17.20    1.10
   1  12   0   17.77    1.05
   1 -12   0   20.52    1.27
   2  12   0    5.63    0.77
   2 -12   0    6.17    0.85
  -2  12   0    5.43    0.73
  -2  12   0    4.73    0.69
  -2 -12   0    7.42    0.89
   2  12   0    6.24    0.74
  -3  12   0    0.97    0.40
  -3 -12   0    0.80    0.43
   3  12   0    0.44    0.35
   3  12   0    0.65    0.41
   3 -12   0    0.75    0.43
  -3  12   0    0.38    0.43
  -4  12   0    1.69    0.48
   4 -12   0    1.69    0.59
  -4 -12   0    2.36    0.59
  -4  12   0    2.40    0.62
   4  12   0    2.63    0.60
  -5 -12   0    0.70    0.44
   5 -12   0    0.82    0.50
  -5  12   0    0.46    0.50
   5  12   0    0.49    0.43
  -6 -12   0   83.84    3.03
   6  12   0   81.22    2.88
   6 -12   0   81.16    3.12
  -6  12   0   77.72    3.02
   7  12   0    0.84    0.49
   7 -12   0   -0.18    0.49
  -7 -12   0    0.26    0.46
  -7  12   0    0.21    0.54
  -8 -12   0    2.82    0.79
  -8  12   0    2.63    0.79
   8  12   0    0.67    0.52
   8 -12   0    0.93    0.69
  -9  12   0    0.07    0.59
   9 -12   0    0.19    0.62
  10 -12   0    0.61    0.79
 -10  12   0    0.64    0.74
  10  12   0    0.10    0.59
   0  13   0    0.85    0.41
   0  13   0    0.26    0.36
   0 -13   0    0.79    0.44
  -1  13   0   30.11    1.48
   1  13   0   25.61    1.32
   1  13   0   26.20    1.46
  -1  13   0   25.73    1.41
   1 -13   0   28.19    1.55
  -1 -13   0   28.97    1.55
   2  13   0    1.20    0.43
   2 -13   0    0.91    0.48
  -2 -13   0    0.90    0.44
   2  13   0    0.80    0.45
  -2  13   0    0.28    0.39
  -2  13   0    1.14    0.48
  -3  13   0    0.43    0.37
   3 -13   0    0.19    0.44
  -3 -13   0   -0.07    0.37
   3  13   0   -0.16    0.37
  -3  13   0    0.69    0.46
  -4  13   0   19.76    1.20
  -4 -13   0   21.24    1.39
  -4  13   0   20.40    1.44
   4  13   0   19.71    1.35
   4 -13   0   20.25    1.46
  -5  13   0   62.65    2.62
   5  13   0   63.97    2.54
   5 -13   0   66.72    2.74
  -5 -13   0   67.15    2.66
  -6  13   0    1.90    0.71
   6  13   0    3.29    0.71
   6 -13   0    1.89    0.75
  -6 -13   0    1.23    0.61
  -7 -13   0   27.27    1.74
  -7  13   0   29.11    1.90
   7 -13   0   29.12    1.91
   7  13   0   27.02    1.68
   8 -13   0    0.59    0.63
  -8  13   0    0.15    0.59
   8  13   0   -0.61    0.39
  -8 -13   0    0.81    0.51
   9 -13   0    0.25    0.66
  -9 -13   0   -0.16    0.52
  -9  13   0    0.32    0.64
   9  13   0    0.75    0.61
 -10 -13   0    2.97    0.88
 -10  13   0    4.84    1.13
  10 -13   0    3.57    1.08
   0  14   0   39.40    1.77
   0 -14   0   42.00    1.98
   0  14   0   40.96    1.90
  -1 -14   0    7.29    0.94
   1  14   0    8.32    1.03
   1  14   0    6.50    0.81
  -1  14   0    6.93    0.94
   1 -14   0    4.12    0.75
  -1  14   0    7.58    0.91
   2  14   0    9.59    1.08
  -2 -14   0   10.79    1.19
  -2  14   0    8.84    0.98
  -2  14   0    9.25    1.00
   2 -14   0    9.27    1.10
  -3  14   0    2.75    0.67
  -3  14   0    3.17    0.64
  -3 -14   0    2.60    0.64
   3 -14   0    3.96    0.84
   3  14   0    2.02    0.63
   4 -14   0   14.54    1.44
  -4 -14   0   12.37    1.28
  -4  14   0   12.40    1.32
  -4  14   0   13.65    1.07
   4  14   0   11.34    1.19
  -5  14   0   28.09    1.79
   5 -14   0   23.47    1.69
   5  14   0   24.09    1.57
  -5 -14   0   24.04    1.62
  -6 -14   0   42.66    2.16
   6 -14   0   45.56    2.38
  -6  14   0   42.49    2.24
   6  14   0   41.50    2.12
   7 -14   0   11.41    1.40
  -7 -14   0   13.73    1.47
   7  14   0   12.56    1.35
  -7  14   0   11.32    1.39
  -8  14   0    0.16    0.65
   8 -14   0    0.20    0.66
   8  14   0    0.47    0.55
  -8 -14   0    0.28    0.53
  -9  14   0    0.85    0.79
   9  14   0    2.49    0.76
  -9 -14   0    1.61    0.67
   9 -14   0    1.72    0.86
   0  15   0    0.20    0.47
   0  15   0    0.47    0.41
   0 -15   0    0.20    0.48
   1 -15   0    5.24    0.87
   1  15   0    6.07    0.94
  -1  15   0    6.84    0.98
  -1 -15   0    7.98    1.09
  -1  15   0    6.10    0.89
  -2 -15   0   15.11    1.32
   2 -15   0   16.06    1.38
  -2  15   0   18.55    1.32
  -2  15   0   19.89    1.32
   2  15   0   18.12    1.40
  -3  15   0   12.50    1.21
   3  15   0   14.28    1.38
   3 -15   0   14.50    1.45
  -3  15   0   14.38    1.39
  -3 -15   0   12.33    1.29
  -4  15   0    6.62    1.01
  -4  15   0    7.07    0.93
   4 -15   0    5.39    1.02
   4  15   0    4.66    0.87
  -4 -15   0    7.01    1.04
  -5  15   0   23.65    1.69
   5  15   0   20.64    1.55
  -5 -15   0   20.08    1.55
   5 -15   0   22.91    1.75
   6 -15   0    6.45    1.17
  -6  15   0    5.73    1.06
   6  15   0    3.92    0.87
  -6 -15   0    6.50    1.11
   7 -15   0    4.91    1.07
   7  15   0    6.34    1.05
  -7  15   0    4.26    1.05
  -7 -15   0    7.07    1.11
  -8  15   0    0.66    0.74
   8 -15   0    2.22    0.84
  -8 -15   0    0.24    0.59
   8  15   0   -0.51    0.56
   0  16   0    0.13    0.48
   0 -16   0   -0.52    0.45
  -1 -16   0   14.29    1.40
  -1  16   0   15.18    1.28
   1  16   0   16.35    1.34
  -1  16   0   15.86    1.28
   1 -16   0   15.74    1.39
   2  16   0   20.76    1.54
  -2  16   0   24.66    1.57
   2 -16   0   23.63    1.67
  -2 -16   0   24.10    1.66
  -2  16   0   24.43    1.54
  -3  16   0   -0.02    0.50
   3 -16   0    0.20    0.61
   3  16   0    0.47    0.57
  -3  16   0   -0.67    0.41
  -3 -16   0   -0.01    0.51
  -4  16   0   12.45    1.35
   4 -16   0   11.56    1.39
   4  16   0   11.94    1.35
  -4 -16   0   16.64    1.61
   5 -16   0    7.76    1.26
  -5  16   0    6.84    1.12
   5  16   0    7.09    1.14
  -5 -16   0    6.41    1.10
   6 -16   0   -0.55    0.69
   6  16   0    1.52    0.69
  -6  16   0    1.33    0.76
  -6 -16   0    1.11    0.71
   7 -16   0    3.07    1.02
   7  16   0    3.32    0.84
  -7 -16   0    5.21    1.07
  -7  16   0    3.25    0.98
   8 -16   0    3.82    1.11
  -8 -16   0    4.71    1.05
   8  16   0    5.58    1.09
  -8  16   0    5.06    1.18
   0  17   0   -0.25    0.46
   0 -17   0   -0.09    0.55
  -1 -17   0    1.64    0.71
  -1  17   0    0.49    0.52
   1  17   0    0.37    0.53
   1 -17   0    1.85    0.69
  -2  17   0    1.99    0.65
   2 -17   0    2.54    0.82
   2  17   0    2.21    0.73
  -2  17   0    2.33    0.72
  -2 -17   0    2.86    0.83
  -3  17   0   26.61    1.70
   3  17   0   25.18    1.75
   3 -17   0   23.35    1.81
  -3 -17   0   26.31    1.84
  -3  17   0   25.42    1.74
  -4  17   0   -0.12    0.58
  -4 -17   0    0.77    0.66
   4  17   0    0.25    0.58
   4 -17   0    1.27    0.72
   5 -17   0    0.89    0.75
  -5  17   0    0.64    0.65
   5  17   0   -0.01    0.56
  -5 -17   0    0.46    0.64
   6  17   0   -0.15    0.56
  -6  17   0    0.40    0.66
  -6 -17   0   -0.02    0.64
   6 -17   0    0.25    0.79
   0 -18   0    1.63    0.72
   0  18   0    0.33    0.64
  -1  18   0    2.80    0.82
  -1 -18   0    2.34    0.79
   1 -18   0    3.90    0.93
   1  18   0    4.14    0.93
   2 -18   0    7.86    1.27
  -2 -18   0    5.93    1.07
  -2  18   0    4.69    0.98
   2  18   0    5.90    1.12
  -3 -18   0    1.34    0.77
  -3  18   0    0.92    0.68
   3 -18   0    1.32    0.79
  -3  18   0   -0.13    0.58
   3  18   0    2.54    0.86
  -4  18   0    6.04    1.12
   4 -18   0    6.12    1.17
  -4 -18   0    8.48    1.26
   4  18   0    6.23    1.17
   5 -18   0    0.56    0.81
  -5  18   0    0.29    0.69
   5  18   0    0.08    0.63
  -5 -18   0    0.57    0.70
   0 -19   0    0.05    0.62
   0  19   0   -0.06    0.60
  -1  19   0    2.13    0.78
   1 -19   0    3.50    0.99
  -1 -19   0    2.81    0.94
   1  19   0    1.65    0.75
   2 -19   0    0.45    0.72
   2  19   0    0.38    0.64
  -2 -19   0    0.31    0.67
  -2  19   0   -0.93    0.51
  -3 -19   0    8.18    1.31
   3  19   0    6.83    1.21
  -3  19   0    7.23    1.19
   3 -19   0    5.06    1.17
   0   0  -1   -1.48    0.02
   0   0  -1   -1.40    0.03
   1   0   1   10.22    0.30
  -1   0   1   10.80    0.32
   1   0  -1   10.33    0.31
   1   0  -1    9.57    0.36
   1   0   1   10.50    0.38
  -1   0  -1    9.12    0.30
  -1   0  -1    9.76    0.37
   1   0  -1    9.90    0.34
   2   0   1   47.86    1.09
   2   0   1   46.41    1.30
  -2   0  -1   47.78    1.17
  -2   0   1   48.68    1.11
   2   0  -1   48.51    1.25
   2   0  -1   46.73    1.31
   2   0   1   48.98    1.34
  -2   0   1   48.06    1.22
   3   0  -1    0.07    0.14
   3   0  -1    0.12    0.14
   3   0   1    0.15    0.16
  -3   0   1    0.14    0.09
   3   0   1    0.07    0.08
   3   0   1    0.15    0.17
  -3   0   1    0.21    0.15
  -3   0  -1    0.04    0.12
   4   0   1   49.00    1.12
  -4   0   1   49.72    1.16
   4   0   1   50.19    1.59
  -4   0   1   47.22    1.39
   4   0   1   47.22    1.55
   4   0  -1   47.10    1.50
   4   0  -1   46.92    1.54
  -4   0  -1   47.39    1.36
   5   0   1    7.11    0.70
   5   0   1    5.05    0.56
   5   0  -1    6.01    0.60
  -5   0   1    5.99    0.29
   5   0  -1    6.25    0.53
   5   0   1    6.02    0.26
  -5   0   1    5.84    0.47
  -5   0  -1    5.71    0.45
   6   0  -1    9.10    0.73
  -6   0  -1    9.67    0.62
  -6   0   1    9.77    0.38
   6   0  -1    8.57    0.73
   6   0   1    9.35    0.77
  -6   0   1    9.31    0.63
   6   0   1    9.65    0.74
  -7   0   1    8.61    0.66
   7   0  -1    9.23    0.91
   7   0   1    7.23    0.79
   7   0  -1    8.49    0.85
   7   0   1    9.77    0.99
  -7   0  -1    8.90    0.65
  -8   0   1    3.22    0.53
   8   0   1    6.83    0.92
   8   0  -1    4.56    0.74
  -8   0  -1    4.07    0.57
   8   0   1    4.25    0.73
   8   0  -1    4.14    0.70
   9   0   1    5.14    0.83
   9   0  -1    6.38    0.89
   9   0   1    6.29    0.92
  -9   0  -1    6.52    0.78
  -9   0   1    6.83    0.82
   9   0  -1    5.67    0.85
  10   0   1   47.27    2.34
  10   0  -1   46.92    2.27
  10   0   1   51.11    2.34
 -10   0  -1   50.17    1.98
  10   0  -1   49.10    2.30
 -10   0   1   47.10    1.96
  11   0  -1    0.80    0.56
  11   0  -1    0.23    0.51
 -11   0   1    0.71    0.45
 -11   0  -1    1.73    0.55
  11   0   1    1.45    0.69
  12   0  -1   13.01    1.49
 -12   0   1   12.16    1.28
 -12   0  -1   15.04    1.37
  12   0   1   12.71    1.48
  12   0  -1   13.06    1.50
 -13   0   1    2.86    0.75
  13   0  -1    1.83    0.84
 -13   0  -1    2.56    0.94
  13   0   1    2.16    0.86
  13   0  -1    1.77    0.81
   0  -1   1  126.32    2.64
   0   1   1  128.41    2.65
   0   1  -1  103.67    2.66
   0   1  -1  124.25    2.61
   0  -1  -1  123.32    2.74
   0  -1   1  127.42    2.70
  -1   1   1  147.06    3.15
   1   1  -1  146.43    3.26
   1  -1   1  148.39    3.13
   1   1  -1  147.40    3.18
   1  -1   1  148.52    3.33
  -1  -1  -1  143.68    3.30
   1   1  -1  148.63    3.18
   1   1  -1  150.99    3.27
  -1   1   1  143.66    3.13
  -1   1  -1  133.53    2.99
   1  -1  -1  139.65    3.10
   1  -1  -1  142.67    3.12
  -1   1  -1  136.92    3.09
   1   1   1  138.85    3.20
   1   1   1  144.31    3.02
  -2  -1  -1   82.96    1.79
   2  -1   1   84.53    1.75
   2  -1   1   80.33    2.02
   2   1  -1   80.43    1.84
  -2  -1  -1   78.11    2.03
   2   1  -1   79.54    1.98
   2   1  -1   81.01    1.90
   2  -1   1   77.38    1.98
  -2   1   1   78.79    1.89
   2   1  -1   78.14    1.99
  -2   1   1   81.44    1.77
   2  -1  -1   85.15    2.02
  -2   1  -1   82.60    1.94
   2   1   1   80.18    2.12
   2  -1  -1   84.25    2.07
   2   1   1   83.47    1.87
  -3  -1  -1    6.91    0.35
   3   1  -1    7.24    0.47
   3  -1   1    6.94    0.45
   3   1  -1    7.21    0.32
   3  -1   1    7.81    0.47
   3   1  -1    7.41    0.45
  -3   1   1    7.86    0.27
  -3   1   1    7.44    0.42
   3   1   1    7.78    0.34
   3  -1  -1    7.96    0.48
   3   1   1    7.68    0.50
  -3   1  -1    9.21    0.45
  -3  -1   1    8.30    0.43
   3   1   1    8.52    0.50
   3  -1  -1    8.78    0.46
  -4   1   1    7.81    0.49
   4   1  -1    8.14    0.56
  -4  -1  -1    8.71    0.44
   4   1  -1    8.01    0.54
   4  -1   1    7.12    0.53
   4  -1   1    7.77    0.54
  -4  -1   1    7.26    0.45
   4  -1  -1    7.71    0.54
   4   1   1    8.13    0.58
   4   1   1    6.24    0.52
   4  -1  -1    7.91    0.50
  -4   1  -1    6.77    0.45
   4   1   1    8.01    0.34
  -5   1   1   68.06    1.95
   5   1  -1   65.85    2.10
   5  -1   1   73.49    2.18
  -5  -1  -1   69.00    1.86
   5  -1   1   71.15    2.15
   5   1  -1   67.88    2.15
  -5  -1   1   76.07    1.80
  -5  -1   1   73.02    2.04
   5   1   1   75.95    2.31
   5  -1  -1   74.59    2.28
   5   1   1   74.85    2.34
   5   1   1   77.46    1.80
   5  -1  -1   76.04    2.24
  -5   1  -1   72.81    2.07
  -6   1   1   21.82    1.01
   6   1  -1   23.96    1.20
   6  -1   1   22.91    1.18
  -6  -1  -1   25.22    0.99
   6  -1   1   24.24    1.18
   6   1  -1   23.91    1.15
   6   1   1   24.43    1.20
  -6   1  -1   21.42    0.99
  -6  -1   1   23.03    0.72
   6  -1  -1   20.53    1.07
   6   1   1   24.70    1.23
   6   1   1   24.64    0.73
  -6  -1   1   22.21    0.98
   6  -1  -1   23.52    1.17
   7  -1   1    2.43    0.52
   7  -1   1    2.06    0.50
  -7  -1  -1    2.47    0.41
   7   1  -1    1.75    0.45
  -7   1   1    1.55    0.38
   7   1  -1    1.52    0.43
   7  -1  -1    2.00    0.45
  -7  -1   1    1.54    0.34
  -7   1  -1    1.96    0.41
   7   1   1    0.62    0.37
   7  -1  -1    0.87    0.39
   7   1   1    1.77    0.49
   8   1  -1   28.77    1.53
   8   1  -1   32.03    1.59
   8  -1   1   28.07    1.53
  -8   1   1   29.56    1.36
  -8  -1  -1   32.86    1.33
   8  -1   1   30.61    1.58
   8   1   1   29.08    1.58
  -8  -1   1   30.60    1.31
   8   1   1   30.70    1.56
   8  -1  -1   28.51    1.53
   8  -1  -1   27.31    1.46
  -8   1  -1   30.30    1.35
  -9   1   1   12.28    0.93
   9  -1   1   13.01    1.30
  -9  -1  -1   12.38    0.88
   9   1  -1   11.65    1.18
   9   1  -1   13.35    1.15
   9  -1   1   13.85    1.30
   9   1   1   12.93    1.29
   9  -1  -1   11.12    1.12
   9  -1  -1   14.20    1.14
   9   1   1    9.43    1.04
  -9   1  -1   13.24    0.96
  -9  -1   1   13.07    0.95
  10  -1   1    0.96    0.60
  10   1  -1    0.60    0.47
  10  -1   1    1.50    0.57
 -10   1   1    1.66    0.51
 -10  -1  -1    0.97    0.43
  10   1  -1    1.48    0.59
  10  -1  -1    1.70    0.61
  10  -1  -1    1.01    0.53
  10   1   1    0.91    0.58
 -10   1  -1    2.23    0.56
  10   1   1    1.72    0.59
 -10  -1   1    0.81    0.42
  11   1  -1   22.77    1.66
  11  -1   1   22.86    1.66
  11   1  -1   22.07    1.65
 -11  -1  -1   19.61    1.29
 -11   1   1   18.42    1.33
  11  -1   1   18.45    1.60
  11   1   1   18.72    1.56
  11  -1  -1   14.93    1.51
 -11   1  -1   19.22    1.30
 -11  -1   1   19.48    1.29
  11  -1  -1   19.82    1.58
  12   1  -1    1.82    0.71
 -12   1   1    1.15    0.55
  12   1  -1    1.10    0.70
 -12  -1  -1    1.36    0.57
 -12  -1  -1    0.80    0.68
  12  -1   1    0.94    0.69
  12  -1  -1    0.88    0.66
 -12   1  -1    0.45    0.50
  12  -1  -1    0.31    0.58
  12   1   1    0.48    0.64
 -12  -1   1    0.83    0.50
 -13   1   1    1.74    0.68
  13   1  -1    0.86    0.72
  13  -1   1    0.20    0.72
 -13  -1  -1    0.37    0.71
  13   1  -1   -0.60    0.55
  13  -1  -1    1.32    0.77
  13   1   1    0.31    0.63
 -13  -1   1    1.16    0.56
 -13   1  -1    0.50    0.57
 -13   1  -1    0.34    0.67
  13  -1  -1    0.22    0.58
   0   2  -1   76.19    1.73
   0  -2  -1   72.28    1.79
   0   2   1   74.95    1.72
   0  -2  -1   72.80    1.76
   0   2  -1   72.49    1.71
   0   2   1   75.22    1.62
   0  -2   1   74.11    1.76
   1  -2   1   54.21    1.29
   1   2  -1   53.40    1.37
  -1  -2  -1   56.63    1.40
  -1   2   1   53.88    1.29
   1   2  -1   53.69    1.37
   1  -2   1   55.14    1.40
   1   2  -1   55.79    1.33
  -1   2   1   53.29    1.32
   1   2  -1   54.93    1.36
   1   2   1   55.71    1.38
   1   2   1   57.21    1.25
  -1   2  -1   57.78    1.34
   1  -2  -1   56.41    1.40
   1   2   1   56.64    1.49
  -1   2  -1   57.49    1.41
   1  -2  -1   55.26    1.42
   2   2  -1   52.74    1.39
  -2   2   1   47.62    1.32
   2   2  -1   52.50    1.39
   2   2  -1   50.69    1.33
  -2   2   1   50.00    1.19
   2   2  -1   51.59    1.30
   2  -2   1   48.99    1.33
   2  -2   1   48.81    1.40
  -2  -2  -1   48.94    1.41
  -2   2  -1   44.79    1.24
   2  -2  -1   44.21    1.25
   2  -2  -1   44.42    1.24
   2   2   1   45.59    1.17
   2   2   1   45.52    1.36
   3   2  -1   71.83    1.94
   3  -2   1   72.75    1.55
   3  -2   1   70.19    1.95
   3   2  -1   70.24    1.93
   3  -2   1   68.47    1.88
  -3   2   1   67.13    1.82
   3   2  -1   70.86    1.74
  -3  -2  -1   70.29    1.66
  -3   2   1   71.55    1.58
   3   2  -1   69.89    1.79
   3  -2  -1   59.33    1.70
   3   2   1   59.86    1.50
   3  -2  -1   60.96    1.68
  -3   2  -1   61.29    1.64
   3   2   1   59.86    1.79
   4   2  -1  116.51    2.74
   4   2  -1  117.52    3.09
  -4  -2  -1  117.51    2.72
   4  -2   1  112.22    3.01
   4   2  -1  120.86    3.09
  -4   2   1  116.36    2.90
  -4   2   1  120.62    2.51
   4   2   1  122.38    3.15
  -4   2  -1  116.80    2.94
   4  -2  -1  126.62    3.10
   4   2   1  117.99    3.22
   4  -2  -1  120.05    3.11
   4   2   1  118.57    2.77
  -4  -2   1  115.75    2.86
  -5   2   1   41.73    1.44
   5  -2   1   44.80    1.57
  -5  -2  -1   43.20    1.29
   5   2  -1   42.46    1.55
   5  -2   1   39.80    1.50
   5   2  -1   44.91    1.23
   5  -2  -1   39.42    1.44
   5   2   1   39.68    1.50
   5   2   1   41.85    1.16
  -5   2  -1   39.80    1.37
   5  -2  -1   38.08    1.47
  -5  -2   1   41.24    1.31
   5   2   1   43.05    1.58
   6  -2   1    1.33    0.37
  -6  -2  -1    1.92    0.32
   6   2  -1    1.93    0.27
   6   2  -1    2.45    0.46
   6  -2   1    1.35    0.38
  -6   2   1    1.74    0.34
   6   2  -1    1.00    0.32
  -6   2  -1    1.27    0.33
   6   2   1    0.92    0.22
  -6  -2   1    1.43    0.32
   6   2   1    1.43    0.40
   6  -2  -1    0.94    0.31
   6   2   1    1.63    0.40
   6  -2  -1    1.29    0.37
   7  -2   1   15.92    1.03
  -7  -2  -1   13.77    0.76
  -7   2   1   12.62    0.85
   7   2  -1   14.38    1.01
   7   2  -1   15.43    1.01
   7  -2   1   13.71    0.97
  -7  -2   1   14.30    0.61
   7   2   1   15.16    1.07
  -7   2  -1   14.91    0.90
   7  -2  -1   14.83    0.98
   7  -2  -1   14.15    1.00
  -7  -2   1   13.75    0.80
   8   2  -1    4.63    0.71
  -8  -2  -1    4.85    0.60
   8   2  -1    6.94    0.89
   8  -2   1    5.81    0.80
  -8   2   1    4.00    0.58
   8  -2   1    4.48    0.70
   8  -2  -1    4.96    0.76
   8   2   1    4.08    0.70
   8   2   1    5.21    0.80
   8  -2  -1    5.50    0.76
  -8   2  -1    4.64    0.66
  -8  -2   1    4.60    0.60
   9   2  -1   28.67    1.61
   9  -2   1   27.71    1.60
   9   2  -1   28.58    1.64
  -9   2   1   27.38    1.42
  -9  -2  -1   27.92    1.31
   9  -2   1   27.15    1.59
  -9  -2   1   29.06    1.34
   9  -2  -1   25.47    1.54
   9   2   1   26.82    1.63
  -9   2  -1   25.74    1.37
   9   2   1   29.13    1.64
   9  -2  -1   27.41    1.54
  10  -2   1   20.99    1.49
  10  -2   1   21.15    1.57
 -10  -2  -1   19.95    1.18
  10   2  -1   21.49    1.55
 -10   2   1   23.16    1.37
  10   2  -1   21.57    1.54
  10   2   1   21.86    1.59
  10  -2  -1   21.65    1.55
 -10  -2   1   21.11    1.23
  10  -2  -1   21.53    1.53
 -10   2  -1   23.96    1.38
  11  -2   1    1.69    0.69
  11   2  -1    1.69    0.66
 -11   2   1    1.65    0.57
  11  -2   1    2.59    0.76
  11   2  -1    1.65    0.68
 -11  -2  -1    2.36    0.58
  11   2   1    1.94    0.73
 -11   2  -1    2.93    0.68
  11  -2  -1    2.45    0.73
  11  -2  -1    2.25    0.78
 -11  -2   1    1.88    0.56
  12  -2   1    5.29    1.12
  12   2  -1    4.04    0.93
 -12  -2  -1    6.58    1.14
  12   2  -1    5.23    1.03
 -12   2   1    4.79    0.87
 -12  -2   1    6.90    0.95
  12  -2  -1    3.93    0.96
  12  -2  -1    5.48    1.08
 -12   2  -1    6.12    0.98
  12   2   1    4.89    1.07
  13   2  -1    0.63    0.72
  13  -2   1    0.04    0.67
 -13  -2  -1    0.75    0.72
  13   2  -1    0.43    0.69
 -13   2   1    0.44    0.55
 -13   2  -1    1.13    0.65
  13  -2  -1    0.17    0.64
 -13   2  -1    0.00    0.64
  13   2   1    0.17    0.67
  13  -2  -1    0.18    0.61
   0   3  -1  217.49    4.78
   0   3  -1  223.68    4.70
   0  -3  -1  215.27    4.95
   0   3   1  214.09    4.76
   0  -3   1  221.84    4.93
   0   3   1  218.03    4.60
   0  -3  -1  217.90    4.83
  -1   3   1  340.37    7.33
  -1   3   1  334.27    7.20
   1  -3   1  336.90    7.64
   1   3  -1  338.66    7.40
   1  -3   1  347.45    7.34
   1   3  -1  353.21    7.41
  -1  -3  -1  354.58    7.51
   1   3  -1  346.52    7.25
   1  -3  -1  350.18    7.46
   1  -3  -1  335.18    7.63
  -1   3  -1  352.30    7.35
   1   3   1  352.16    7.09
  -1  -3   1  344.88    7.62
   1   3   1  338.49    7.38
   1   3   1  346.69    7.70
  -1   3  -1  333.63    7.27
   2   3  -1   20.99    0.76
   2  -3   1   19.34    0.67
  -2   3   1   20.73    0.62
   2   3  -1   20.36    0.72
  -2   3   1   19.57    0.73
   2   3  -1   21.16    0.73
   2  -3   1   19.32    0.76
   2   3  -1   19.64    0.74
  -2  -3  -1   20.27    0.76
  -2   3  -1   17.30    0.70
   2   3   1   17.34    0.64
   2   3   1   17.44    0.76
   2   3   1   18.50    0.55
   2  -3  -1   16.83    0.68
  -2   3  -1   18.23    0.57
   2  -3  -1   17.34    0.65
   3  -3   1   52.89    1.62
   3   3  -1   54.46    1.52
   3   3  -1   56.22    1.64
  -3   3   1   57.06    1.33
   3   3  -1   54.54    1.60
  -3   3   1   54.11    1.56
  -3  -3  -1   56.55    1.66
   3   3  -1   57.41    1.52
   3  -3   1   52.96    1.54
  -3   3  -1   57.16    1.32
   3  -3  -1   55.36    1.60
   3  -3  -1   56.73    1.61
   3   3   1   53.45    1.48
   3   3   1   55.65    1.73
  -3   3  -1   54.39    1.58
  -4   3   1   10.98    0.37
  -4   3   1   10.89    0.64
   4   3  -1   10.08    0.64
   4  -3   1   10.39    0.64
   4   3  -1   10.76    0.54
   4   3  -1   11.11    0.67
  -4  -3  -1    9.76    0.46
   4  -3   1   10.04    0.63
   4  -3   1   11.28    0.35
   4   3  -1   11.06    0.58
  -4   3  -1   10.94    0.64
   4  -3  -1   10.59    0.63
   4  -3  -1   10.06    0.63
   4   3   1   10.36    0.52
   4   3   1    9.74    0.69
   5   3  -1   16.36    0.70
   5  -3   1   16.03    0.86
   5   3  -1   16.65    0.91
  -5  -3  -1   15.96    0.68
   5   3  -1   17.10    0.92
  -5   3   1   15.39    0.83
   5  -3   1   17.19    0.91
   5   3   1   17.17    0.99
   5  -3  -1   18.75    0.95
   5  -3  -1   20.18    0.95
  -5   3  -1   20.50    0.94
   5   3   1   18.94    0.75
  -5  -3   1   18.21    0.80
  -6  -3  -1   47.28    1.45
   6   3  -1   47.65    1.78
   6   3  -1   47.52    1.77
   6  -3   1   47.07    1.73
   6   3  -1   47.76    1.40
   6  -3   1   45.04    1.75
  -6   3   1   43.36    1.62
   6  -3  -1   42.86    1.70
   6   3   1   47.67    1.39
  -6   3  -1   44.64    1.62
   6   3   1   47.22    1.85
  -6  -3   1   47.21    1.51
   6  -3  -1   45.19    1.69
   6   3   1   47.39    1.79
  -7  -3  -1   26.92    1.08
   7   3  -1   29.71    1.42
   7   3  -1   27.09    0.97
  -7   3   1   24.57    1.21
   7  -3   1   26.43    1.36
   7  -3   1   27.05    1.38
   7   3  -1   25.87    1.35
   7   3   1   29.24    1.50
   7   3   1   30.08    1.05
  -7   3  -1   29.30    1.32
  -7  -3   1   29.85    1.22
   7  -3  -1   28.49    1.42
   7  -3  -1   29.05    1.38
  -8  -3  -1   32.91    1.29
   8   3  -1   30.01    1.59
   8  -3   1   31.37    1.61
   8   3  -1   29.52    1.57
  -8   3   1   30.69    1.46
   8  -3   1   30.75    1.57
   8  -3  -1   30.60    1.53
  -8   3  -1   28.65    1.41
  -8  -3   1   30.98    1.32
   8  -3  -1   29.25    1.55
   8   3   1   30.86    1.66
   9   3  -1    0.06    0.42
   9   3  -1    1.14    0.50
   9  -3   1    1.24    0.56
   9  -3   1    1.23    0.57
  -9   3   1    1.12    0.43
  -9  -3  -1    0.77    0.34
  -9   3  -1    1.64    0.50
   9   3   1    1.45    0.57
   9  -3  -1    2.22    0.64
   9  -3  -1    1.71    0.55
  -9  -3   1    2.79    0.53
 -10  -3  -1    0.69    0.35
  10  -3   1    1.08    0.59
 -10   3   1    0.33    0.42
  10   3  -1    0.88    0.56
  10  -3   1   -0.02    0.45
  10   3  -1    0.15    0.44
  10   3   1   -0.25    0.45
 -10   3  -1   -0.03    0.40
  10  -3  -1    0.35    0.44
 -10  -3   1    0.33    0.35
  10  -3  -1    0.62    0.54
 -11   3   1   17.90    1.33
  11  -3   1   18.88    1.51
  11   3  -1   19.05    1.52
  11  -3   1   15.63    1.57
 -11  -3  -1   15.62    1.66
  11   3  -1   17.65    1.50
  11   3   1   16.03    1.62
 -11  -3   1   14.70    1.14
  11  -3  -1   17.22    1.50
  11  -3  -1   15.55    1.55
 -11   3  -1   17.61    1.36
  12   3  -1   11.25    1.44
  12  -3   1    8.57    1.24
 -12   3   1   10.56    1.25
  12   3  -1   10.34    1.37
 -12  -3  -1   12.16    1.51
  12  -3   1    8.36    1.29
  12  -3  -1    9.19    1.33
  12  -3  -1    8.54    1.25
  12   3   1    6.37    1.17
 -12  -3   1    9.31    1.05
 -12   3  -1   11.83    1.32
 -13  -3  -1    2.98    0.93
  13   3  -1    1.53    0.79
  13  -3   1    3.25    1.01
 -13   3   1    3.55    0.87
  13  -3  -1    1.20    0.76
  13   3   1    1.09    0.77
 -13   3  -1    1.80    0.74
  13  -3  -1    2.33    0.94
   0   4   1   61.80    1.52
   0   4  -1   60.46    1.61
   0  -4  -1   60.79    1.68
   0   4  -1   60.33    1.60
   0  -4   1   58.40    1.64
   0   4   1   60.58    1.60
   0  -4  -1   63.12    1.57
  -1  -4  -1  113.37    2.81
  -1  -4  -1  115.11    2.65
   1   4  -1  112.33    2.51
   1  -4   1  106.72    2.74
   1   4  -1  110.55    2.67
   1  -4   1  109.01    2.43
  -1   4   1  108.82    2.59
  -1   4   1  106.73    2.59
   1   4  -1  114.00    2.63
   1  -4  -1  103.73    2.64
   1  -4  -1  107.54    2.48
  -1   4  -1  106.05    2.56
   1   4   1  103.79    2.54
   1   4   1  107.60    2.37
  -1  -4   1  105.86    2.62
  -1   4  -1  104.35    2.51
  -2   4   1  214.48    4.85
   2  -4   1  220.07    4.85
  -2   4   1  222.49    4.80
   2   4  -1  220.98    4.93
  -2  -4  -1  220.69    5.01
   2   4  -1  217.59    4.87
   2   4  -1  223.06    4.94
   2   4  -1  217.74    5.09
   2  -4   1  205.95    5.09
  -2   4  -1  211.40    4.91
   2   4   1  225.61    5.21
  -2   4  -1  220.92    4.82
   2  -4  -1  214.86    5.11
   2  -4  -1  221.60    4.95
   2   4   1  216.34    4.92
   2   4   1  220.91    4.69
   3  -4   1    0.27    0.18
   3   4  -1    0.20    0.16
   3   4  -1    0.30    0.18
   3   4  -1    0.25    0.18
  -3   4   1    0.27    0.12
  -3   4   1    0.45    0.19
   3  -4   1    0.52    0.18
   3   4  -1    0.06    0.15
  -3  -4  -1    0.14    0.16
  -3   4  -1    0.73    0.21
   3   4   1    1.47    0.33
   3   4   1    1.03    0.23
   3  -4  -1    1.16    0.24
  -3   4  -1    0.85    0.17
   3  -4  -1    1.00    0.24
   3   4   1    1.10    0.18
   4   4  -1   22.14    0.89
   4   4  -1   22.10    0.99
  -4   4   1   23.32    0.99
  -4  -4  -1   21.60    1.00
   4  -4   1   23.14    1.02
   4  -4   1   23.64    0.95
   4   4  -1   21.47    0.97
  -4   4   1   23.58    0.70
   4   4  -1   22.51    0.89
  -4   4  -1   20.94    0.64
   4   4   1   21.20    1.03
   4  -4  -1   21.36    0.94
   4  -4  -1   21.03    0.92
   4   4   1   19.38    0.82
  -4   4  -1   21.51    0.96
   5  -4   1   17.27    0.90
  -5   4   1   18.63    0.58
  -5   4   1   19.15    0.96
   5   4  -1   20.14    0.84
   5   4  -1   19.32    0.99
  -5  -4  -1   19.43    0.75
   5  -4   1   18.64    0.98
  -5  -4  -1   20.33    1.05
   5   4  -1   19.00    0.97
   5   4   1   20.28    0.82
   5  -4  -1   17.43    0.92
  -5   4  -1   18.35    0.95
   5   4   1   18.58    1.03
   5  -4  -1   17.88    0.93
   6   4  -1   19.21    1.08
  -6   4   1   19.92    1.04
   6  -4   1   20.10    1.07
   6  -4   1   19.57    1.09
  -6  -4  -1   18.99    0.82
   6   4  -1   20.39    0.88
   6   4  -1   21.07    1.12
   6  -4  -1   21.65    1.11
   6  -4  -1   19.44    1.06
  -6   4  -1   19.32    1.04
   6   4   1   19.14    1.15
  -6  -4   1   19.28    0.89
   6   4   1   20.53    0.86
   7  -4   1    6.72    0.75
  -7  -4  -1    7.32    0.56
  -7   4   1    7.19    0.77
   7   4  -1    7.18    0.81
   7  -4   1    6.88    0.81
   7   4  -1    8.25    0.56
   7   4  -1    7.22    0.83
   7  -4  -1    6.07    0.73
  -7  -4   1    7.12    0.67
  -7   4  -1    7.66    0.80
   7   4   1    5.03    0.75
   7  -4  -1    7.30    0.81
   7   4   1    5.90    0.55
   8  -4   1   10.92    1.07
  -8   4   1    8.22    0.89
   8  -4   1    7.55    0.90
   8   4  -1   11.33    1.13
   8   4  -1   10.43    1.09
  -8  -4  -1    8.20    0.66
  -8   4  -1    8.37    0.92
   8   4   1    7.54    0.98
   8  -4  -1    6.96    0.89
   8  -4  -1    7.95    0.88
  -8  -4   1    8.03    0.76
   9   4  -1   19.50    1.38
  -9  -4  -1   18.35    1.01
   9  -4   1   18.99    1.34
  -9   4   1   17.33    1.20
   9   4  -1   19.68    1.37
  -9  -4  -1   18.59    1.38
   9  -4   1   19.21    1.40
   9  -4  -1   19.02    1.35
   9   4   1   19.60    1.45
   9  -4  -1   19.21    1.34
  -9  -4   1   18.60    1.08
  -9   4  -1   19.96    1.28
  10   4  -1    5.02    0.92
  10   4  -1    2.90    0.72
 -10  -4  -1    2.95    0.77
 -10   4   1    2.99    0.70
  10  -4   1    4.22    0.87
  10  -4   1    3.74    0.79
  10   4   1    3.83    0.89
 -10   4  -1    4.26    0.80
 -10  -4   1    3.09    0.60
  10  -4  -1    3.26    0.74
  10  -4  -1    2.38    0.72
 -11  -4  -1    5.19    1.00
  11   4  -1    4.68    0.95
  11  -4   1    5.41    1.02
  11   4  -1    3.54    0.84
 -11   4   1    4.81    0.87
  11  -4   1    4.79    0.91
  11  -4  -1    5.99    1.07
  11   4   1    5.60    1.05
 -11   4  -1    3.96    0.82
  11  -4  -1    4.52    0.94
 -11  -4   1    6.18    0.84
  12  -4   1    6.83    1.15
  12  -4   1    4.57    1.07
  12   4  -1    6.70    1.15
 -12   4   1    8.02    1.12
 -12  -4  -1    6.69    1.17
 -12   4  -1    6.73    1.09
  12  -4  -1    7.79    1.26
  12   4   1    5.86    1.12
  12  -4  -1    5.25    1.03
  13   4  -1    1.34    0.71
 -13   4   1    0.75    0.66
 -13  -4  -1    0.72    0.75
  13  -4   1    1.64    0.91
  13  -4  -1    1.01    0.77
  13  -4  -1    2.20    0.88
 -13   4  -1    1.69    0.75
  13   4   1    1.12    0.74
   0   5   1    0.72    0.19
   0   5  -1    0.92    0.22
   0  -5  -1    0.87    0.22
   0  -5  -1    1.06    0.19
   0  -5   1    0.87    0.21
   0   5  -1    1.53    0.26
   0   5   1    1.02    0.21
  -1  -5  -1   34.01    1.01
   1   5  -1   32.72    1.09
   1  -5   1   32.48    0.79
   1   5  -1   33.45    1.07
  -1   5   1   32.26    1.05
  -1   5   1   30.79    1.02
  -1  -5  -1   33.06    1.15
   1  -5   1   32.52    1.12
   1  -5  -1   31.40    1.09
   1  -5  -1   30.73    0.91
   1   5   1   31.43    1.05
  -1  -5   1   32.39    0.86
  -1   5  -1   30.56    1.01
  -1   5  -1   29.94    1.06
   1   5   1   31.89    0.93
  -1  -5   1   30.06    1.06
   2   5  -1   32.75    1.11
   2   5  -1   32.60    1.12
   2  -5   1   31.16    1.16
   2   5  -1   32.54    1.00
  -2  -5  -1   33.88    1.09
  -2   5   1   31.21    1.10
   2  -5   1   33.49    0.93
  -2   5   1   33.14    1.02
  -2  -5   1   33.34    1.15
   2  -5  -1   33.87    1.18
   2  -5  -1   34.31    1.04
   2   5   1   33.06    1.22
  -2   5  -1   34.66    1.19
  -2   5  -1   33.42    1.04
   2   5   1   32.11    0.99
   2   5   1   33.35    1.12
   3   5  -1   34.86    1.24
  -3   5   1   32.73    1.21
   3  -5   1   33.54    1.25
  -3   5   1   34.14    1.03
   3   5  -1   33.36    1.16
  -3  -5  -1   32.76    1.20
   3   5  -1   32.53    1.16
   3   5  -1   34.04    1.16
   3  -5   1   34.21    1.08
  -3   5  -1   35.37    1.06
   3   5   1   32.98    1.17
  -3   5  -1   35.23    1.29
   3  -5  -1   34.92    1.16
   3   5   1   35.80    1.06
   3   5   1   37.03    1.36
   3  -5  -1   35.00    1.26
  -4  -5  -1    4.75    0.54
  -4   5   1    4.93    0.33
   4   5  -1    4.60    0.49
  -4   5   1    4.64    0.54
   4  -5   1    3.28    0.40
   4  -5   1    4.20    0.51
   4   5  -1    3.96    0.50
   4   5  -1    4.25    0.46
   4   5  -1    4.84    0.49
  -4   5  -1    3.09    0.44
   4   5   1    4.26    0.46
   4   5   1    4.04    0.55
   4  -5  -1    3.74    0.47
   4   5   1    4.10    0.34
  -4   5  -1    3.96    0.30
   4  -5  -1    4.48    0.49
  -5   5   1    3.97    0.30
   5   5  -1    3.64    0.50
  -5  -5  -1    4.58    0.37
   5   5  -1    3.89    0.46
   5  -5   1    3.64    0.50
   5  -5   1    3.79    0.49
  -5   5   1    4.33    0.56
  -5  -5  -1    5.07    0.60
   5   5  -1    3.49    0.43
   5   5  -1    3.97    0.53
   5   5   1    5.94    0.69
  -5   5  -1    4.99    0.62
   5   5   1    6.48    0.52
   5  -5  -1    5.06    0.55
   5  -5  -1    5.85    0.63
  -6  -5  -1    9.84    0.82
   6   5  -1    7.70    0.78
   6   5  -1   11.63    0.85
   6  -5   1    9.15    0.75
   6  -5   1   11.38    0.86
   6   5  -1    9.78    0.65
  -6  -5  -1   10.30    0.58
  -6   5   1    9.70    0.75
  -6   5  -1   10.03    0.79
   6  -5  -1    9.02    0.75
  -6  -5   1   10.02    0.64
   6  -5  -1    8.97    0.77
   6   5   1    9.08    0.62
   6   5   1    8.62    0.87
  -7  -5  -1   58.48    2.21
   7   5  -1   54.77    2.12
   7   5  -1   56.86    1.77
  -7   5   1   52.28    2.00
   7  -5   1   54.14    2.03
   7   5  -1   55.69    2.12
  -7  -5  -1   52.48    1.68
   7  -5   1   51.54    2.08
   7   5   1   52.17    2.15
  -7   5  -1   52.32    2.01
   7   5   1   57.76    1.76
   7  -5  -1   51.33    2.02
   7  -5  -1   54.16    2.04
  -7  -5   1   51.27    1.74
   8  -5   1    7.23    0.89
   8  -5   1    7.92    0.91
   8   5  -1    9.53    1.02
   8   5  -1    8.30    0.95
  -8  -5  -1    7.95    0.64
  -8   5   1    7.65    0.87
  -8  -5  -1    7.32    0.93
  -8   5  -1    9.17    0.98
   8  -5  -1    8.37    0.96
   8   5   1    7.58    0.95
  -8  -5   1    9.10    0.82
   8  -5  -1    7.38    0.90
  -9   5   1    2.59    0.64
  -9  -5  -1    1.90    0.46
   9   5  -1    2.12    0.60
   9  -5   1    3.07    0.69
   9  -5   1    2.09    0.67
  -9  -5  -1    2.34    0.70
   9   5  -1    3.09    0.68
  -9   5  -1    2.12    0.58
   9   5   1    1.53    0.56
   9  -5  -1    2.08    0.57
  -9  -5   1    1.69    0.46
   9  -5  -1    2.18    0.62
 -10   5   1   10.71    1.20
  10  -5   1   10.98    1.19
  10  -5   1   12.09    1.36
  10   5  -1    8.25    1.10
  10   5  -1    9.31    1.15
 -10  -5  -1    8.51    1.20
  10  -5  -1   11.48    1.27
 -10  -5   1   10.03    0.97
  10  -5  -1    7.24    1.03
  10   5   1    6.20    0.99
 -10   5  -1   10.51    1.14
 -11   5   1    0.24    0.46
  11   5  -1    0.42    0.49
  11  -5   1    0.98    0.68
  11  -5   1    0.65    0.60
 -11  -5  -1    1.17    0.64
  11  -5  -1    0.31    0.57
  11   5   1    2.73    0.80
 -11   5  -1    1.21    0.60
  11  -5  -1    1.64    0.69
  12  -5   1    2.88    0.85
 -12  -5  -1    2.24    0.86
  12   5  -1    3.33    0.85
  12  -5   1    2.15    0.81
 -12   5   1    2.54    0.80
 -12   5  -1    4.44    0.99
  12  -5  -1    3.79    0.92
  12   5   1    3.86    1.00
  12  -5  -1    5.35    1.10
 -13   5   1   16.02    1.66
 -13  -5  -1   20.57    2.06
  13  -5   1   16.57    1.85
 -13   5  -1   18.25    1.75
  13  -5  -1   19.33    1.98
  13  -5  -1   21.92    1.87
 -13  -5   1   23.63    1.99
  13   5   1   18.77    1.96
   0   6  -1    3.49    0.41
   0   6  -1    3.89    0.44
   0   6   1    3.04    0.39
   0  -6   1    2.91    0.37
   0   6   1    2.68    0.34
   0  -6  -1    4.14    0.47
   0  -6  -1    3.34    0.30
  -1   6   1    7.68    0.49
  -1  -6  -1    8.39    0.45
   1  -6   1    6.78    0.52
  -1  -6  -1    8.72    0.56
   1   6  -1    8.12    0.53
   1   6  -1    7.87    0.51
  -1   6   1    7.44    0.50
   1  -6  -1    7.49    0.39
  -1   6  -1    6.66    0.46
   1  -6  -1    8.42    0.56
   1   6   1    7.16    0.43
   1   6   1    7.41    0.52
  -1  -6   1    7.57    0.52
  -1   6  -1    8.12    0.54
  -1  -6   1    7.14    0.33
   2  -6   1  176.75    3.93
   2   6  -1  174.83    4.21
  -2  -6  -1  181.65    4.44
   2  -6   1  177.10    4.38
  -2  -6  -1  174.72    4.16
  -2   6   1  171.29    4.08
   2   6  -1  171.87    4.12
  -2   6   1  175.46    4.16
  -2   6  -1  173.78    4.23
   2   6   1  176.09    4.22
  -2   6  -1  173.59    4.12
   2  -6  -1  176.38    4.39
  -2  -6   1  183.34    4.11
  -2  -6   1  178.04    4.36
   2  -6  -1  179.82    4.10
   2   6   1  173.71    3.98
  -3   6   1   11.80    0.58
   3  -6   1   12.21    0.58
  -3  -6  -1   13.07    0.70
   3   6  -1   12.67    0.71
   3  -6   1   10.98    0.72
  -3   6   1   11.84    0.73
   3   6  -1   12.13    0.68
   3   6   1   12.33    0.76
   3  -6  -1   10.67    0.71
   3  -6  -1   10.63    0.59
  -3   6  -1   11.12    0.73
  -3   6  -1   11.33    0.58
   3   6   1   11.23    0.56
   3   6   1   11.38    0.67
  -4   6   1   37.20    1.47
   4   6  -1   42.02    1.44
  -4  -6  -1   40.87    1.48
   4  -6   1   39.80    1.33
   4  -6   1   39.61    1.52
  -4   6   1   38.81    1.20
   4   6  -1   40.80    1.52
   4   6  -1   40.30    1.41
   4   6  -1   40.31    1.38
   4  -6  -1   41.65    1.43
   4  -6  -1   41.59    1.55
   4   6   1   44.13    1.66
   4   6   1   41.99    1.45
   4   6   1   44.32    1.29
  -4   6  -1   40.30    1.55
  -4   6  -1   42.16    1.25
   5  -6   1    1.62    0.37
   5   6  -1    1.56    0.36
   5  -6   1    2.44    0.47
  -5  -6  -1    1.43    0.37
  -5   6   1    2.31    0.29
   5   6  -1    1.72    0.35
  -5   6   1    1.51    0.41
   5   6  -1    1.85    0.38
   5   6  -1    2.38    0.45
  -5   6  -1    1.53    0.37
  -5   6  -1    2.67    0.30
   5  -6  -1    2.08    0.39
   5   6   1    2.64    0.51
   5   6   1    2.59    0.34
   5   6   1    2.29    0.40
   5  -6  -1    2.18    0.45
   6   6  -1   11.47    0.88
   6   6  -1   10.91    0.83
  -6  -6  -1    9.79    0.59
   6  -6   1   13.46    0.86
  -6  -6  -1   11.32    0.88
   6   6  -1   11.55    0.74
   6  -6   1   11.83    0.89
   6   6  -1   11.40    0.73
  -6   6   1   10.89    0.85
   6   6   1   11.43    0.74
   6  -6  -1   13.31    0.89
  -6   6  -1   11.81    0.90
   6   6   1   11.99    0.94
   6  -6  -1   10.23    0.86
  -7  -6  -1    1.63    0.50
   7  -6   1    0.73    0.42
  -7  -6  -1    1.21    0.30
   7   6  -1    0.87    0.41
   7  -6   1    0.78    0.38
   7   6  -1    0.75    0.32
  -7   6   1    1.24    0.41
   7   6  -1    0.90    0.39
   7   6   1    1.05    0.34
  -7  -6   1    1.05    0.32
  -7   6  -1    0.34    0.38
   7  -6  -1    1.48    0.48
   7  -6  -1    0.83    0.41
   7   6   1    0.58    0.39
  -8   6   1   31.51    1.63
   8  -6   1   35.50    1.71
  -8  -6  -1   37.76    1.85
   8   6  -1   38.95    1.81
   8  -6   1   34.63    1.77
  -8  -6  -1   33.28    1.34
   8   6  -1   34.67    1.73
   8  -6  -1   32.64    1.66
  -8   6  -1   32.61    1.65
   8   6   1   31.69    1.75
  -8  -6   1   31.85    1.36
   8  -6  -1   33.35    1.66
   9   6  -1    6.39    0.93
   9   6  -1    5.83    0.91
  -9   6   1    6.54    0.94
   9  -6   1    5.32    0.84
   9  -6   1    3.91    0.78
  -9  -6  -1    5.07    0.86
  -9  -6   1    5.60    0.68
   9   6   1    4.02    0.84
   9  -6  -1    4.05    0.79
   9  -6  -1    5.12    0.84
  -9   6  -1    5.88    0.89
 -10   6   1    0.45    0.50
  10   6  -1   -0.05    0.46
 -10  -6  -1   -0.02    0.45
  10  -6   1    1.98    0.67
  10  -6   1    1.01    0.62
  10  -6  -1    0.70    0.55
  10  -6  -1    1.14    0.58
 -10   6  -1    1.04    0.57
  10   6   1    0.72    0.54
  11  -6   1    3.28    0.84
  11  -6   1    2.52    0.78
  11   6  -1    2.09    0.72
 -11   6   1    1.51    0.67
 -11  -6  -1    2.26    0.75
  11  -6  -1    2.08    0.76
  11   6   1    1.74    0.74
  11  -6  -1    3.21    0.84
 -11   6  -1    1.56    0.67
  12  -6   1   16.45    1.66
 -12   6   1   16.16    1.68
 -12  -6  -1   18.24    1.82
  12  -6   1   15.06    1.72
  12   6  -1   17.18    1.75
 -12   6  -1   15.25    1.60
  12  -6  -1   16.92    1.72
 -12  -6   1   16.93    1.79
  12  -6  -1   15.37    1.69
  12   6   1   14.48    1.63
 -13  -6  -1   -0.23    0.65
 -13   6   1    0.58    0.69
  13  -6   1   -0.59    0.66
  13  -6  -1   -0.19    0.66
  13   6   1   -0.14    0.64
 -13  -6   1   -0.15    0.64
  13  -6  -1    0.41    0.70
 -13   6  -1   -0.34    0.55
   0   7   1    1.77    0.32
   0   7   1    1.28    0.27
   0  -7  -1    2.00    0.36
   0   7  -1    0.93    0.27
   0  -7   1    1.72    0.35
   0   7  -1    1.95    0.35
   0  -7  -1    1.63    0.25
  -1   7   1   10.42    0.64
  -1   7   1   10.91    0.63
  -1  -7  -1    9.94    0.67
  -1  -7  -1   11.00    0.55
   1  -7   1    9.88    0.67
   1   7  -1   11.34    0.64
   1   7  -1   10.91    0.66
   1  -7  -1    9.24    0.46
  -1  -7   1   10.48    0.65
   1   7   1    9.26    0.53
   1  -7  -1    8.86    0.64
   1   7   1    9.37    0.61
  -1   7  -1    9.21    0.63
  -1  -7   1    9.49    0.40
  -1   7  -1    8.50    0.57
  -2  -7  -1   13.77    0.80
   2  -7   1   13.60    0.80
  -2   7   1   13.29    0.69
  -2   7   1   13.78    0.78
   2   7  -1   13.89    0.74
  -2  -7  -1   13.07    0.65
   2   7  -1   12.84    0.75
   2  -7   1   13.35    0.50
  -2   7  -1   16.25    0.87
   2   7   1   13.86    0.79
  -2  -7   1   17.40    0.67
   2  -7  -1   16.67    0.87
   2   7   1   16.06    0.71
  -2  -7   1   16.56    0.84
   2  -7  -1   15.10    0.65
  -2   7  -1   16.01    0.77
   3  -7   1    3.27    0.48
   3  -7   1    3.67    0.36
  -3  -7  -1    4.15    0.47
   3   7  -1    4.96    0.55
  -3   7   1    3.37    0.40
   3   7  -1    4.35    0.52
  -3   7   1    3.41    0.49
  -3   7  -1    3.09    0.39
   3   7   1    3.70    0.40
  -3   7  -1    3.02    0.51
  -3  -7   1    5.09    0.58
   3  -7  -1    3.16    0.47
   3  -7  -1    3.67    0.40
   3   7   1    3.99    0.50
   3   7   1    5.12    0.62
  -3  -7   1    3.22    0.39
   4   7  -1   25.47    1.10
   4   7  -1   25.72    1.13
   4   7  -1   27.54    1.23
  -4  -7  -1   27.53    1.17
  -4   7   1   24.79    1.19
   4  -7   1   26.41    1.02
  -4   7   1   25.14    0.96
   4  -7  -1   28.48    1.29
  -4   7  -1   28.14    1.30
   4  -7  -1   29.06    1.14
   4   7   1   29.75    1.23
   4   7   1   29.91    1.05
  -4   7  -1   30.69    1.05
   4   7   1   31.04    1.38
  -5   7   1    3.39    0.54
   5   7  -1    4.54    0.57
  -5   7   1    3.73    0.40
  -5  -7  -1    3.00    0.49
   5  -7   1    2.98    0.45
   5   7  -1    4.43    0.52
   5   7  -1    3.51    0.56
   5  -7   1    3.38    0.55
   5   7   1    4.49    0.55
  -5   7  -1    4.49    0.42
   5  -7  -1    4.02    0.59
   5   7   1    5.35    0.49
   5   7   1    4.12    0.63
  -5   7  -1    3.84    0.58
   5  -7  -1    4.72    0.54
  -6   7   1    4.04    0.64
   6   7  -1    6.26    0.66
  -6  -7  -1    4.81    0.49
   6   7  -1    4.08    0.63
  -6  -7  -1    5.47    0.71
   6  -7   1    6.66    0.81
   6  -7   1    4.52    0.60
   6   7  -1    5.25    0.59
   6  -7  -1    4.84    0.63
   6   7   1    4.88    0.59
  -6   7  -1    3.71    0.63
   6  -7  -1    4.25    0.63
   6   7   1    3.57    0.64
  -7  -7  -1   26.68    1.09
   7   7  -1   29.64    1.51
   7  -7   1   28.22    1.39
  -7   7   1   26.93    1.46
  -7  -7  -1   25.31    1.46
   7  -7   1   26.29    1.46
   7   7  -1   28.00    1.27
   7  -7  -1   25.81    1.35
  -7   7  -1   26.00    1.44
   7   7   1   23.37    1.42
   7   7   1   26.33    1.22
  -7  -7   1   24.11    1.13
   7  -7  -1   25.30    1.40
   8  -7   1   22.39    1.47
  -8   7   1   24.41    1.47
   8   7  -1   24.96    1.48
   8  -7   1   24.40    1.41
   8   7  -1   26.85    1.27
  -8  -7  -1   23.48    1.49
   8   7   1   27.05    1.29
   8  -7  -1   27.64    1.51
  -8  -7   1   28.16    1.26
  -8   7  -1   23.46    1.48
   8  -7  -1   24.93    1.51
   8   7   1   26.80    1.61
  -9   7   1    8.55    1.06
   9  -7   1    7.99    1.03
  -9  -7  -1    7.61    1.09
   9  -7   1    7.51    1.04
   9   7  -1    6.36    0.92
   9   7   1    6.21    0.99
  -9   7  -1    7.61    1.00
   9  -7  -1    7.97    0.99
   9  -7  -1    8.49    1.04
  -9  -7   1    6.82    0.79
  10  -7   1   13.91    1.47
  10   7  -1   14.63    1.51
 -10  -7  -1   14.34    1.50
  10  -7   1   13.57    1.38
 -10   7   1   13.60    1.41
  10   7   1   12.29    1.35
 -10   7  -1   14.69    1.45
  10  -7  -1   14.36    1.45
  10  -7  -1   14.15    1.41
 -10  -7   1   15.20    1.55
  11  -7   1    0.01    0.54
 -11   7   1    0.19    0.52
  11   7  -1   -0.01    0.52
  11  -7   1    0.25    0.63
 -11  -7  -1    0.27    0.57
 -11   7  -1    0.13    0.59
 -11  -7   1    0.29    0.51
  11   7   1    1.36    0.65
  11  -7  -1    0.26    0.58
  11  -7  -1   -0.38    0.58
  12   7  -1    1.77    0.81
 -12  -7  -1    1.97    0.85
  12  -7   1    1.36    0.73
  12  -7   1    2.91    0.95
 -12   7   1    1.59    0.76
  12   7   1    2.23    0.79
  12  -7  -1    1.20    0.76
 -12  -7   1    3.50    0.93
  12  -7  -1    1.85    0.78
 -12   7  -1    3.04    0.89
   0  -8  -1    4.81    0.37
   0  -8   1    5.05    0.56
   0   8   1    4.10    0.47
   0  -8  -1    6.09    0.63
   0   8  -1    4.68    0.52
   0   8   1    3.62    0.46
   0   8  -1    5.74    0.58
  -1  -8  -1    7.57    0.64
   1   8  -1    8.17    0.60
  -1  -8  -1    8.67    0.52
   1   8  -1    7.02    0.59
  -1   8   1    8.61    0.62
   1  -8   1    9.12    0.69
  -1   8   1    9.08    0.63
  -1   8  -1    9.04    0.64
   1  -8  -1    9.37    0.69
  -1  -8   1    9.67    0.42
  -1   8  -1    9.40    0.67
   1  -8  -1    8.29    0.45
   1   8   1    9.37    0.58
   1   8   1    8.80    0.66
  -1  -8   1    9.23    0.67
  -2   8   1    1.59    0.38
   2   8  -1    2.35    0.44
   2  -8   1    1.95    0.21
  -2  -8  -1    2.27    0.34
  -2  -8  -1    2.61    0.46
   2   8  -1    1.35    0.32
   2  -8   1    2.27    0.43
  -2   8   1    1.95    0.36
  -2  -8   1    2.11    0.28
   2   8   1    1.73    0.39
  -2   8  -1    1.37    0.33
   2   8   1    1.94    0.32
  -2   8  -1    1.20    0.34
   2  -8  -1    1.76    0.26
  -2  -8   1    2.18    0.40
   2  -8  -1    1.34    0.36
  -3   8   1   12.36    0.84
   3   8  -1   12.85    0.79
  -3   8   1   13.49    0.73
   3  -8   1   13.91    0.90
  -3  -8  -1   13.17    0.74
  -3  -8  -1   13.69    0.89
   3  -8   1   12.74    0.59
   3   8  -1   13.53    0.84
   3  -8  -1   16.10    0.96
   3   8   1   15.30    0.90
  -3  -8   1   17.52    0.95
   3   8   1   16.87    0.80
  -3  -8   1   17.37    0.79
  -3   8  -1   16.41    0.82
  -3   8  -1   17.32    1.00
   3  -8  -1   17.53    0.77
   4   8  -1    1.27    0.38
   4  -8   1    1.00    0.28
  -4   8   1    1.32    0.31
  -4   8   1    1.08    0.39
   4  -8   1    1.03    0.35
   4   8  -1    1.74    0.37
  -4  -8  -1    1.62    0.36
  -4  -8   1    2.31    0.46
   4  -8  -1    1.39    0.38
   4   8   1    1.95    0.46
   4   8   1    0.93    0.38
  -4   8  -1    1.60    0.32
   4  -8  -1    1.66    0.35
  -4   8  -1    0.71    0.36
   4   8   1    2.08    0.34
  -4  -8   1    1.89    0.36
   5   8  -1   14.97    0.86
   5  -8   1   13.66    1.01
   5   8  -1   14.24    0.96
  -5  -8  -1   14.51    0.93
  -5   8   1   15.15    0.74
   5   8  -1   14.16    0.90
  -5   8   1   12.82    0.96
   5  -8   1   14.29    0.83
   5  -8  -1   11.70    0.93
   5  -8  -1   14.31    0.86
  -5   8  -1   15.08    1.03
   5   8   1   13.90    0.91
   5   8   1   13.44    0.71
   5   8   1   14.11    1.01
  -5  -8   1   15.09    0.91
  -5   8  -1   14.64    0.73
   6   8  -1   30.77    1.30
  -6  -8  -1   31.18    1.49
   6   8  -1   28.47    1.35
   6  -8   1   30.51    1.35
   6  -8   1   29.98    1.53
   6   8  -1   33.22    1.55
  -6   8   1   29.68    1.51
   6   8   1   29.78    1.57
  -6  -8   1   33.41    1.52
   6  -8  -1   31.36    1.41
  -6   8  -1   30.77    1.57
   6  -8  -1   32.41    1.57
   6   8   1   30.45    1.37
  -7   8   1    7.97    0.94
   7   8  -1    8.52    0.80
   7  -8   1    8.80    0.88
   7   8  -1    8.57    0.98
  -7  -8  -1    8.71    0.98
   7  -8   1    6.95    0.88
   7   8  -1    9.45    0.89
   7  -8  -1    6.81    0.89
  -7   8  -1    9.45    1.03
   7   8   1    6.03    0.72
   7  -8  -1    8.94    0.89
  -7  -8   1    7.08    0.86
   7   8   1    8.36    0.96
   8  -8   1   14.40    1.24
  -8   8   1   13.02    1.24
   8   8  -1   12.65    0.96
  -8  -8  -1   13.46    1.29
   8   8  -1   15.59    1.20
   8  -8   1   15.08    1.15
   8   8   1   13.74    1.00
   8   8   1   15.12    1.26
  -8   8  -1   16.82    1.27
   8  -8  -1   15.17    1.17
  -8  -8   1   15.38    0.94
   8  -8  -1   16.64    1.27
  -8  -8   1   15.51    1.22
   9  -8   1   56.75    2.39
   9  -8   1   59.62    2.59
  -9  -8  -1   61.47    2.61
  -9   8   1   53.76    2.43
   9   8  -1   55.81    2.48
  -9   8  -1   50.37    2.33
   9  -8  -1   54.40    2.32
   9  -8  -1   50.37    2.34
   9   8   1   53.33    2.49
  -9  -8   1   51.07    2.38
  10  -8   1   -0.19    0.55
 -10   8   1    0.49    0.54
 -10  -8  -1    0.25    0.52
  10   8  -1    0.73    0.60
  10  -8   1    1.44    0.68
 -10   8  -1    1.01    0.62
 -10  -8   1    0.19    0.52
  10  -8  -1    0.68    0.61
  10  -8  -1    0.39    0.61
  10   8   1    0.51    0.56
 -11   8   1    0.23    0.59
  11   8  -1    0.76    0.63
 -11  -8  -1   -0.01    0.56
  11  -8   1    0.10    0.62
  11  -8   1    0.12    0.59
  11   8   1    0.73    0.66
  11  -8  -1    1.16    0.69
 -11  -8   1    0.69    0.62
  11  -8  -1    1.41    0.72
 -11   8  -1    0.96    0.62
 -12  -8  -1   12.25    1.61
  12  -8   1    7.91    1.33
 -12   8   1    7.41    1.21
  12   8  -1    5.63    1.16
  12  -8  -1    7.35    1.28
  12   8   1    6.27    1.17
 -12   8  -1    6.91    1.20
 -12  -8   1    6.95    1.21
  12  -8  -1    7.20    1.24
   0  -9  -1   25.12    1.20
   0   9   1   25.12    1.05
   0  -9  -1   25.37    0.88
   0   9  -1   23.31    1.10
   0   9  -1   24.38    1.10
   0   9   1   24.22    1.13
   0  -9   1   24.27    1.15
  -1   9   1    4.97    0.59
  -1  -9  -1    4.83    0.60
   1  -9   1    6.24    0.69
   1   9  -1    5.70    0.64
  -1  -9  -1    5.59    0.46
   1   9  -1    5.76    0.60
  -1   9   1    4.10    0.52
   1  -9  -1    6.17    0.67
  -1   9  -1    4.44    0.56
   1   9   1    6.24    0.59
   1  -9  -1    4.93    0.37
   1   9   1    6.15    0.67
  -1  -9   1    5.90    0.35
  -1   9  -1    4.60    0.56
  -1  -9   1    6.48    0.67
  -2   9   1   48.11    1.66
   2  -9   1   45.75    1.79
   2   9  -1   48.92    1.76
  -2  -9  -1   53.25    1.58
  -2  -9  -1   48.78    1.83
   2   9  -1   51.52    1.72
  -2   9   1   46.36    1.72
  -2  -9   1   49.47    1.79
  -2  -9   1   49.36    1.43
   2   9   1   51.59    1.80
  -2   9  -1   49.67    1.69
  -2   9  -1   48.50    1.78
   2  -9  -1   46.01    1.40
   2   9   1   50.75    1.60
   2  -9  -1   50.33    1.84
  -3  -9  -1    8.43    0.86
  -3   9   1    9.64    0.78
   3  -9   1    7.91    0.80
   3   9  -1    9.82    0.88
  -3  -9  -1    9.33    0.63
   3   9  -1    7.99    0.76
  -3   9   1    7.98    0.64
   3  -9  -1    8.66    0.55
  -3   9  -1    7.02    0.67
   3   9   1    9.39    0.86
   3   9   1    8.35    0.61
   3  -9  -1    8.84    0.78
  -3  -9   1    8.31    0.57
  -3   9  -1    9.72    0.91
  -3  -9   1    8.26    0.83
   4   9  -1   11.38    0.78
  -4   9   1    9.76    0.67
  -4   9   1   11.16    0.90
   4  -9   1   10.39    0.70
  -4  -9  -1    9.90    0.73
   4   9  -1    9.56    0.78
  -4  -9  -1    9.72    0.96
   4  -9   1   10.65    0.91
   4   9   1   10.46    0.66
  -4  -9   1   10.65    0.81
   4   9   1    9.17    0.79
  -4   9  -1   11.16    1.02
  -4  -9   1   10.67    0.72
  -4   9  -1   11.25    0.71
   4  -9  -1   10.19    0.67
   4  -9  -1   10.59    0.88
   5  -9   1    3.62    0.62
   5   9  -1    2.95    0.54
  -5   9   1    3.74    0.67
  -5   9   1    4.17    0.51
  -5  -9  -1    3.41    0.56
   5   9  -1    4.79    0.61
   5   9   1    3.10    0.57
  -5  -9   1    5.06    0.69
  -5   9  -1    4.06    0.68
   5  -9  -1    3.45    0.61
   5   9   1    4.47    0.53
  -5   9  -1    3.96    0.49
   5  -9  -1    4.06    0.53
   5   9   1    5.09    0.77
  -5  -9   1    4.29    0.59
  -6   9   1   19.25    1.28
   6   9  -1   20.85    1.26
   6   9  -1   19.33    1.14
   6  -9   1   18.91    1.28
   6   9  -1   19.99    1.07
  -6  -9  -1   19.05    1.17
   6  -9  -1   17.14    1.20
  -6  -9   1   17.02    1.09
   6   9   1   15.32    1.03
   6   9   1   15.27    1.16
   6  -9  -1   16.44    1.02
  -6   9  -1   15.20    1.16
  -7   9   1   14.10    1.32
   7  -9   1   11.26    1.18
  -7  -9  -1   13.29    1.08
   7   9  -1   15.52    0.97
   7   9  -1   12.93    1.10
   7   9  -1   12.05    0.96
  -7   9  -1    9.35    1.07
   7   9   1   11.59    0.95
   7   9   1   11.61    1.21
   7  -9  -1   10.95    1.00
  -7  -9   1   12.47    1.02
   7  -9  -1   10.06    1.10
   8   9  -1    2.74    0.72
   8  -9   1    3.56    0.78
  -8  -9  -1    2.99    0.71
   8   9  -1    3.38    0.65
  -8   9   1    1.51    0.56
   8   9   1    1.24    0.57
   8   9   1    1.74    0.52
  -8   9  -1    1.77    0.61
   8  -9  -1    1.39    0.57
  -8  -9   1    1.19    0.52
   8  -9  -1    1.38    0.60
   9   9  -1    0.99    0.59
  -9   9   1    1.97    0.70
   9  -9   1    1.74    0.69
  -9  -9  -1    1.59    0.64
   9  -9  -1    0.94    0.56
   9  -9  -1    2.44    0.75
  -9   9  -1    1.39    0.68
  -9  -9   1    1.50    0.56
   9   9   1    0.88    0.55
  10  -9   1   19.16    1.67
 -10   9   1   17.76    1.71
 -10  -9  -1   18.08    1.55
  10   9  -1   17.08    1.48
 -10  -9   1   17.31    1.49
  10  -9  -1   18.88    1.55
 -10   9  -1   16.63    1.62
  10   9   1   14.02    1.49
  11  -9   1    7.95    1.29
 -11  -9  -1    5.08    1.03
  11   9  -1    5.46    1.04
 -11   9   1    4.65    1.02
 -11  -9   1    6.74    1.18
  11  -9  -1    6.10    1.13
  11   9   1    5.17    1.03
 -11   9  -1    6.67    1.15
 -12  -9  -1    5.26    1.15
  12   9  -1    3.31    0.90
 -12   9   1    4.19    1.02
  12  -9   1    3.95    1.09
  12   9   1    2.63    0.91
 -12   9  -1    2.30    0.85
  12  -9  -1    3.12    1.05
 -12  -9   1    5.16    1.14
   0 -10   1    9.32    0.78
   0  10   1   10.64    0.74
   0  10  -1   12.35    0.85
   0  10  -1   10.18    0.75
   0 -10  -1   11.28    0.85
   0  10   1    9.34    0.78
  -1  10   1    0.84    0.34
   1  10  -1    0.79    0.29
   1 -10   1    0.52    0.34
   1  10  -1    1.02    0.37
  -1  10   1    1.18    0.36
  -1 -10  -1    0.94    0.28
  -1 -10  -1    1.22    0.36
  -1 -10   1    1.27    0.39
   1  10   1    1.13    0.38
   1 -10  -1    0.99    0.39
   1  10   1    1.53    0.34
  -1  10  -1    1.13    0.35
  -1  10  -1    0.70    0.33
   2 -10   1    5.55    0.69
  -2  10   1    6.64    0.69
   2  10  -1    5.11    0.67
  -2 -10  -1    6.30    0.52
  -2  10   1    5.44    0.65
  -2 -10  -1    7.14    0.81
   2  10  -1    7.41    0.74
  -2  10  -1    7.15    0.71
  -2  10  -1    6.94    0.76
   2  10   1    6.27    0.71
   2 -10  -1    7.48    0.81
   2  10   1    7.14    0.66
  -2 -10   1    7.71    0.80
   3  10  -1   43.42    1.67
  -3  10   1   43.77    1.60
  -3 -10  -1   43.83    1.53
   3  10  -1   44.75    1.75
  -3  10   1   44.30    1.76
   3 -10   1   40.14    1.77
  -3 -10  -1   44.02    1.82
  -3  10  -1   40.08    1.52
   3 -10  -1   39.23    1.72
  -3  10  -1   39.70    1.69
   3  10   1   40.69    1.48
   3  10   1   41.32    1.68
  -3 -10   1   42.68    1.72
  -4  10   1   16.54    0.92
  -4 -10  -1   15.68    0.91
  -4 -10  -1   16.39    1.10
   4  10  -1   16.71    1.06
  -4  10   1   15.60    1.08
   4  10  -1   15.48    0.96
   4 -10   1   15.99    1.12
  -4 -10   1   13.95    0.83
   4  10   1   15.14    1.02
   4 -10  -1   14.48    1.07
   4  10   1   15.49    0.86
  -4  10  -1   12.86    1.14
  -4 -10   1   14.96    1.02
  -4  10  -1   15.57    0.89
  -5 -10  -1   22.86    1.34
  -5  10   1   21.77    1.36
   5  10  -1   21.42    1.14
  -5  10   1   21.22    1.04
   5 -10   1   21.99    1.37
  -5 -10  -1   23.91    1.21
   5  10  -1   22.54    1.26
  -5  10  -1   21.69    1.37
  -5  10  -1   22.86    1.07
   5 -10  -1   22.91    1.38
   5  10   1   21.06    1.22
  -5 -10   1   25.21    1.33
  -5 -10   1   23.25    1.18
   6  10  -1   19.67    1.19
  -6  10   1   18.53    1.32
   6 -10   1   17.44    1.31
   6  10  -1   18.06    1.08
  -6 -10  -1   19.19    1.19
  -6 -10   1   19.26    1.25
  -6 -10   1   19.86    1.18
   6  10   1   18.92    1.19
   6  10   1   19.71    1.37
  -6  10  -1   19.33    1.33
   6 -10  -1   21.17    1.38
  -7  10   1    1.03    0.53
   7  10  -1    2.11    0.60
  -7 -10  -1    1.58    0.53
   7 -10   1    1.61    0.61
   7  10  -1    1.76    0.51
   7 -10  -1    2.24    0.60
  -7  10  -1    1.76    0.63
   7  10   1    2.28    0.57
   7  10   1    2.19    0.61
  -7 -10   1    1.75    0.52
   8  10  -1    2.60    0.70
  -8 -10  -1    1.92    0.64
   8  10  -1    1.91    0.54
   8 -10   1    2.61    0.76
  -8  10   1    1.82    0.64
   8  10   1    3.54    0.68
   8 -10  -1    3.91    0.83
  -8  10  -1    1.85    0.69
  -8 -10   1    3.07    0.69
   8  10   1    2.14    0.69
  -9  10   1   18.72    1.53
   9 -10   1   16.41    1.59
   9  10  -1   20.75    1.56
  -9 -10  -1   19.09    1.51
   9  10   1   18.79    1.82
   9 -10  -1   18.53    1.52
  -9 -10   1   16.45    1.42
  -9  10  -1   17.62    1.67
 -10  10   1   17.17    1.65
 -10 -10  -1   17.33    1.72
  10 -10   1   21.01    1.74
  10  10  -1   17.14    1.49
  10  10   1   21.23    1.72
 -10 -10   1   18.07    1.58
 -10  10  -1   15.19    1.59
  10 -10  -1   19.91    1.72
  11 -10   1    1.95    0.92
  11  10  -1    1.04    0.69
 -11  10   1    1.83    0.79
 -11 -10  -1    1.43    0.76
  11 -10  -1    0.79    0.76
 -11  10  -1    0.50    0.70
  11  10   1    1.46    0.77
 -11 -10   1    0.54    0.60
   0  11  -1   -0.03    0.30
   0  11   1    0.33    0.28
   0 -11  -1    0.07    0.33
   0  11  -1    0.43    0.30
   0 -11   1    0.70    0.35
   0  11   1    0.50    0.35
  -1 -11  -1   38.98    1.68
   1 -11   1   32.90    1.56
  -1  11   1   37.83    1.57
  -1  11   1   36.06    1.50
   1  11  -1   36.84    1.59
   1  11  -1   36.24    1.50
   1  11   1   40.52    1.49
  -1 -11   1   39.58    1.65
   1  11   1   35.35    1.60
   1 -11  -1   34.99    1.62
  -1  11  -1   37.44    1.58
  -1  11  -1   36.26    1.57
   2  11  -1   27.52    1.31
  -2  11   1   25.06    1.25
   2 -11   1   29.57    1.45
  -2  11   1   27.31    1.36
   2  11  -1   25.98    1.34
  -2 -11  -1   28.01    1.43
  -2  11  -1   26.24    1.24
   2  11   1   25.09    1.32
  -2  11  -1   25.41    1.32
   2 -11  -1   24.06    1.33
  -2 -11   1   25.32    1.30
   2  11   1   22.29    1.10
  -3 -11  -1    2.76    0.58
   3 -11   1    3.27    0.65
   3  11  -1    3.41    0.57
   3  11  -1    2.79    0.55
  -3  11   1    2.42    0.49
  -3  11   1    3.31    0.62
   3  11   1    3.03    0.59
  -3  11  -1    2.47    0.57
  -3 -11   1    2.13    0.51
   3 -11  -1    2.34    0.57
   3  11   1    3.06    0.49
  -3  11  -1    1.76    0.43
  -4 -11  -1   18.52    1.23
  -4  11   1   20.25    1.28
   4 -11   1   19.17    1.27
  -4  11   1   18.89    1.05
   4  11  -1   18.92    1.12
   4  11  -1   20.42    1.22
   4 -11  -1   16.62    1.22
  -4  11  -1   17.97    1.02
  -4  11  -1   17.99    1.21
   4  11   1   18.49    1.19
  -4 -11   1   16.93    1.12
   5  11  -1   32.06    1.60
  -5  11   1   32.68    1.69
  -5 -11  -1   31.77    1.55
  -5 -11  -1   33.99    1.70
   5 -11   1   32.11    1.72
   5  11  -1   30.72    1.45
  -5 -11   1   32.03    1.62
  -5  11  -1   32.84    1.71
   5  11   1   31.41    1.59
   5 -11  -1   32.30    1.71
  -6 -11  -1    1.16    0.45
  -6  11   1    0.77    0.51
   6  11  -1    0.48    0.43
   6 -11   1    0.77    0.55
  -6 -11  -1    0.97    0.53
   6  11   1    0.94    0.47
  -6 -11   1    0.65    0.40
   6 -11  -1    0.80    0.50
  -6  11  -1    0.06    0.40
   7  11  -1    0.10    0.40
  -7 -11  -1    0.07    0.39
  -7  11   1   -0.02    0.48
   7 -11   1    0.40    0.53
   7  11   1    0.25    0.45
  -7  11  -1    0.03    0.48
   7 -11  -1    0.86    0.59
   7  11   1    0.42    0.45
  -7 -11   1   -0.30    0.33
   8  11  -1    6.96    0.95
  -8  11   1    5.93    1.00
  -8 -11  -1    8.48    1.06
   8 -11   1    6.14    1.00
   8 -11  -1    3.66    0.86
  -8  11  -1    7.06    1.11
   8  11   1    7.81    1.12
   8  11   1    7.28    0.94
   9  11  -1    6.04    1.07
  -9 -11  -1    5.06    0.95
  -9  11   1    5.54    1.04
   9 -11   1    2.95    0.90
   9 -11  -1    4.13    0.94
   9  11   1    3.06    0.83
  -9  11  -1    3.64    0.91
  10  11  -1   -0.19    0.51
 -10 -11  -1    0.03    0.55
 -10  11   1    1.23    0.70
  10 -11   1   -0.70    0.65
 -10  11  -1   -0.04    0.60
  10  11   1    0.46    0.58
  10 -11  -1    0.30    0.66
  11  11  -1    7.03    1.19
 -11  11   1    8.58    1.38
 -11 -11  -1    9.72    1.34
  11 -11   1   10.33    1.47
 -11  11  -1    8.11    1.33
  11 -11  -1    8.52    1.35
  11  11   1    8.60    1.31
   0 -12  -1    1.12    0.47
   0  12  -1   -0.09    0.32
   0  12   1    0.61    0.35
   0  12   1   -0.15    0.37
   0  12  -1    0.34    0.40
   0 -12   1    0.44    0.40
   1 -12   1    6.26    0.82
  -1  12   1    5.87    0.76
  -1  12   1    6.17    0.75
   1  12  -1    7.18    0.89
  -1 -12  -1    6.24    0.87
   1  12  -1    5.78    0.70
   1 -12  -1    5.22    0.75
  -1  12  -1    6.02    0.76
   1  12   1    6.12    0.69
   1  12   1    7.18    0.89
  -1  12  -1    4.94    0.69
  -1 -12   1    5.90    0.78
  -2  12   1   31.77    1.52
  -2 -12  -1   30.68    1.57
   2  12  -1   31.24    1.46
   2  12  -1   27.35    1.47
   2 -12   1   28.65    1.53
  -2  12   1   32.84    1.48
  -2  12  -1   30.28    1.51
   2  12   1   30.65    1.54
  -2  12  -1   29.53    1.43
   2  12   1   32.99    1.40
  -2 -12   1   30.00    1.53
   2 -12  -1   30.90    1.59
   3 -12   1    5.08    0.76
   3  12  -1    6.49    0.83
  -3  12   1    4.90    0.69
   3  12  -1    5.99    0.77
  -3  12   1    4.66    0.71
  -3 -12  -1    6.17    0.83
  -3  12  -1    8.53    0.86
  -3  12  -1    7.55    0.93
   3  12   1    7.07    0.87
  -3 -12   1    6.64    0.86
   3 -12  -1    8.16    0.99
  -4  12   1   28.17    1.37
  -4 -12  -1   31.30    1.63
   4 -12   1   27.66    1.60
   4  12  -1   33.20    1.62
  -4  12   1   27.99    1.57
   4  12  -1   29.45    1.46
   4  12   1   29.64    1.57
  -4  12  -1   31.47    1.67
  -4 -12   1   31.94    1.63
  -4  12  -1   31.44    1.44
   4 -12  -1   30.91    1.69
  -5 -12  -1   19.24    1.35
   5 -12   1   20.46    1.43
  -5  12   1   19.28    1.39
   5  12  -1   18.33    1.29
  -5  12  -1   16.22    1.31
   5 -12  -1   19.29    1.43
   5  12   1   19.31    1.28
  -5 -12   1   19.44    1.29
  -6  12   1    9.65    1.18
   6 -12   1    8.82    1.11
  -6 -12  -1    7.28    1.03
   6  12  -1    6.84    0.91
   6  12   1    8.97    1.04
   6 -12  -1    9.43    1.20
  -6  12  -1    9.01    1.15
  -6 -12   1    9.99    1.14
  -7  12   1    3.78    0.82
   7 -12   1    4.62    0.92
   7  12  -1    2.81    0.69
  -7 -12  -1    2.33    0.69
  -7 -12   1    2.07    0.63
  -7  12  -1    4.69    0.99
   7  12   1    4.64    0.82
   7 -12  -1    4.04    0.90
   8  12  -1    1.46    0.58
   8 -12   1    1.44    0.77
  -8  12   1    2.05    0.76
   8 -12  -1    2.05    0.76
   8  12   1    1.21    0.58
  -8 -12   1    1.11    0.56
  -8  12  -1    1.45    0.70
   9 -12   1   -0.02    0.62
  -9  12   1   -0.18    0.58
   9  12   1    0.58    0.59
  -9 -12   1   -0.19    0.45
   9 -12  -1   -0.62    0.55
  -9  12  -1   -0.26    0.56
 -10  12   1   18.33    1.91
  10 -12   1   17.56    1.86
  10  12   1   21.08    1.79
 -10  12  -1   19.66    1.93
  10 -12  -1   18.26    1.86
   0  13  -1    0.12    0.33
   0  13   1    0.76    0.38
   0  13  -1    0.79    0.44
   0 -13   1    1.58    0.53
   0 -13  -1    1.04    0.47
   0  13   1    0.68    0.43
  -1  13   1   24.00    1.34
  -1 -13  -1   22.76    1.40
   1 -13   1   21.35    1.34
   1  13  -1   22.08    1.28
  -1  13   1   20.81    1.26
   1  13  -1   23.27    1.36
  -1  13  -1   24.53    1.38
   1  13   1   27.53    1.32
   1 -13  -1   25.05    1.47
  -1  13  -1   23.90    1.35
   1  13   1   23.08    1.41
  -1 -13   1   24.08    1.42
  -2  13   1   21.42    1.29
  -2 -13  -1   20.28    1.34
  -2  13   1   24.51    1.35
   2 -13   1   21.71    1.39
   2  13  -1   19.81    1.30
   2  13  -1   22.20    1.27
  -2  13  -1   20.48    1.23
   2  13   1   21.62    1.33
   2 -13  -1   20.04    1.34
  -2 -13   1   19.09    1.33
  -2  13  -1   21.62    1.31
  -3 -13  -1    4.05    0.76
   3 -13   1    2.91    0.67
   3  13  -1    3.12    0.62
   3  13  -1    4.70    0.79
  -3  13   1    2.71    0.57
  -3  13   1    2.99    0.63
  -3 -13   1    3.54    0.69
   3 -13  -1    2.83    0.67
  -3  13  -1    2.36    0.62
   3  13   1    2.80    0.65
  -3  13  -1    3.33    0.61
   4  13  -1    0.55    0.46
   4 -13   1   -0.16    0.42
  -4  13   1    0.72    0.50
  -4 -13  -1    0.68    0.44
  -4  13   1    0.18    0.40
   4 -13  -1    0.39    0.51
  -4  13  -1    0.32    0.48
   4  13   1    0.98    0.54
  -4  13  -1   -0.34    0.31
  -4 -13   1    0.24    0.46
   5 -13   1   21.49    1.55
   5  13  -1   24.09    1.49
  -5  13   1   22.71    1.56
  -5 -13  -1   21.64    1.49
   5 -13  -1   22.83    1.59
  -5 -13   1   24.35    1.51
   5  13   1   23.15    1.49
  -5  13  -1   26.16    1.64
   6 -13   1   39.65    2.12
  -6 -13  -1   39.27    2.05
  -6  13   1   39.87    2.11
   6  13  -1   37.63    1.93
   6 -13  -1   43.18    2.22
   6  13   1   38.36    1.97
  -6 -13   1   39.28    2.00
  -6  13  -1   37.67    2.07
  -7 -13  -1    3.00    0.76
   7 -13   1    1.42    0.70
  -7  13   1    0.24    0.54
   7  13  -1    0.98    0.56
  -7 -13   1    3.61    0.77
   7 -13  -1    1.52    0.77
   7  13   1    2.69    0.70
  -7  13  -1    2.90    0.85
   8 -13   1    0.00    0.67
   8  13  -1   -0.02    0.45
  -8 -13  -1   -0.03    0.50
  -8  13   1    0.14    0.60
   8  13   1   -0.08    0.46
   8 -13  -1    1.10    0.67
  -8 -13   1    0.85    0.51
  -8  13  -1    1.76    0.79
   9  13  -1    5.56    1.03
   9 -13   1    5.86    1.13
  -9 -13  -1    6.28    1.07
  -9  13   1    5.13    1.11
  -9 -13   1    5.96    1.03
   9 -13  -1    6.57    1.21
  -9  13  -1    6.40    1.21
  10 -13   1   -0.66    0.74
 -10  13   1   -0.27    0.67
  10 -13  -1    0.15    0.70
 -10  13  -1   -0.26    0.68
 -10 -13   1   -0.04    0.61
   0 -14   1    0.35    0.46
   0  14   1    0.03    0.43
   0  14  -1    0.19    0.35
   0 -14  -1    0.08    0.43
   0  14  -1   -0.05    0.40
   0  14   1    0.09    0.35
   1  14  -1   26.20    1.45
  -1 -14  -1   25.09    1.56
  -1  14   1   29.22    1.51
  -1  14   1   27.42    1.53
   1  14  -1   25.56    1.50
   1 -14   1   28.20    1.61
  -1  14  -1   28.64    1.52
   1 -14  -1   24.91    1.57
   1  14   1   27.44    1.55
  -1 -14   1   23.76    1.47
  -1  14  -1   28.73    1.53
  -2 -14  -1    0.92    0.52
   2 -14   1    1.27    0.56
   2  14  -1    2.23    0.64
  -2  14   1    1.43    0.53
   2  14  -1    1.56    0.51
  -2  14   1    1.46    0.50
   2  14   1    1.15    0.51
  -2 -14   1    2.03    0.57
  -2  14  -1    1.14    0.53
   2 -14  -1    1.65    0.59
  -2  14  -1    0.83    0.46
  -3  14   1   16.82    1.27
  -3 -14  -1   16.13    1.29
  -3  14   1   16.57    1.14
   3  14  -1   15.78    1.24
   3 -14   1   12.78    1.30
  -3  14  -1   14.00    1.11
   3 -14  -1   15.16    1.45
   3  14   1   12.65    1.21
  -3  14  -1   13.98    1.32
  -3 -14   1   14.39    1.21
   4 -14   1    5.61    0.98
  -4  14   1    3.86    0.81
  -4  14   1    3.77    0.69
   4  14  -1    3.30    0.76
  -4 -14  -1    3.47    0.77
  -4  14  -1    5.57    0.82
   4 -14  -1    5.25    0.97
   4  14   1    5.84    0.92
  -4 -14   1    3.91    0.78
  -4  14  -1    3.67    0.81
  -5 -14  -1   23.55    1.61
   5  14  -1   22.86    1.55
   5 -14   1   25.95    1.72
  -5  14   1   23.46    1.62
  -5  14  -1   23.09    1.62
   5 -14  -1   23.77    1.67
   5  14   1   21.83    1.52
  -5 -14   1   23.39    1.55
  -6 -14  -1    0.96    0.60
  -6  14   1    0.84    0.66
   6 -14   1   -0.43    0.53
   6  14  -1    0.89    0.61
   6  14   1    1.20    0.61
  -6  14  -1    1.73    0.71
  -6 -14   1    1.01    0.59
   6 -14  -1    0.99    0.66
   7  14  -1   14.71    1.45
   7 -14   1   17.46    1.75
  -7 -14  -1   15.49    1.62
  -7  14   1   15.98    1.70
  -7 -14   1   16.81    1.62
   7 -14  -1   13.95    1.54
  -7  14  -1   17.82    1.70
   7  14   1   14.24    1.46
   8  14  -1    1.65    0.64
  -8  14   1    1.11    0.72
   8 -14   1    1.60    0.85
  -8 -14  -1    1.28    0.66
  -8  14  -1    1.28    0.73
   8 -14  -1    2.50    0.86
  -8 -14   1    2.31    0.75
   8  14   1    1.39    0.66
  -9  14   1    2.80    0.95
   9  14  -1    3.45    0.82
   9 -14   1    2.65    0.96
  -9 -14  -1    2.37    0.79
   9 -14  -1    3.17    0.98
   9  14   1    2.20    0.79
  -9 -14   1    2.12    0.74
  -9  14  -1    1.75    0.91
   0 -15   1   86.63    3.20
   0  15   1   91.67    3.17
   0  15  -1   90.52    3.05
   0 -15  -1   89.25    3.26
   0  15  -1   89.14    3.15
  -1 -15  -1    6.95    1.00
  -1  15   1    7.30    0.93
   1 -15   1    7.60    1.06
   1  15  -1    7.12    0.93
   1  15  -1    7.44    0.98
  -1  15   1    6.79    0.95
  -1 -15   1    7.80    1.04
  -1  15  -1    8.55    1.03
   1 -15  -1    7.30    1.02
   1  15   1    6.42    0.93
  -1  15  -1    8.06    1.06
   2 -15   1    1.35    0.64
  -2  15   1    0.04    0.41
  -2  15   1    0.45    0.46
   2  15  -1    0.18    0.50
  -2 -15  -1    0.93    0.57
   2 -15  -1    0.07    0.48
   2  15   1    0.00    0.47
  -2  15  -1    0.66    0.49
  -2  15  -1    0.17    0.43
  -2 -15   1    0.18    0.45
   3 -15   1    0.04    0.52
  -3  15   1    0.05    0.49
   3  15  -1   -0.62    0.41
  -3  15   1   -0.03    0.42
  -3 -15  -1   -0.25    0.40
  -3 -15   1    0.11    0.48
   3  15   1   -0.38    0.43
  -3  15  -1    0.34    0.47
  -3  15  -1   -0.64    0.36
   3 -15  -1    0.13    0.51
   4  15  -1    2.85    0.77
  -4  15   1    3.55    0.72
   4 -15   1    3.56    0.91
  -4  15   1    1.84    0.67
  -4 -15  -1    2.76    0.76
   4  15   1    2.65    0.70
   4 -15  -1    2.14    0.77
  -4 -15   1    3.09    0.73
  -4  15  -1    1.60    0.56
  -4  15  -1    2.61    0.74
   5  15  -1   -0.38    0.45
  -5  15   1    0.98    0.64
  -5 -15  -1    0.42    0.56
   5 -15   1    1.91    0.74
  -5 -15   1    1.22    0.63
  -5  15  -1    1.21    0.62
   5 -15  -1    2.19    0.76
   5  15   1    1.53    0.65
   6 -15   1   32.32    2.13
   6  15  -1   32.14    1.89
  -6  15   1   28.47    1.95
  -6 -15  -1   29.13    1.91
  -6  15  -1   32.74    2.05
  -6 -15   1   31.03    1.92
   6  15   1   30.01    1.85
   6 -15  -1   32.51    2.10
  -7  15   1    5.19    1.09
  -7 -15  -1    7.79    1.25
   7  15  -1    5.00    0.96
   7 -15   1    7.82    1.31
   7 -15  -1    6.54    1.17
  -7 -15   1    7.36    1.15
   7  15   1    6.62    1.09
  -7  15  -1    6.17    1.14
   8 -15   1    1.77    0.87
  -8  15   1    2.17    0.89
  -8 -15  -1    1.68    0.76
   8  15  -1    1.79    0.74
  -8 -15   1    1.61    0.71
   8 -15  -1    1.69    0.83
   8  15   1    0.41    0.63
  -8  15  -1    1.35    0.83
   0 -16  -1    4.63    0.89
   0  16   1    4.37    0.84
   0  16  -1    4.75    0.89
   0 -16   1    5.86    0.98
   0  16  -1    4.85    0.82
  -1  16   1   13.68    1.35
   1 -16   1   14.59    1.47
   1  16  -1   15.41    1.51
  -1 -16  -1   13.74    1.39
  -1 -16   1   15.81    1.51
  -1  16  -1   13.30    1.30
   1  16   1   12.98    1.32
   1 -16  -1   15.05    1.45
  -1  16  -1   13.74    1.35
  -2  16   1   15.91    1.30
   2  16  -1   15.73    1.51
   2 -16   1   14.64    1.45
  -2 -16  -1   17.47    1.45
  -2  16   1   18.46    1.39
  -2  16  -1   17.07    1.39
  -2 -16   1   16.95    1.43
  -2  16  -1   19.29    1.42
   2 -16  -1   18.54    1.51
   2  16   1   14.49    1.45
   3  16  -1    4.76    0.91
  -3 -16  -1    7.93    1.19
  -3  16   1    7.26    1.00
   3 -16   1    6.99    1.14
  -3  16   1    7.21    1.05
   3  16   1    4.13    0.85
  -3  16  -1    7.35    1.07
  -3 -16   1    5.53    0.93
  -3  16  -1    8.02    1.04
   3 -16  -1    6.02    1.10
   4 -16   1    3.23    0.87
  -4 -16  -1    4.71    0.96
  -4  16   1    1.35    0.69
   4  16  -1    4.51    0.94
   4  16   1    1.95    0.72
  -4  16  -1    3.17    0.85
  -4 -16   1    2.88    0.78
   4 -16  -1    3.42    0.95
   5 -16   1   10.06    1.37
  -5  16   1    9.05    1.28
  -5 -16  -1   11.68    1.40
   5  16  -1    9.12    1.20
  -5 -16   1    9.56    1.23
  -5  16  -1    6.45    1.04
   5 -16  -1   10.50    1.36
   5  16   1    7.92    1.15
   6 -16   1   -0.16    0.71
  -6  16   1    0.39    0.67
   6  16  -1   -0.07    0.52
  -6 -16  -1    0.32    0.58
   6  16   1    0.52    0.61
  -6  16  -1    0.34    0.65
   6 -16  -1   -0.11    0.71
  -6 -16   1    0.62    0.60
  -7 -16  -1    4.39    1.06
  -7  16   1    5.09    1.09
   7  16  -1    4.51    0.92
   7 -16   1    4.43    1.06
   7 -16  -1    5.52    1.17
   7  16   1    3.68    0.93
  -7  16  -1    5.15    1.10
  -7 -16   1    8.39    1.25
   0 -17   1    6.87    1.06
   0  17   1    4.76    0.93
   0  17  -1    5.45    0.98
   0 -17  -1    7.04    1.11
   1  17  -1   19.02    1.53
  -1 -17  -1   18.11    1.74
  -1  17   1   17.96    1.45
   1 -17   1   17.22    1.66
  -1  17  -1   17.61    1.40
   1  17   1   15.82    1.59
  -1  17  -1   16.81    1.59
  -1 -17   1   19.14    1.53
   1 -17  -1   17.75    1.53
   2  17  -1    7.38    1.11
   2 -17   1    8.13    1.20
  -2 -17  -1    5.37    1.08
  -2  17   1    6.20    1.00
  -2 -17   1    7.16    1.06
  -2  17  -1    8.05    1.13
   2 -17  -1    5.78    1.05
   2  17   1    5.81    1.01
  -2  17  -1    8.27    1.12
   3  17  -1    3.17    0.83
  -3  17   1    2.08    0.74
  -3  17   1    2.10    0.76
   3 -17   1    3.40    0.95
  -3 -17  -1    3.69    0.89
   3 -17  -1    4.24    0.97
   3  17   1    4.78    0.97
  -3 -17   1    3.46    0.89
  -3  17  -1    3.85    0.86
  -3  17  -1    3.82    0.88
   4 -17   1    1.79    0.81
  -4 -17  -1    1.71    0.74
  -4  17   1    1.91    0.77
   4  17  -1    1.23    0.68
  -4  17  -1    2.38    0.77
  -4 -17   1    1.74    0.74
   4  17   1    2.25    0.76
   4 -17  -1    1.33    0.78
   5  17  -1    3.43    0.91
  -5  17   1    2.49    0.86
   5 -17   1    3.23    0.99
  -5 -17  -1    4.98    1.03
   5 -17  -1    4.54    1.06
  -5 -17   1    4.05    0.94
   5  17   1    4.50    1.04
  -5  17  -1    2.37    0.83
  -6  17   1    3.62    1.02
   6  17  -1    6.92    1.14
  -6 -17  -1    6.04    1.16
   6 -17   1    6.21    1.29
  -6  17  -1    4.34    1.05
   6  17   1    5.83    1.15
   6 -17  -1    5.04    1.15
  -6 -17   1    6.70    1.15
   0 -18  -1    0.65    0.66
   0  18  -1   -0.14    0.56
   0  18   1    0.01    0.56
   0 -18   1    0.09    0.57
  -1  18   1    2.87    0.81
  -1 -18  -1    0.42    0.64
   1  18  -1    1.65    0.72
   1 -18   1    0.71    0.66
   1 -18  -1    1.94    0.75
  -1  18  -1    2.27    0.78
  -1 -18   1    1.60    0.75
   1  18   1    0.84    0.61
  -2  18   1    8.53    1.20
  -2 -18  -1   11.60    1.43
   2  18  -1    8.77    1.24
   2 -18   1   10.40    1.37
  -2  18  -1    8.23    1.17
  -2 -18   1   11.92    1.44
  -2  18  -1    9.75    1.29
   2  18   1    9.60    1.31
   2 -18  -1    7.10    1.20
  -3  18   1    2.86    0.83
   3 -18   1    2.27    0.87
  -3 -18  -1    3.54    0.94
   3  18  -1    4.47    1.00
   3  18   1    5.11    1.05
  -3  18  -1    4.60    0.97
   3 -18  -1    5.47    1.18
  -3 -18   1    4.59    0.96
  -3  18  -1    2.25    0.80
  -4  18   1    5.27    1.04
  -4 -18  -1    6.49    1.16
   4 -18   1    5.73    1.13
   4  18  -1    5.67    1.08
  -4 -18   1    6.92    1.13
   4 -18  -1    6.40    1.28
  -4  18  -1    6.56    1.17
   4  18   1    5.12    1.04
   5 -18   1    4.47    1.14
   5  18  -1    3.43    0.93
  -5  18   1    6.36    1.17
  -5 -18  -1    4.73    1.06
  -5  18  -1    3.79    0.99
   5 -18  -1    3.05    1.01
  -5 -18   1    4.37    1.03
   5  18   1    4.62    1.11
   0 -19  -1    0.41    0.70
   0 -19   1    0.12    0.61
   0  19  -1   -0.59    0.56
   0  19   1    0.15    0.61
  -1  19   1    3.33    0.90
  -1 -19  -1    4.60    1.09
   1 -19   1    3.71    0.98
   1  19  -1    3.82    0.96
  -1  19  -1    5.02    1.01
   1 -19  -1    4.72    1.01
   1  19   1    3.15    0.90
  -1 -19   1    5.26    1.07
  -2  19   1    1.72    0.78
   2 -19   1    4.15    1.02
   2  19  -1    3.06    0.97
  -2 -19  -1    5.29    1.14
   2 -19  -1    3.86    1.02
  -2 -19   1    3.80    0.96
   2  19   1    3.06    0.97
  -2  19  -1    4.13    0.96
   3 -19   1    1.98    0.92
  -3  19   1    1.85    0.80
  -3 -19  -1    0.91    0.75
   3  19  -1    0.88    0.74
   3 -19  -1    1.09    0.84
  -3  19  -1    0.64    0.63
   3  19   1    1.16    0.74
  -3 -19   1    2.76    0.92
  -3  19  -1    0.48    0.66
   0   0   2  993.75   20.91
   0   0  -2 1000.00   19.76
   0   0  -2  950.81   20.70
   0   0   2  960.64   20.59
  -1   0   2    0.14    0.09
   1   0  -2    0.20    0.10
  -1   0  -2    0.22    0.07
   1   0   2    0.13    0.09
  -1   0  -2    0.02    0.09
   1   0  -2    0.11    0.10
   1   0   2    0.29    0.10
  -2   0  -2  119.12    2.68
   2   0   2  122.67    2.97
   2   0  -2  123.85    2.80
   2   0   2  124.97    2.73
  -2   0   2  124.95    2.75
  -2   0  -2  117.36    2.93
   3   0  -2    0.14    0.16
  -3   0   2   -0.01    0.11
   3   0   2    1.73    0.30
  -3   0  -2    0.37    0.14
  -3   0  -2   -0.16    0.14
   3   0  -2    0.36    0.15
  -3   0   2    0.12    0.10
   3   0   2    0.15    0.10
  -4   0  -2   10.50    0.52
   4   0   2   10.05    0.64
   4   0  -2   10.35    0.56
   4   0  -2   10.19    0.63
  -4   0   2   10.36    0.42
  -4   0   2    9.75    0.54
   4   0   2    9.90    0.37
   5   0   2    0.27    0.11
  -5   0   2   -0.10    0.17
  -5   0  -2    0.10    0.18
   5   0  -2    0.32    0.25
   5   0  -2    0.17    0.19
  -5   0   2    0.13    0.12
   5   0   2   -0.03    0.21
   6   0  -2   97.57    2.87
  -6   0   2   96.26    2.68
   6   0  -2   97.00    2.95
   6   0   2  102.06    3.04
   6   0   2   98.09    2.23
  -6   0  -2   99.96    2.63
  -6   0   2  101.21    2.33
  -7   0  -2   32.68    1.28
   7   0  -2   30.83    1.48
   7   0   2   31.14    1.50
   7   0  -2   33.70    1.48
   7   0   2   34.62    1.61
  -7   0   2   32.64    1.34
   8   0   2    0.36    0.40
   8   0  -2    1.44    0.48
   8   0  -2    0.89    0.46
  -8   0   2    1.50    0.40
  -8   0  -2    0.98    0.37
  -9   0  -2   15.69    1.01
   9   0   2   11.93    1.23
   9   0  -2   13.19    1.27
   9   0  -2   13.70    1.12
  -9   0   2   13.72    0.98
  10   0  -2    6.61    0.97
 -10   0  -2    8.26    0.90
  10   0   2    8.74    1.16
  10   0  -2    6.04    0.92
 -10   0  -2    7.80    1.04
 -10   0   2   10.49    1.05
  11   0  -2    0.08    0.48
  11   0   2    1.05    0.65
 -11   0  -2    0.86    0.48
  11   0  -2    0.54    0.57
 -11   0   2    0.96    0.48
 -11   0  -2    0.61    0.59
  12   0   2   25.00    1.97
 -12   0  -2   27.61    1.64
 -12   0   2   23.92    1.55
  12   0  -2   25.74    1.92
  12   0  -2   26.79    1.85
 -12   0  -2   26.72    1.95
 -13   0   2    0.90    0.61
 -13   0  -2    0.81    0.68
  13   0  -2    2.05    0.85
  13   0   2    1.86    0.83
   0   1  -2   15.45    0.50
   0  -1  -2   14.09    0.55
   0  -1  -2   14.82    0.41
   0   1   2   15.04    0.50
   0   1  -2   14.60    0.49
   0   1   2   15.17    0.46
   0  -1   2   15.44    0.43
   0  -1   2   14.09    0.48
  -1  -1  -2  150.64    3.56
   1  -1   2  160.66    3.41
   1   1  -2  153.79    3.44
  -1   1   2  155.92    3.34
  -1   1   2  156.93    3.44
   1   1  -2  150.89    3.50
   1  -1   2  161.82    3.55
   1   1   2  150.96    3.27
   1   1   2  144.80    3.43
  -1   1  -2  146.22    3.33
   1  -1  -2  148.02    3.27
  -1   1  -2  150.22    3.21
  -1  -1   2  146.85    3.26
   2   1  -2  146.33    3.25
  -2   1   2  143.18    3.15
   2   1  -2  138.33    3.32
  -2  -1  -2  138.53    2.99
   2  -1   2  145.12    3.38
   2  -1   2  144.06    3.13
  -2   1   2  137.67    3.16
   2   1  -2  139.88    3.20
  -2  -1  -2  140.36    3.37
   2   1   2  149.68    3.62
   2   1   2  149.24    3.33
  -2   1  -2  151.50    3.34
  -2   1  -2  152.94    3.52
   2  -1  -2  158.48    3.43
  -2  -1   2  151.25    3.34
   2  -1  -2  140.89    3.51
  -3  -1  -2    2.46    0.33
   3  -1   2    1.95    0.28
  -3   1   2    2.75    0.22
  -3  -1  -2    2.54    0.24
   3   1  -2    2.86    0.30
   3  -1   2    2.47    0.20
   3   1  -2    3.11    0.36
  -3   1   2    1.89    0.26
  -3   1  -2    2.09    0.30
  -3  -1   2    2.47    0.23
   3  -1  -2    2.05    0.31
   3   1   2    2.84    0.37
   3  -1  -2    2.62    0.28
  -3   1  -2    2.38    0.27
   3   1   2    2.42    0.22
  -4   1   2  109.05    2.69
   4  -1   2  112.53    2.93
  -4  -1  -2  105.84    2.89
   4  -1   2  106.38    2.84
  -4   1   2  105.08    2.44
  -4  -1  -2  106.45    2.52
   4  -1   2  107.25    2.35
   4   1  -2  103.53    2.76
   4   1   2  109.28    2.93
   4  -1  -2  109.14    2.73
   4   1   2  104.92    2.42
   4  -1  -2  103.96    2.82
  -4  -1   2  105.63    2.45
  -4  -1   2  101.10    2.60
  -4   1  -2  102.81    2.59
   5  -1   2  105.80    2.95
  -5  -1  -2  102.42    2.54
  -5   1   2  104.17    2.70
   5  -1   2  101.86    2.88
   5   1  -2   98.93    2.81
   5   1  -2  102.22    2.91
  -5   1   2  103.67    2.35
   5   1   2   98.34    2.90
   5  -1  -2   96.94    2.71
  -5  -1   2   97.42    2.57
   5  -1  -2  100.12    2.82
  -5   1  -2   98.74    2.57
   5   1   2   99.07    2.30
  -5  -1   2   98.96    2.33
   6  -1   2   47.72    1.79
  -6  -1  -2   50.64    1.54
   6   1  -2   48.01    1.73
   6  -1   2   49.64    1.86
  -6   1   2   49.80    1.22
   6   1  -2   44.35    1.76
  -6   1   2   48.21    1.63
  -6  -1   2   47.40    1.32
   6  -1  -2   44.91    1.77
   6   1   2   49.83    1.30
   6   1   2   52.68    1.93
  -6   1  -2   50.61    1.63
  -6  -1   2   49.27    1.63
   6  -1  -2   50.11    1.74
   7  -1   2   55.34    2.09
   7  -1   2   54.33    2.11
   7   1  -2   56.05    2.12
   7   1  -2   56.98    2.05
  -7   1   2   53.66    1.86
  -7  -1  -2   56.38    1.78
   7  -1  -2   58.64    2.16
  -7   1  -2   59.13    1.92
  -7  -1   2   58.54    1.91
   7  -1  -2   55.44    2.04
   7   1   2   59.89    2.26
   8  -1   2   25.83    1.48
   8   1  -2   23.09    1.39
   8   1  -2   24.84    1.38
  -8  -1  -2   25.31    1.16
   8  -1   2   24.12    1.40
  -8   1   2   25.34    1.25
  -8   1  -2   24.75    1.21
   8   1   2   25.90    1.51
  -8  -1   2   24.60    1.20
   8  -1  -2   24.78    1.43
   8  -1  -2   24.67    1.37
   9  -1   2    2.17    0.62
  -9   1   2    1.88    0.50
   9   1  -2    2.90    0.67
   9   1  -2    1.83    0.57
  -9  -1  -2    2.49    0.51
  -9  -1  -2    2.02    0.58
  -9   1  -2    2.23    0.51
   9  -1  -2    2.61    0.64
   9   1   2    2.87    0.70
  -9  -1   2    1.82    0.46
   9  -1  -2    2.48    0.60
  10   1  -2    4.34    0.79
 -10  -1  -2    6.40    0.97
 -10   1   2    6.48    0.86
  10   1  -2    8.22    1.15
  10  -1   2    6.25    0.99
 -10  -1  -2    6.14    0.79
 -10  -1   2    6.20    0.81
  10  -1  -2    5.71    0.91
 -10   1  -2    6.72    0.85
  10   1   2    5.95    0.98
  10  -1  -2    6.66    0.98
 -11  -1  -2   28.24    1.89
 -11  -1  -2   30.16    1.54
  11   1  -2   24.28    1.76
  11  -1   2   28.54    1.94
  11   1  -2   25.50    1.75
 -11   1   2   25.84    1.53
 -11   1  -2   29.32    1.62
  11  -1  -2   28.04    1.83
  11   1   2   31.76    1.99
  11  -1  -2   32.08    1.95
 -11  -1   2   27.04    1.56
 -11   1  -2   31.79    1.96
 -12   1   2    1.48    0.60
  12   1  -2    0.60    0.64
  12  -1   2    1.05    0.73
 -12  -1  -2   -0.29    0.57
  12   1  -2    1.23    0.75
  12  -1  -2    0.62    0.65
 -12  -1   2    0.36    0.47
  12   1   2    0.46    0.66
 -12   1  -2    0.91    0.58
  12  -1  -2    0.73    0.64
 -12   1  -2    2.19    0.77
  13   1  -2    9.82    1.41
 -13   1   2   13.51    1.45
  13  -1   2   12.75    1.62
 -13  -1  -2   12.11    1.62
  13   1   2    8.56    1.37
  13  -1  -2   14.36    1.68
 -13   1  -2   10.96    1.57
 -13  -1   2   10.14    1.23
   0  -2   2  166.40    3.64
   0   2  -2  162.54    3.61
   0   2   2  161.62    3.65
   0  -2  -2  163.50    3.75
   0   2  -2  170.17    3.62
   0  -2  -2  160.93    3.80
   0  -2   2  165.42    3.70
   0   2   2  169.70    3.44
  -1  -2  -2   51.87    1.43
   1  -2   2   52.23    1.30
   1   2  -2   53.56    1.42
  -1   2   2   54.78    1.33
   1  -2   2   51.91    1.38
  -1   2   2   52.33    1.29
   1   2  -2   52.11    1.32
  -1   2  -2   45.51    1.26
   1  -2  -2   48.51    1.24
  -1  -2   2   47.29    1.19
   1  -2  -2   48.36    1.30
   1   2   2   47.22    1.33
   1   2   2   47.48    1.24
  -1   2  -2   47.25    1.20
  -2  -2  -2   90.89    1.89
  -2  -2  -2   88.30    2.29
   2  -2   2   89.78    2.03
   2   2  -2   90.51    2.16
   2   2  -2   86.00    2.20
   2  -2   2   86.70    2.25
  -2   2   2   87.95    2.13
   2   2  -2   86.34    2.19
  -2   2   2   91.95    2.07
   2   2   2   94.72    2.50
   2   2   2   96.38    2.25
   2  -2  -2   95.30    2.31
   2  -2  -2   96.77    2.39
  -2   2  -2   95.39    2.33
  -2   2  -2   94.94    2.30
   3  -2   2   41.76    1.02
  -3  -2  -2   40.91    1.01
  -3  -2  -2   37.57    1.30
   3   2  -2   40.68    1.24
   3   2  -2   40.08    1.22
   3   2  -2   37.55    1.25
  -3   2   2   42.03    1.05
   3  -2   2   37.33    1.27
  -3   2   2   39.57    1.21
   3   2   2   41.36    1.39
   3  -2  -2   41.02    1.21
   3   2   2   40.65    1.11
   3  -2  -2   38.87    1.28
  -3   2  -2   39.64    1.22
  -4   2   2    6.71    0.32
  -4  -2  -2    6.97    0.55
   4   2  -2    6.90    0.54
   4  -2   2    7.33    0.31
   4  -2   2    7.68    0.55
   4  -2   2    7.30    0.56
  -4   2   2    7.16    0.50
  -4  -2  -2    7.19    0.38
   4   2  -2    7.56    0.52
   4  -2  -2    6.08    0.52
  -4   2  -2    5.96    0.46
   4   2   2    6.84    0.65
  -4  -2   2    6.36    0.38
   4  -2  -2    5.45    0.44
   4   2   2    5.93    0.37
   5  -2   2   32.64    1.32
   5  -2   2   31.09    1.26
  -5  -2  -2   28.59    1.28
  -5  -2  -2   30.35    1.01
   5   2  -2   31.69    1.24
  -5   2   2   32.54    1.19
  -5   2   2   32.16    0.83
   5   2  -2   30.44    1.29
  -5   2  -2   33.24    1.23
  -5  -2   2   33.84    1.03
   5  -2  -2   32.73    1.32
   5  -2  -2   34.59    1.27
   5   2   2   31.57    1.00
   5   2   2   34.09    1.42
  -5  -2   2   35.55    1.22
  -6  -2  -2   66.37    1.87
  -6  -2  -2   66.11    2.29
   6  -2   2   67.57    2.21
   6   2  -2   66.71    2.24
   6  -2   2   67.75    2.27
   6   2  -2   67.28    2.19
  -6   2   2   64.88    2.05
   6   2   2   68.59    1.77
   6   2   2   65.68    2.33
   6  -2  -2   67.78    2.26
  -6  -2   2   68.17    2.03
  -6  -2   2   65.40    1.76
   6  -2  -2   68.74    2.18
  -6   2  -2   70.90    2.11
   7   2  -2   60.36    2.19
   7  -2   2   63.80    2.25
   7   2  -2   62.90    2.28
  -7  -2  -2   63.92    1.89
  -7  -2  -2   60.43    2.28
  -7   2   2   61.83    2.07
  -7  -2   2   62.36    2.03
   7  -2  -2   65.72    2.23
   7   2   2   64.65    2.40
  -7   2  -2   66.28    2.12
   7  -2  -2   64.68    2.31
  -7  -2   2   63.81    1.72
  -8   2   2   15.26    1.01
   8   2  -2   17.61    1.20
  -8  -2  -2   18.58    0.95
  -8  -2  -2   16.18    1.20
   8   2  -2   15.88    1.11
   8  -2   2   16.95    1.21
   8  -2   2   17.13    1.18
   8   2   2   16.75    1.25
  -8   2  -2   15.27    1.00
  -8  -2   2   16.55    0.98
   8  -2  -2   16.13    1.09
   8  -2  -2   16.28    1.16
   9   2  -2    3.74    0.77
   9   2  -2    4.44    0.77
  -9  -2  -2    2.81    0.53
   9  -2   2    3.11    0.72
  -9   2   2    3.78    0.64
  -9  -2  -2    3.71    0.76
   9  -2   2    2.89    0.65
  -9  -2   2    2.94    0.55
   9   2   2    2.71    0.68
   9  -2  -2    4.12    0.71
   9  -2  -2    3.49    0.69
  -9   2  -2    2.93    0.61
 -10  -2  -2    5.41    0.71
  10   2  -2    2.73    0.74
  10  -2   2    4.99    0.90
  10   2  -2    4.50    0.88
 -10   2   2    5.29    0.79
 -10  -2  -2    6.11    1.00
  10  -2  -2    6.65    0.99
  10   2   2    5.72    1.00
 -10   2  -2    5.48    0.81
 -10  -2   2    5.51    0.77
  10  -2  -2    6.24    0.97
  11  -2   2    2.90    0.83
 -11   2   2    2.88    0.70
  11   2  -2    4.10    0.87
  11   2  -2    3.60    0.85
 -11  -2  -2    3.11    0.83
  11  -2  -2    2.97    0.80
 -11   2  -2    3.25    0.75
  11  -2  -2    2.75    0.76
  11   2   2    4.50    0.95
 -11  -2   2    5.09    0.81
 -12  -2  -2   14.60    1.65
  12   2  -2   15.30    1.63
 -12   2   2   17.19    1.37
  12   2  -2   16.05    1.64
  12  -2   2   15.99    1.74
  12  -2  -2   15.43    1.60
 -12   2  -2   19.39    1.44
  12  -2  -2   21.57    1.75
 -12   2  -2   18.91    1.83
 -12  -2   2   19.29    1.37
  12   2   2   21.57    1.80
 -13   2   2    6.41    1.04
 -13  -2  -2    5.26    1.17
  13  -2   2    3.91    1.03
  13   2  -2    3.78    0.98
 -13   2  -2    5.77    1.24
  13  -2  -2    5.21    1.09
 -13   2  -2    5.98    1.07
 -13  -2   2    4.59    0.89
  13   2   2    5.84    1.25
   0   3  -2   20.50    0.70
   0   3  -2   20.95    0.73
   0  -3  -2   19.38    0.72
   0  -3  -2   21.29    0.77
   0   3  -2   21.52    0.54
   0   3   2   18.70    0.68
   0  -3   2   20.68    0.70
   0   3   2   20.12    0.59
  -1   3   2  311.83    6.74
  -1  -3  -2  315.85    6.96
   1   3  -2  319.40    6.78
   1   3  -2  313.56    6.80
   1   3  -2  313.91    6.72
  -1   3   2  312.74    6.58
   1  -3   2  304.20    6.99
  -1  -3   2  332.59    7.20
   1   3   2  327.43    7.04
   1  -3  -2  321.45    7.24
   1   3   2  322.25    6.62
   1  -3  -2  317.59    7.17
  -1   3  -2  321.79    6.95
   1   3   2  328.58    7.34
  -1   3  -2  325.62    7.00
  -1   3  -2  331.24    7.00
   2   3  -2  320.33    6.89
   2  -3   2  314.50    6.75
   2   3  -2  319.36    6.98
  -2  -3  -2  311.39    7.08
   2   3  -2  315.05    6.85
   2  -3   2  306.80    7.13
   2   3  -2  318.66    7.05
  -2   3   2  316.54    6.74
  -2   3   2  319.06    6.77
   2   3   2  316.95    7.17
   2  -3  -2  310.13    6.94
  -2   3  -2  305.98    6.73
  -2   3  -2  311.65    6.84
   2  -3  -2  310.26    6.99
   2   3   2  314.30    6.77
   3   3  -2   34.37    1.11
   3   3  -2   33.86    1.06
  -3   3   2   33.99    1.12
   3   3  -2   32.82    1.12
   3  -3   2   33.00    0.90
   3  -3   2   31.98    1.08
   3   3  -2   34.98    1.15
   3  -3   2   33.57    1.17
  -3  -3  -2   31.86    1.18
  -3  -3  -2   33.07    0.86
  -3   3   2   35.05    0.93
   3  -3  -2   38.01    1.23
   3   3   2   36.89    1.10
   3  -3  -2   36.27    1.17
  -3   3  -2   35.46    1.20
   3   3   2   34.92    1.31
   4   3  -2  111.94    2.78
   4   3  -2  112.97    3.02
   4  -3   2  113.79    3.07
   4   3  -2  110.12    2.86
  -4   3   2  118.04    2.59
  -4  -3  -2  111.99    3.09
   4  -3   2  112.30    2.95
  -4  -3  -2  115.03    2.60
  -4   3   2  114.30    2.90
   4   3  -2  115.16    2.99
   4  -3   2  116.78    2.56
   4  -3  -2  105.31    2.78
   4   3   2  105.06    2.58
   4   3   2  104.28    2.99
  -4   3  -2  107.03    2.75
   4  -3  -2  105.94    2.85
  -5  -3  -2   57.26    1.98
   5  -3   2   57.84    1.36
   5   3  -2   59.55    1.91
  -5   3   2   58.92    1.41
   5   3  -2   57.58    1.65
  -5   3   2   59.64    1.85
  -5  -3  -2   59.37    1.58
   5  -3   2   58.77    1.90
   5   3  -2   60.84    1.96
   5  -3   2   58.32    1.96
   5   3   2   60.60    1.67
  -5   3  -2   60.94    1.89
   5   3   2   60.30    2.11
   5  -3  -2   61.12    1.99
   5  -3  -2   59.79    1.90
   6   3  -2   29.25    1.35
  -6   3   2   29.30    1.25
   6  -3   2   30.79    1.34
   6   3  -2   28.96    1.30
   6  -3   2   27.51    1.32
  -6  -3  -2   28.92    1.37
  -6  -3  -2   29.65    1.04
  -6  -3   2   30.04    1.17
  -6   3  -2   26.28    1.20
   6   3   2   29.84    1.01
   6  -3  -2   28.90    1.32
   6  -3  -2   27.78    1.24
   6   3   2   26.88    1.38
  -7  -3  -2   45.13    1.91
  -7   3   2   43.08    1.68
   7  -3   2   43.70    1.86
  -7  -3  -2   46.01    1.49
   7   3  -2   45.57    1.86
   7  -3   2   43.72    1.81
   7   3  -2   46.19    1.81
   7  -3  -2   48.18    1.92
   7   3   2   47.23    2.00
   7   3   2   47.94    1.44
  -7   3  -2   45.91    1.76
   7  -3  -2   44.34    1.77
  -7  -3   2   46.70    1.41
  -7  -3   2   46.98    1.65
   8  -3   2   39.41    1.85
  -8  -3  -2   39.49    1.47
  -8  -3  -2   42.59    1.96
  -8   3   2   42.07    1.72
   8   3  -2   40.22    1.80
   8  -3   2   42.12    1.85
   8   3  -2   38.90    1.84
   8  -3  -2   41.22    1.79
   8   3   2   38.71    1.91
  -8  -3   2   39.11    1.57
   8  -3  -2   38.73    1.82
  -8   3  -2   39.84    1.69
   9   3  -2   36.16    1.81
   9  -3   2   36.64    1.91
  -9   3   2   37.99    1.73
  -9  -3  -2   38.15    1.51
   9  -3   2   34.31    1.81
  -9  -3  -2   41.34    2.02
   9  -3  -2   40.37    1.99
  -9   3  -2   43.48    1.87
   9  -3  -2   39.67    1.90
  -9  -3   2   44.88    1.75
   9   3   2   43.26    2.14
 -10  -3  -2    7.46    1.09
  10  -3   2    8.23    1.10
 -10   3   2    8.79    1.02
  10   3  -2    6.28    1.00
  10   3  -2    9.84    1.16
 -10  -3   2    9.59    0.99
 -10   3  -2    9.91    1.06
  10  -3  -2    7.93    1.08
  10   3   2    6.60    1.04
  10  -3  -2    8.20    1.03
 -11   3   2    7.37    0.99
  11   3  -2    7.70    1.12
  11  -3   2    5.71    1.07
  11   3  -2    7.60    1.14
 -11  -3  -2    6.29    1.12
  11  -3  -2    3.99    0.90
 -11  -3   2    5.24    0.81
  11  -3  -2    4.79    0.91
 -11   3  -2    6.94    0.96
  11   3   2    5.19    0.97
  12   3  -2    3.66    0.92
 -12   3   2    2.24    0.68
 -12  -3  -2    5.30    1.13
  12  -3   2    2.59    0.94
  12   3  -2    3.30    0.90
 -12   3  -2    4.47    1.02
  12  -3  -2    3.13    0.91
  12   3   2    4.48    0.99
 -12   3  -2    6.37    1.00
  12  -3  -2    3.01    0.91
 -12  -3   2    3.49    0.74
 -13  -3  -2    0.38    0.75
  13   3  -2    0.54    0.67
 -13   3   2    1.49    0.67
  13  -3   2   -0.07    0.73
  13   3   2    1.66    0.82
  13  -3  -2    0.67    0.67
 -13   3  -2    0.89    0.62
 -13   3  -2    0.58    0.77
   0   4   2   98.93    2.20
   0  -4  -2   93.34    2.41
   0   4  -2   97.40    2.37
   0  -4   2   95.63    2.40
   0  -4  -2   94.95    2.45
   0   4   2   92.17    2.33
   0   4  -2   98.03    2.37
  -1   4   2  142.82    3.27
   1   4  -2  146.17    3.42
   1  -4   2  141.68    3.49
  -1   4   2  141.26    3.34
  -1  -4  -2  148.27    3.47
   1   4  -2  143.95    3.40
   1   4  -2  150.97    3.26
   1   4   2  147.70    3.38
   1  -4  -2  141.52    3.48
  -1   4  -2  144.24    3.34
   1  -4  -2  144.42    3.39
  -1   4  -2  143.29    3.16
   1   4   2  146.87    3.56
   1   4   2  146.03    3.08
  -1   4  -2  138.76    3.36
  -1  -4   2  142.85    3.42
   2  -4   2  156.88    3.93
   2   4  -2  160.69    3.83
   2   4  -2  164.34    3.77
  -2   4   2  162.85    3.69
  -2   4   2  160.53    3.73
   2   4  -2  166.30    3.83
  -2  -4  -2  167.35    3.92
  -2   4  -2  176.49    3.93
  -2   4  -2  171.93    3.95
   2   4   2  175.14    4.04
   2   4   2  183.19    3.70
   2   4   2  177.16    4.31
   2  -4  -2  173.25    4.09
  -2   4  -2  170.61    4.05
   2  -4  -2  168.80    4.15
  -2  -4   2  174.97    4.11
  -3  -4  -2   13.72    0.73
   3   4  -2   15.03    0.69
   3   4  -2   14.62    0.73
   3  -4   2   15.55    0.66
  -3   4   2   14.73    0.57
   3   4  -2   14.25    0.68
   3   4  -2   14.41    0.69
   3  -4   2   14.77    0.55
  -3   4   2   14.95    0.72
   3  -4   2   15.70    0.76
   3   4   2   12.90    0.75
   3  -4  -2   13.83    0.67
   3  -4  -2   13.00    0.66
   3   4   2   14.06    0.65
  -3   4  -2   13.57    0.71
   4   4  -2  141.97    3.49
  -4   4   2  147.29    3.21
  -4  -4  -2  144.18    3.15
   4   4  -2  143.60    3.63
   4  -4   2  137.85    3.53
  -4  -4  -2  138.33    3.69
   4   4  -2  137.17    3.60
   4  -4   2  143.55    3.18
   4  -4   2  139.66    3.70
  -4   4   2  141.59    3.53
   4   4  -2  143.78    3.45
   4  -4  -2  141.19    3.65
   4   4   2  144.88    3.46
  -4   4  -2  144.62    3.60
   4   4   2  143.18    3.87
   4  -4  -2  145.21    3.67
  -5   4   2   19.29    0.97
   5   4  -2   20.44    1.02
   5  -4   2   20.34    0.98
  -5   4   2   19.18    0.63
   5   4  -2   19.68    0.93
   5  -4   2   18.38    1.00
   5   4  -2   18.58    0.83
  -5  -4  -2   20.03    1.06
  -5  -4  -2   19.04    0.72
   5  -4   2   20.40    0.62
   5   4  -2   18.72    0.95
   5   4   2   23.46    0.92
   5   4   2   23.55    1.21
   5  -4  -2   23.24    1.06
  -5   4  -2   23.44    1.09
   5  -4  -2   23.96    1.11
   6   4  -2    2.87    0.38
   6  -4   2    1.53    0.40
  -6  -4  -2    2.38    0.33
   6   4  -2    1.64    0.41
  -6   4   2    1.68    0.38
   6  -4   2    1.50    0.42
  -6  -4  -2    2.63    0.52
   6   4  -2    1.54    0.39
   6   4   2    1.18    0.41
   6  -4  -2    1.75    0.40
   6   4   2    2.31    0.36
   6  -4  -2    1.42    0.41
  -6   4  -2    3.10    0.52
  -6  -4   2    1.75    0.36
  -7   4   2   46.40    1.79
   7   4  -2   48.76    1.87
   7   4  -2   44.88    1.87
  -7  -4  -2   44.35    1.92
   7  -4   2   46.84    1.85
  -7  -4  -2   45.46    1.47
   7  -4   2   43.60    1.86
   7  -4  -2   42.48    1.77
  -7  -4   2   48.16    1.66
   7   4   2   44.05    1.98
   7   4   2   48.54    1.52
   7  -4  -2   48.00    1.91
  -7   4  -2   43.54    1.76
  -8  -4  -2   64.55    2.51
  -8   4   2   59.20    2.23
   8   4  -2   58.91    2.35
   8  -4   2   63.24    2.36
   8   4  -2   61.44    2.34
  -8  -4  -2   63.50    1.93
   8  -4   2   59.61    2.40
  -8  -4   2   59.82    2.06
   8  -4  -2   64.25    2.34
  -8   4  -2   65.65    2.33
   8   4   2   60.89    2.52
   8  -4  -2   62.06    2.40
   9   4  -2    0.65    0.42
  -9  -4  -2    0.46    0.44
  -9   4   2    0.24    0.37
   9  -4   2    0.35    0.44
   9  -4   2    0.48    0.50
   9   4  -2    0.18    0.46
  -9   4  -2    0.03    0.37
   9  -4  -2   -0.07    0.37
   9   4   2    0.37    0.45
   9  -4  -2    0.62    0.48
  -9  -4   2    0.71    0.36
  10   4  -2    5.64    0.96
  10  -4   2    7.25    1.00
 -10   4   2    6.85    0.94
 -10  -4  -2    8.96    1.19
  10  -4   2    8.28    1.14
  10   4  -2    8.03    1.03
 -10   4  -2    6.33    0.90
  10  -4  -2    5.31    0.89
  10   4   2    7.76    1.17
  10  -4  -2    7.46    1.07
 -10  -4   2    5.70    0.78
 -11   4   2   11.66    1.26
  11   4  -2   11.76    1.42
 -11  -4  -2    8.12    1.17
  11  -4   2   11.65    1.36
  11   4  -2   12.80    1.39
  11  -4  -2   14.55    1.48
  11   4   2   11.84    1.44
 -11   4  -2   15.27    1.43
 -11  -4   2   12.79    1.04
  11  -4  -2   14.76    1.50
  12   4  -2    1.40    0.72
  12  -4   2    0.44    0.73
  12   4  -2    0.91    0.68
 -12   4   2    0.53    0.55
 -12  -4  -2    1.81    0.79
  12   4   2    0.35    0.64
 -12   4  -2    0.81    0.69
  12  -4  -2    0.17    0.65
  12  -4  -2    0.14    0.59
 -12  -4   2    1.21    0.55
 -12   4  -2    0.44    0.56
 -13  -4  -2    4.36    1.16
  13  -4   2    4.50    1.13
 -13   4   2    4.84    1.04
  13   4  -2    3.24    0.99
 -13   4  -2    4.69    1.13
  13  -4  -2    3.12    1.00
  13  -4  -2    3.29    0.99
 -13   4  -2    3.66    0.92
  13   4   2    3.96    1.07
   0   5  -2    0.91    0.23
   0   5  -2    0.73    0.21
   0  -5   2    0.72    0.21
   0   5   2    0.63    0.20
   0  -5  -2    0.47    0.19
   0   5   2    0.84    0.18
   0  -5  -2    0.96    0.23
  -1   5   2    7.43    0.45
   1   5  -2    8.39    0.51
  -1   5   2    7.06    0.44
   1   5  -2    7.83    0.33
  -1  -5  -2    8.58    0.49
  -1  -5  -2    6.91    0.50
   1  -5   2    7.59    0.49
   1   5  -2    7.19    0.48
   1  -5  -2    9.37    0.56
  -1   5  -2    8.92    0.55
  -1  -5   2    8.84    0.50
   1  -5  -2    9.22    0.48
  -1   5  -2    8.88    0.50
   1   5   2    8.69    0.52
   1   5   2    9.14    0.40
   2   5  -2   59.22    1.76
   2  -5   2   59.60    1.78
   2   5  -2   60.56    1.59
  -2  -5  -2   57.09    1.71
   2   5  -2   58.70    1.72
  -2   5   2   59.69    1.69
  -2   5   2   59.24    1.61
   2   5   2   61.74    1.75
  -2  -5   2   60.48    1.75
  -2   5  -2   61.71    1.54
   2  -5  -2   63.03    1.81
  -2   5  -2   60.46    1.65
  -2   5  -2   61.25    1.80
   2   5   2   60.95    1.49
   2  -5  -2   59.11    1.68
   2   5   2   62.49    1.91
   3  -5   2  462.97    9.97
   3  -5   2  449.67   10.35
  -3   5   2  453.00    9.80
  -3  -5  -2  448.55   10.20
   3   5  -2  452.56    9.85
   3   5  -2  457.58    9.97
  -3   5   2  460.65    9.77
   3   5  -2  464.06   10.08
   3   5  -2  450.35   10.26
   3  -5  -2  451.23   10.25
   3   5   2  464.85   10.09
  -3   5  -2  464.73    9.91
   3  -5  -2  458.95   10.47
   3   5   2  470.91    9.56
  -3   5  -2  455.34   10.02
   3   5   2  475.63   10.66
   4   5  -2   18.79    0.88
   4  -5   2   18.34    0.66
   4  -5   2   18.09    0.82
   4   5  -2   17.06    0.86
  -4  -5  -2   18.02    0.93
   4  -5   2   17.57    0.93
  -4   5   2   16.93    0.87
   4   5  -2   18.69    0.88
  -4   5   2   18.68    0.69
   4   5  -2   18.36    0.85
  -4   5  -2   18.58    0.96
   4   5   2   18.24    0.84
   4  -5  -2   19.36    0.91
   4  -5  -2   17.91    0.90
   4   5   2   18.35    1.01
   5   5  -2   38.35    1.39
   5  -5   2   36.96    1.50
  -5   5   2   33.73    1.41
   5   5  -2   39.28    1.48
   5   5  -2   40.26    1.47
  -5   5   2   37.40    1.08
   5   5  -2   35.97    1.31
   5  -5   2   36.29    1.38
   5  -5   2   35.93    1.03
  -5  -5  -2   37.37    1.52
  -5  -5  -2   35.75    1.09
   5   5   2   38.55    1.31
   5  -5  -2   37.57    1.46
  -5   5  -2   36.50    1.46
   5   5   2   34.77    1.56
   5  -5  -2   37.42    1.44
  -6   5   2   35.00    1.49
  -6  -5  -2   38.30    1.66
   6   5  -2   40.65    1.59
   6   5  -2   39.71    1.38
   6  -5   2   35.59    1.59
   6  -5   2   37.90    1.53
   6   5  -2   38.68    1.59
  -6  -5  -2   38.33    1.21
   6   5  -2   37.96    1.45
   6  -5  -2   36.77    1.54
   6   5   2   39.04    1.37
  -6   5  -2   35.92    1.55
   6   5   2   39.67    1.72
   6  -5  -2   40.71    1.62
   7   5  -2    4.59    0.67
   7  -5   2    5.56    0.69
  -7  -5  -2    5.86    0.55
   7  -5   2    5.78    0.79
  -7   5   2    6.76    0.79
  -7  -5  -2    6.11    0.82
   7   5  -2    5.04    0.68
   7   5  -2    6.16    0.60
  -7   5  -2    6.27    0.77
   7   5   2    7.08    0.66
   7  -5  -2    5.55    0.76
  -7  -5   2    6.63    0.67
   7   5   2    7.16    0.92
   7  -5  -2    7.31    0.81
   8   5  -2    5.49    0.77
  -8  -5  -2    4.54    0.77
   8  -5   2    6.20    0.79
  -8   5   2    7.03    0.85
   8   5  -2    4.73    0.76
   8  -5   2    5.98    0.86
   8  -5  -2    5.68    0.78
   8  -5  -2    5.18    0.77
   8   5   2    4.96    0.84
  -8  -5   2    5.93    0.71
  -8   5  -2    5.36    0.78
  -9  -5  -2   29.56    1.75
   9  -5   2   31.26    1.77
   9   5  -2   28.65    1.61
   9   5  -2   27.49    1.67
   9  -5   2   30.54    1.66
  -9   5   2   28.49    1.57
   9  -5  -2   32.97    1.77
  -9   5  -2   32.17    1.68
   9  -5  -2   30.40    1.65
  -9  -5   2   31.04    1.45
   9   5   2   30.88    1.83
  10   5  -2    4.03    0.83
  10   5  -2    4.81    0.87
 -10   5   2    2.89    0.69
  10  -5   2    4.16    0.85
  10  -5   2    4.99    0.88
 -10  -5  -2    4.91    0.93
  10   5   2    4.04    0.86
 -10   5  -2    3.28    0.74
  10  -5  -2    3.55    0.79
 -10  -5   2    4.96    0.72
  10  -5  -2    3.29    0.76
  11   5  -2    2.36    0.72
  11   5  -2    3.27    0.76
  11  -5   2    2.40    0.82
 -11   5   2    3.94    0.84
 -11  -5  -2    2.00    0.69
 -11  -5   2    2.09    0.58
  11  -5  -2    2.68    0.81
 -11   5  -2    2.02    0.68
  11   5   2    2.45    0.73
  11  -5  -2    1.87    0.73
  12  -5   2    5.16    1.06
 -12  -5  -2    5.26    1.07
 -12   5   2    6.40    1.04
  12   5  -2    3.27    0.93
 -12   5  -2    5.45    1.03
  12  -5  -2    5.51    1.06
  12  -5  -2    4.27    0.92
 -12   5  -2    6.40    1.15
  12   5   2    4.47    1.05
 -13   5   2    1.09    0.68
 -13  -5  -2    0.38    0.69
  13  -5   2    0.13    0.81
  13  -5  -2   -0.34    0.63
 -13   5  -2    0.43    0.64
  13   5   2    0.50    0.68
  13  -5  -2   -1.05    0.66
 -13   5  -2    0.20    0.71
   0   6  -2   11.30    0.62
   0  -6   2    9.82    0.59
   0  -6  -2   11.15    0.65
   0   6   2   10.87    0.53
   0   6  -2   11.80    0.64
   0  -6  -2   10.35    0.57
   0   6   2   10.10    0.60
  -1  -6  -2   61.29    1.72
  -1   6   2   58.04    1.67
  -1   6   2   55.62    1.69
   1  -6   2   58.61    1.80
   1   6  -2   62.22    1.79
  -1  -6  -2   59.53    1.86
   1   6  -2   60.70    1.77
  -1   6  -2   57.60    1.71
   1   6   2   61.73    1.56
  -1  -6   2   60.79    1.78
  -1   6  -2   59.34    1.79
   1   6   2   61.00    1.78
   1  -6  -2   59.75    1.66
   1  -6  -2   59.64    1.84
  -2  -6  -2  197.58    4.58
   2   6  -2  189.17    4.55
  -2   6   2  184.82    4.43
   2   6  -2  189.82    4.52
  -2   6   2  187.13    4.42
   2   6  -2  193.60    4.36
  -2   6  -2  191.53    4.59
   2   6   2  198.16    4.23
  -2  -6   2  192.51    4.66
  -2   6  -2  193.58    4.28
  -2   6  -2  185.80    4.45
   2  -6  -2  190.31    4.49
   2  -6  -2  191.10    4.72
   2   6   2  196.91    4.58
  -3   6   2   16.05    0.71
   3  -6   2   15.40    0.65
   3   6  -2   15.90    0.84
   3   6  -2   16.20    0.74
  -3   6   2   15.64    0.83
   3  -6   2   17.17    0.88
  -3  -6  -2   15.07    0.79
   3   6  -2   15.31    0.80
   3   6   2   17.68    0.96
   3   6   2   17.19    0.63
  -3  -6   2   15.99    0.80
  -3   6  -2   15.98    0.71
   3  -6  -2   15.51    0.84
  -3   6  -2   16.43    0.90
   3   6   2   16.70    0.82
   3  -6  -2   17.54    0.79
   4   6  -2  122.91    3.20
  -4  -6  -2  121.93    3.34
  -4   6   2  125.70    2.96
   4  -6   2  124.43    3.12
   4   6  -2  122.47    3.32
  -4   6   2  118.19    3.23
   4   6  -2  121.03    3.21
   4  -6   2  120.06    3.38
   4   6  -2  121.99    3.21
  -4   6  -2  124.51    2.92
   4   6   2  120.34    2.79
   4  -6  -2  121.47    3.32
  -4   6  -2  115.74    3.25
   4   6   2  121.25    3.15
   4  -6  -2  119.26    3.19
   4   6   2  123.29    3.49
   5   6  -2   23.27    1.10
   5  -6   2   21.70    1.15
   5  -6   2   20.92    0.76
   5  -6   2   20.29    0.99
  -5   6   2   21.52    0.80
  -5  -6  -2   22.82    1.15
   5   6  -2   20.01    0.98
   5   6  -2   22.87    1.06
  -5  -6  -2   21.43    0.78
  -5   6   2   24.00    1.15
   5   6  -2   21.88    1.08
   5  -6  -2   22.15    1.11
   5  -6  -2   22.25    1.09
   5   6   2   22.24    1.01
  -5   6  -2   20.95    1.14
   5   6   2   21.75    1.21
   6   6  -2   10.28    0.73
   6  -6   2   10.24    0.96
  -6   6   2    9.51    0.91
   6  -6   2    8.40    0.74
   6   6  -2    8.64    0.75
   6   6  -2    9.99    0.81
  -6  -6  -2   11.71    0.90
   6   6  -2   11.25    0.77
  -6  -6  -2    9.33    0.54
   6   6   2   10.41    0.90
   6   6   2   10.18    0.72
   6  -6  -2   12.03    0.87
  -6   6  -2    9.98    0.95
   6  -6  -2   11.59    0.86
   7   6  -2    0.37    0.32
  -7   6   2    1.17    0.44
  -7  -6  -2    1.16    0.31
   7  -6   2    0.21    0.41
   7  -6   2    0.66    0.38
  -7  -6  -2    1.44    0.50
   7   6  -2    0.84    0.34
   7   6  -2    0.67    0.39
   7   6   2    2.39    0.57
  -7   6  -2    2.35    0.54
   7  -6  -2    2.05    0.51
   7   6   2    1.86    0.41
   7  -6  -2    2.02    0.50
  -7  -6   2    2.05    0.44
   8  -6   2   16.88    1.17
   8   6  -2   15.86    0.98
  -8   6   2   13.26    1.09
   8   6  -2   18.17    1.20
   8  -6   2   17.40    1.27
   8   6  -2   15.29    1.19
  -8  -6  -2   14.75    1.19
   8  -6  -2   13.83    1.13
  -8  -6   2   15.58    0.95
   8   6   2   14.28    1.21
   8  -6  -2   14.37    1.12
  -8   6  -2   15.15    1.15
   9   6  -2    0.45    0.47
  -9  -6  -2    0.13    0.46
   9  -6   2    0.27    0.45
  -9   6   2    0.23    0.42
   9   6  -2    0.10    0.37
   9  -6   2    0.80    0.53
  -9   6  -2    0.74    0.46
  -9  -6   2    0.44    0.34
   9  -6  -2   -0.16    0.44
   9   6   2    0.16    0.46
   9  -6  -2    0.30    0.39
  10   6  -2   33.59    1.92
 -10   6   2   30.81    1.79
  10   6  -2   34.46    1.88
  10  -6   2   34.60    1.89
 -10  -6  -2   33.28    1.99
  10  -6   2   34.45    2.04
  10  -6  -2   27.34    1.74
  10  -6  -2   28.92    1.75
 -10   6  -2   33.65    1.85
 -10  -6   2   30.98    1.51
  10   6   2   30.79    1.91
 -11  -6  -2    4.91    1.03
 -11   6   2    4.61    0.88
  11   6  -2    4.77    0.92
  11  -6   2    5.13    1.03
  11   6  -2    4.58    0.91
 -11   6  -2    5.73    1.03
  11  -6  -2    3.76    0.90
  11  -6  -2    3.59    0.89
  11   6   2    3.95    0.88
  12  -6   2    4.18    1.10
 -12   6   2    5.91    1.10
 -12  -6  -2    5.92    1.18
 -12   6  -2    4.81    0.97
  12  -6  -2    5.82    1.18
 -12   6  -2    4.28    1.03
  12  -6  -2    4.23    1.03
  12   6   2    4.54    1.03
 -13   6   2    1.10    0.76
  13  -6   2    1.83    0.90
 -13  -6  -2    0.62    0.79
 -13   6  -2    2.21    0.95
 -13   6  -2    1.06    0.72
 -13  -6   2    4.36    1.08
  13  -6  -2    2.05    0.85
  13  -6  -2    2.79    0.97
  13   6   2    2.52    0.96
   0  -7  -2    3.91    0.50
   0   7   2    3.07    0.37
   0  -7  -2    2.78    0.36
   0  -7   2    2.50    0.38
   0   7  -2    2.42    0.38
   0   7  -2    2.83    0.40
   0   7   2    1.84    0.34
  -1  -7  -2   54.67    1.78
   1  -7   2   48.95    1.67
  -1  -7  -2   53.53    1.59
   1   7  -2   50.26    1.66
   1   7  -2   50.33    1.64
  -1   7   2   50.17    1.56
  -1   7   2   51.97    1.61
   1   7   2   55.63    1.51
  -1  -7   2   52.37    1.71
  -1  -7   2   54.15    1.32
  -1   7  -2   50.12    1.64
  -1   7  -2   51.96    1.72
   1  -7  -2   56.63    1.80
   1  -7  -2   58.35    1.58
   1   7   2   50.51    1.67
  -2  -7  -2   27.84    1.08
   2   7  -2   30.07    1.19
  -2   7   2   27.12    1.05
   2  -7   2   29.20    1.21
   2   7  -2   28.84    1.17
  -2   7   2   29.31    1.14
  -2  -7  -2   27.17    1.21
   2  -7  -2   27.65    1.17
  -2  -7   2   28.16    1.12
   2  -7  -2   27.96    1.00
  -2   7  -2   28.62    0.79
  -2   7  -2   27.03    1.05
   2   7   2   27.74    0.93
  -2   7  -2   26.21    1.16
   2   7   2   28.37    1.15
   3   7  -2  167.56    3.98
  -3   7   2  165.06    3.96
   3   7  -2  158.25    4.11
  -3   7   2  169.50    4.13
   3   7  -2  165.56    4.16
  -3  -7  -2  165.00    4.14
   3  -7   2  169.38    3.85
   3  -7   2  160.52    4.30
  -3   7  -2  167.11    4.22
  -3   7  -2  162.40    3.97
   3   7   2  169.04    4.46
   3  -7  -2  162.62    4.05
  -3  -7   2  165.57    4.23
   3   7   2  168.78    4.17
   3  -7  -2  167.95    4.33
   3   7   2  168.82    3.78
   4  -7   2    4.85    0.47
  -4  -7  -2    5.08    0.59
   4   7  -2    5.14    0.60
   4  -7   2    3.73    0.52
  -4   7   2    5.45    0.49
   4   7  -2    5.54    0.57
   4   7  -2    4.71    0.56
  -4   7   2    4.88    0.63
   4  -7  -2    6.54    0.61
  -4   7  -2    5.52    0.45
  -4   7  -2    6.98    0.73
   4   7   2    6.29    0.62
   4   7   2    6.78    0.42
   4  -7  -2    6.49    0.68
   4   7   2    4.87    0.65
   5   7  -2   17.63    0.95
  -5  -7  -2   17.34    1.03
   5   7  -2   17.16    0.93
  -5   7   2   17.53    0.75
   5  -7   2   16.98    0.89
   5   7  -2   17.55    0.96
   5  -7   2   16.69    1.05
   5   7  -2   17.63    1.01
  -5   7   2   16.13    1.02
   5   7   2   17.69    0.94
   5  -7  -2   16.78    1.02
   5   7   2   17.14    1.10
  -5   7  -2   17.86    1.08
   5  -7  -2   17.30    0.96
   6   7  -2   10.71    0.84
   6  -7   2    8.52    0.88
   6   7  -2   10.71    0.85
  -6   7   2    9.29    0.94
  -6  -7  -2    8.38    0.87
   6   7  -2    9.67    0.76
   6   7  -2    9.61    0.73
   6  -7   2   10.29    0.80
  -6   7  -2    8.01    0.90
   6   7   2    9.51    1.03
   6  -7  -2    9.44    0.91
   6  -7  -2    8.91    0.84
   6   7   2    8.69    0.72
   7  -7   2    8.41    0.99
  -7   7   2    7.09    0.90
   7   7  -2    7.31    0.84
   7   7  -2   10.19    1.01
   7   7  -2    9.36    0.85
   7  -7   2    7.84    0.83
   7   7  -2    7.69    0.79
  -7  -7  -2    8.98    1.01
   7   7   2    6.81    0.73
   7   7   2    7.45    0.96
   7  -7  -2    6.19    0.79
  -7   7  -2    7.25    0.88
   7  -7  -2    7.72    0.90
   8   7  -2   18.43    1.07
  -8   7   2   18.44    1.29
  -8  -7  -2   16.06    1.27
   8  -7   2   17.34    1.32
   8   7  -2   18.67    1.26
   8   7  -2   17.23    1.23
   8  -7   2   18.54    1.22
   8   7   2   17.45    1.04
   8   7   2   16.36    1.32
  -8  -7   2   16.94    1.02
  -8   7  -2   16.04    1.24
   8  -7  -2   19.06    1.25
   8  -7  -2   17.38    1.25
  -9   7   2   39.87    1.99
   9   7  -2   42.24    2.02
   9   7  -2   41.49    2.06
   9  -7   2   41.89    2.00
   9  -7   2   40.72    2.13
  -9  -7  -2   39.86    2.09
  -9  -7   2   42.00    1.73
   9  -7  -2   41.13    2.03
   9   7   2   42.64    2.19
   9  -7  -2   42.69    2.06
  -9   7  -2   40.23    2.02
  10  -7   2    3.63    0.87
  10   7  -2    3.99    0.82
 -10  -7  -2    2.95    0.81
  10   7  -2    5.24    0.94
 -10   7   2    3.45    0.79
 -10   7  -2    3.62    0.85
  10   7   2    3.98    0.92
 -10  -7   2    4.92    0.83
  10  -7  -2    2.86    0.75
  10  -7  -2    3.05    0.80
 -11  -7  -2    2.80    0.85
  11   7  -2    1.94    0.70
  11  -7   2    0.68    0.66
 -11   7   2    1.35    0.68
 -11   7  -2    3.10    0.85
  11  -7  -2    1.60    0.72
  11  -7  -2    1.42    0.74
  11   7   2    1.12    0.68
 -12   7   2    4.40    1.01
 -12  -7  -2    5.15    1.11
  12  -7   2    4.36    1.07
 -12   7  -2    6.34    1.14
  12  -7  -2    3.39    0.98
  12   7   2    3.26    0.90
  12  -7  -2    4.78    1.02
 -12   7  -2    7.35    1.19
 -12  -7   2    4.36    1.04
   0  -8  -2   36.32    1.46
   0  -8   2   40.84    1.47
   0   8   2   37.94    1.30
   0  -8  -2   40.28    1.30
   0   8  -2   40.59    1.45
   0   8  -2   38.07    1.42
   0   8   2   37.60    1.41
  -1  -8  -2   31.67    1.35
   1  -8   2   32.94    1.33
  -1  -8  -2   33.87    1.21
   1   8  -2   35.32    1.32
  -1   8   2   32.43    1.26
   1   8  -2   31.77    1.29
  -1   8   2   33.08    1.24
   1  -8  -2   33.19    1.38
  -1  -8   2   37.60    0.93
  -1  -8   2   33.17    1.33
  -1   8  -2   35.18    1.32
   1   8   2   32.73    1.32
   1  -8  -2   35.54    1.16
   1   8   2   34.88    1.16
  -1   8  -2   35.16    1.37
  -2   8   2   44.98    1.53
  -2  -8  -2   46.75    1.73
   2  -8   2   44.77    1.67
   2   8  -2   42.60    1.60
  -2   8   2   48.27    1.62
   2   8  -2   45.90    1.62
  -2  -8  -2   45.60    1.51
   2   8   2   46.32    1.40
  -2   8  -2   46.81    1.56
   2  -8  -2   47.03    1.71
   2   8   2   46.75    1.64
  -2  -8   2   47.39    1.65
   2  -8  -2   47.32    1.44
  -2  -8   2   46.40    1.33
  -2   8  -2   47.35    1.70
   3  -8   2    2.65    0.50
   3   8  -2    2.58    0.46
   3   8  -2    2.94    0.48
  -3   8   2    2.34    0.45
  -3  -8  -2    2.19    0.40
  -3   8   2    2.62    0.40
  -3  -8  -2    2.01    0.42
   3   8   2    2.49    0.42
   3  -8  -2    3.92    0.57
   3  -8  -2    3.20    0.41
  -3  -8   2    2.80    0.45
   3   8   2    3.76    0.40
  -3   8  -2    3.06    0.51
  -3   8  -2    3.86    0.47
  -3  -8   2    3.24    0.39
  -4   8   2  114.61    3.23
  -4   8   2  110.08    2.91
   4  -8   2  110.14    2.87
  -4  -8  -2  116.10    3.20
   4   8  -2  115.47    3.17
   4  -8   2  111.37    3.33
   4   8  -2  113.79    3.17
  -4   8  -2  104.24    3.12
   4   8   2  109.16    3.30
  -4  -8   2  105.19    3.04
   4  -8  -2  102.09    2.88
  -4   8  -2  106.84    2.79
   4  -8  -2  108.65    3.17
   4   8   2  108.53    2.62
   4   8   2  102.71    2.99
  -5  -8  -2   26.18    1.28
   5   8  -2   25.00    1.21
   5   8  -2   26.50    1.20
   5   8  -2   27.14    1.23
   5  -8   2   23.81    1.07
  -5   8   2   24.19    1.30
   5  -8   2   25.39    1.35
  -5   8   2   25.26    1.01
   5  -8  -2   23.50    1.29
   5   8   2   25.08    1.21
  -5   8  -2   25.18    0.98
   5  -8  -2   26.67    1.20
  -5   8  -2   24.12    1.31
   5   8   2   22.93    1.34
   6   8  -2    3.92    0.60
  -6   8   2    2.55    0.61
   6   8  -2    2.43    0.51
   6  -8   2    2.82    0.61
   6  -8   2    2.82    0.50
   6   8  -2    2.82    0.54
  -6  -8  -2    2.41    0.54
   6   8  -2    3.54    0.58
   6  -8  -2    2.38    0.56
   6  -8  -2    1.15    0.41
   6   8   2    2.90    0.52
  -6   8  -2    1.85    0.52
   6   8   2    1.82    0.51
  -7   8   2   26.53    1.52
   7   8  -2   25.88    1.43
   7   8  -2   27.09    1.45
   7   8  -2   30.30    1.39
   7  -8   2   30.00    1.42
   7  -8   2   25.84    1.55
   7   8  -2   28.22    1.35
  -7  -8  -2   24.79    1.46
   7  -8  -2   29.25    1.50
   7   8   2   29.75    1.39
   7  -8  -2   27.87    1.56
  -7   8  -2   31.15    1.64
   7   8   2   28.97    1.66
   8   8  -2   30.74    1.64
  -8   8   2   29.02    1.65
   8  -8   2   28.03    1.68
   8  -8   2   28.95    1.52
   8   8  -2   29.56    1.59
   8   8  -2   28.99    1.40
  -8  -8  -2   30.93    1.74
   8   8   2   28.54    1.40
   8   8   2   27.22    1.70
   8  -8  -2   26.05    1.51
  -8  -8   2   29.16    1.37
   8  -8  -2   25.74    1.54
  -8   8  -2   25.19    1.59
   9  -8   2    4.18    0.83
  -9  -8  -2    4.90    0.91
   9   8  -2    3.60    0.76
   9  -8   2    2.87    0.72
  -9   8   2    3.85    0.84
   9  -8  -2    3.60    0.77
  -9   8  -2    4.06    0.87
   9   8   2    3.17    0.79
   9  -8  -2    1.86    0.68
  -9  -8   2    3.95    0.64
  10   8  -2    8.86    1.12
 -10  -8  -2   10.85    1.35
  10  -8   2    9.10    1.27
 -10   8   2   10.06    1.24
  10   8   2   10.29    1.41
  10  -8  -2    8.36    1.16
  10  -8  -2    8.11    1.11
 -10   8  -2    8.13    1.17
 -11  -8  -2    4.29    0.95
  11   8  -2    5.78    1.00
  11  -8   2    5.00    1.09
 -11   8   2    4.46    1.00
  11  -8  -2    4.29    0.91
 -11  -8   2    4.54    0.99
  11  -8  -2    4.95    0.99
 -11   8  -2    4.83    1.02
  11   8   2    3.17    0.89
  12  -8   2    0.07    0.74
 -12  -8  -2    1.92    0.83
 -12   8   2    1.68    0.74
 -12  -8   2    1.01    0.78
  12   8   2    0.64    0.72
 -12   8  -2    1.85    0.82
  12  -8  -2    0.06    0.71
  12  -8  -2    0.55    0.76
   0  -9  -2   11.24    0.81
   0   9   2   10.00    0.73
   0  -9  -2   11.56    0.62
   0  -9   2   10.14    0.74
   0   9  -2    8.95    0.71
   0   9   2   10.02    0.65
   0   9  -2    9.78    0.72
   1   9  -2   38.64    1.52
   1  -9   2   37.62    1.53
  -1  -9  -2   38.12    1.58
  -1  -9  -2   39.37    1.39
  -1   9   2   39.85    1.44
   1   9  -2   38.17    1.48
  -1   9   2   41.34    1.50
  -1  -9   2   42.73    1.60
   1   9   2   41.75    1.59
   1   9   2   41.07    1.38
  -1   9  -2   43.49    1.62
   1  -9  -2   43.41    1.34
   1  -9  -2   45.09    1.68
  -1   9  -2   41.12    1.54
  -2  -9  -2   48.42    1.59
   2   9  -2   46.19    1.73
  -2   9   2   44.94    1.65
  -2   9   2   46.97    1.64
  -2  -9  -2   47.51    1.83
   2   9  -2   49.29    1.73
   2  -9   2   46.46    1.78
  -2   9  -2   46.13    1.60
  -2  -9   2   45.09    1.29
  -2   9  -2   43.01    1.68
  -2  -9   2   45.58    1.66
   2  -9  -2   44.23    1.40
   2   9   2   44.33    1.65
   2  -9  -2   43.74    1.72
   2   9   2   44.78    1.42
   3  -9   2   19.63    1.13
   3   9  -2   19.26    1.07
  -3   9   2   20.61    1.12
  -3  -9  -2   20.81    1.15
  -3   9   2   21.83    1.00
  -3  -9  -2   20.58    0.99
   3   9  -2   19.31    1.06
   3   9   2   18.78    1.05
  -3  -9   2   17.37    0.80
  -3  -9   2   18.55    1.01
   3  -9  -2   18.87    1.09
  -3   9  -2   16.69    1.05
   3  -9  -2   18.15    0.85
  -3   9  -2   19.58    0.95
   3   9   2   18.67    0.84
   4  -9   2   33.64    1.55
   4   9  -2   32.25    1.42
  -4  -9  -2   34.22    1.39
  -4   9   2   33.79    1.51
   4   9  -2   32.00    1.44
  -4   9   2   32.57    1.27
  -4  -9   2   30.81    1.38
   4  -9  -2   31.41    1.25
  -4  -9   2   31.18    1.25
   4  -9  -2   31.43    1.49
  -4   9  -2   31.23    1.23
   4   9   2   34.50    1.46
  -4   9  -2   30.57    1.48
  -5   9   2   41.89    1.47
   5  -9   2   39.33    1.81
   5   9  -2   45.50    1.73
   5   9  -2   43.62    1.72
  -5  -9  -2   41.59    1.71
  -5   9   2   42.15    1.82
   5  -9  -2   43.00    1.85
  -5  -9   2   45.25    1.78
  -5  -9   2   42.70    1.66
   5  -9  -2   44.15    1.65
   5   9   2   43.64    1.94
  -5   9  -2   42.45    1.47
  -5   9  -2   42.27    1.84
   5   9   2   44.23    1.76
  -6   9   2    8.67    0.98
   6   9  -2   10.30    0.95
  -6  -9  -2   11.67    0.96
   6   9  -2   10.44    0.86
   6  -9   2   10.88    1.10
   6   9   2   10.92    1.12
   6  -9  -2   10.87    1.08
   6   9   2   10.69    0.99
   6  -9  -2   10.00    0.84
  -6  -9   2   10.53    0.88
  -6   9  -2    8.86    1.01
   7   9  -2   18.88    1.25
   7  -9   2   16.79    1.31
  -7  -9  -2   18.49    1.29
  -7   9   2   19.73    1.35
   7   9  -2   17.58    1.11
   7   9  -2   19.27    1.18
   7   9   2   15.55    1.48
   7   9   2   15.77    1.07
  -7   9  -2   16.02    1.25
   7  -9  -2   15.53    1.11
   7  -9  -2   11.66    1.14
   8   9  -2   28.35    1.62
   8  -9   2   28.99    1.80
  -8   9   2   26.11    1.66
   8   9  -2   30.32    1.47
  -8  -9  -2   29.40    1.70
  -8  -9   2   24.86    1.56
   8   9   2   30.87    1.48
   8   9   2   26.38    1.70
   8  -9  -2   25.05    1.59
  -8   9  -2   26.59    1.65
   8  -9  -2   28.39    1.56
   9   9  -2   13.06    1.34
  -9   9   2   11.70    1.32
  -9  -9  -2   13.94    1.47
   9  -9   2   13.09    1.42
  -9  -9   2   12.04    1.31
  -9   9  -2   15.91    1.55
   9  -9  -2   13.36    1.26
   9   9   2   12.09    1.34
   9  -9  -2   15.76    1.50
  10   9  -2    7.15    1.06
 -10   9   2    8.21    1.18
  10  -9   2    8.87    1.25
 -10  -9  -2    8.88    1.24
  10  -9  -2   10.60    1.24
 -10   9  -2   10.78    1.36
  10   9   2    8.12    1.22
 -10  -9   2   10.77    1.32
  10  -9  -2   10.79    1.34
 -11  -9  -2    2.18    0.82
  11  -9   2    2.59    0.88
 -11   9   2    3.43    0.89
  11   9   2    2.64    0.91
 -11  -9   2    3.35    0.88
 -11   9  -2    3.33    0.93
  11  -9  -2    1.00    0.72
 -12   9   2    1.92    0.86
 -12  -9  -2    2.31    0.89
  12  -9   2    2.13    0.97
  12   9   2    1.56    0.87
  12  -9  -2    1.63    0.88
 -12   9  -2    2.97    0.95
 -12  -9   2    2.44    0.87
   0  10  -2   49.38    1.81
   0  10   2   49.50    1.67
   0 -10  -2   48.07    1.89
   0  10  -2   50.67    1.81
   0 -10  -2   50.90    1.56
   0 -10   2   46.83    1.81
   0  10   2   50.03    1.81
   1 -10   2   24.45    1.24
  -1  10   2   24.97    1.19
  -1  10   2   24.61    1.15
  -1 -10  -2   26.43    1.11
   1  10  -2   25.01    1.24
  -1 -10  -2   25.98    1.30
   1  10  -2   24.95    1.20
   1  10   2   26.70    1.08
  -1 -10   2   25.06    1.24
  -1  10  -2   22.58    1.19
   1 -10  -2   26.87    0.98
  -1  10  -2   23.94    1.18
   1  10   2   25.35    1.24
   1 -10  -2   25.97    1.29
  -2  10   2   14.95    0.94
   2  10  -2   14.85    0.93
  -2  10   2   14.07    0.89
   2  10  -2   12.87    0.91
   2 -10   2   14.70    0.99
  -2 -10  -2   12.57    0.95
  -2 -10  -2   14.65    0.82
   2  10   2   12.83    0.92
  -2 -10   2   12.79    0.87
   2 -10  -2   12.00    0.91
   2  10   2   13.28    0.74
  -2  10  -2   13.45    0.93
  -2  10  -2   14.21    0.88
   2 -10  -2   13.07    0.68
  -3  10   2   51.56    1.77
   3 -10   2   48.86    1.96
   3  10  -2   48.20    1.86
  -3 -10  -2   50.70    2.01
  -3 -10  -2   48.51    1.71
  -3  10   2   48.63    1.87
   3  10  -2   48.95    1.89
   3 -10  -2   48.48    1.58
  -3  10  -2   49.66    1.94
  -3  10  -2   48.15    1.73
   3  10   2   51.68    1.65
   3  10   2   47.60    1.86
  -3 -10   2   49.91    1.87
   3 -10  -2   47.91    1.93
  -4 -10  -2   16.53    0.97
  -4 -10  -2   15.50    1.10
   4  10  -2   16.36    1.04
  -4  10   2   14.27    0.88
   4 -10   2   15.48    1.11
  -4  10   2   14.55    1.07
   4  10  -2   15.95    1.02
  -4  10  -2   14.75    0.88
  -4  10  -2   14.01    1.06
   4 -10  -2   15.83    0.87
   4  10   2   16.49    1.07
   4 -10  -2   16.62    1.14
  -4 -10   2   15.07    0.99
  -5 -10  -2   11.24    0.89
   5  10  -2   11.36    0.93
  -5  10   2   11.71    1.10
  -5  10   2   11.61    0.78
   5 -10   2   13.57    1.24
   5  10  -2   11.24    0.90
  -5  10  -2   11.25    0.77
   5  10   2    9.31    0.92
  -5  10  -2   12.57    1.16
  -5 -10   2   10.50    0.83
  -5 -10   2   10.36    0.87
   5 -10  -2   11.26    0.90
   5 -10  -2   10.50    1.03
  -6 -10  -2   42.09    1.83
  -6  10   2   40.78    1.92
   6  10  -2   41.64    1.74
   6 -10   2   40.29    1.96
   6  10  -2   41.82    1.80
  -6 -10   2   41.18    1.73
   6 -10  -2   39.40    1.90
  -6  10  -2   39.95    1.92
   6  10   2   37.91    1.94
   6  10   2   38.14    1.72
  -6 -10   2   37.81    1.74
  -7 -10  -2    8.42    0.99
   7 -10   2    5.89    0.94
   7  10  -2    8.64    0.92
  -7  10   2    6.96    0.99
   7  10  -2    7.50    0.88
  -7  10  -2    6.52    0.95
   7 -10  -2    7.97    1.01
   7  10   2   10.17    1.22
  -7 -10   2    8.63    0.97
   7  10   2    8.58    0.93
   8  10  -2    8.19    1.07
   8 -10   2    4.73    0.90
  -8  10   2    6.48    0.96
  -8 -10  -2    8.54    1.06
   8  10  -2    7.83    0.94
   8  10   2    7.51    0.90
  -8  10  -2    7.15    1.05
   8  10   2    6.02    1.04
  -8 -10   2    9.32    1.09
   8 -10  -2    7.99    1.12
   9  10  -2   14.96    1.46
   9 -10   2   11.67    1.36
  -9 -10  -2   12.32    1.37
  -9  10   2   12.59    1.43
   9 -10  -2   14.28    1.43
   9  10   2   13.27    1.55
  -9  10  -2   13.70    1.49
  -9 -10   2   13.51    1.40
 -10 -10  -2    7.67    1.16
  10  10  -2    7.53    1.13
  10 -10   2    8.38    1.24
 -10  10   2    7.39    1.23
  10  10   2    8.41    1.29
 -10  10  -2    8.64    1.30
 -10 -10   2   10.24    1.29
  10 -10  -2    7.34    1.21
 -11  10   2    1.69    0.81
  11 -10   2    1.94    0.90
 -11 -10  -2    1.80    0.80
  11  10   2   -0.04    0.59
 -11 -10   2    1.58    0.76
 -11  10  -2    2.68    0.88
  11 -10  -2    2.34    0.89
   0 -11  -2   -0.04    0.29
   0  11  -2    0.18    0.30
   0 -11   2    0.29    0.34
   0  11   2    0.05    0.25
   0  11   2    0.10    0.33
   0  11  -2   -0.26    0.24
  -1 -11  -2   56.22    2.15
  -1  11   2   58.33    2.04
   1  11  -2   54.35    2.06
   1 -11   2   53.63    2.07
  -1  11   2   57.92    1.98
   1  11  -2   55.56    2.02
   1  11   2   61.56    2.17
  -1  11  -2   62.48    2.14
  -1 -11   2   58.04    2.14
   1  11   2   58.87    1.91
   1 -11  -2   59.10    2.21
   2  11  -2   70.64    2.38
  -2 -11  -2   69.71    2.52
   2  11  -2   68.10    2.41
  -2  11   2   75.48    2.39
   2 -11   2   68.11    2.47
  -2  11   2   71.53    2.34
  -2  11  -2   68.96    2.28
  -2  11  -2   68.48    2.38
   2 -11  -2   67.79    2.44
   2  11   2   69.10    2.40
   2  11   2   69.47    2.10
  -2 -11   2   68.33    2.37
  -3  11   2    0.91    0.45
  -3 -11  -2    0.35    0.35
  -3  11   2    1.28    0.41
  -3 -11  -2    0.52    0.32
   3 -11   2    0.30    0.37
   3  11  -2    0.93    0.40
   3  11  -2    0.79    0.40
  -3  11  -2    0.39    0.39
   3 -11  -2    0.11    0.37
   3  11   2    0.28    0.40
  -3  11  -2    0.05    0.29
  -3 -11   2    0.51    0.36
  -4  11   2   15.53    1.14
   4  11  -2   13.73    1.00
  -4 -11  -2   13.92    0.91
   4  11  -2   14.50    1.04
  -4  11   2   12.25    0.88
  -4 -11  -2   12.33    1.05
   4 -11   2   14.91    1.14
  -4  11  -2   13.87    0.91
   4  11   2   11.89    1.02
   4 -11  -2   12.74    1.08
  -4  11  -2   12.10    1.15
  -4 -11   2   13.50    1.00
  -5  11   2   56.98    2.32
   5 -11   2   55.59    2.36
   5  11  -2   59.66    2.19
  -5  11   2   54.08    2.01
   5  11  -2   55.28    2.18
  -5 -11  -2   60.88    2.16
  -5 -11  -2   59.69    2.41
   5  11   2   61.82    2.32
   5 -11  -2   57.56    2.38
  -5 -11   2   60.70    2.29
  -5  11  -2   57.41    2.36
  -6 -11  -2    3.45    0.65
   6  11  -2    3.74    0.66
   6 -11   2    3.46    0.77
  -6  11   2    3.42    0.74
   6  11  -2    5.05    0.73
   6 -11  -2    4.80    0.82
   6  11   2    3.88    0.69
  -6  11  -2    4.02    0.75
  -6 -11   2    4.48    0.74
  -7  11   2   11.59    1.27
   7 -11   2   11.38    1.26
  -7 -11  -2   13.79    1.14
   7  11  -2   13.11    1.07
  -7  11  -2    9.74    1.17
   7  11   2   12.69    1.38
   7 -11  -2   11.77    1.25
   7  11   2   12.79    1.21
  -7 -11   2   13.83    1.31
  -8 -11  -2    3.18    0.76
  -8  11   2    2.81    0.74
   8  11  -2    3.36    0.70
   8 -11   2    3.34    0.85
   8  11   2    1.98    0.62
   8  11   2    3.02    0.75
   8 -11  -2    3.43    0.83
  -8 -11   2    4.62    0.82
  -8  11  -2    2.33    0.72
   9 -11   2   -1.03    0.52
  -9 -11  -2   -0.24    0.43
  -9  11   2    0.41    0.60
   9 -11  -2   -0.28    0.54
   9  11   2    0.42    0.57
  -9  11  -2    0.73    0.58
  10  11  -2    0.45    0.60
  10 -11   2    0.63    0.78
 -10 -11  -2    0.90    0.65
 -10  11   2    0.23    0.61
  10  11   2    1.27    0.69
  10 -11  -2    0.24    0.64
 -10  11  -2    0.78    0.68
 -11 -11  -2    7.23    1.29
 -11  11   2    5.82    1.21
  11 -11   2    6.07    1.24
  11 -11  -2    4.76    1.06
  11  11   2    5.25    1.12
 -11  11  -2    6.57    1.24
   0 -12   2  152.67    4.40
   0  12  -2  161.48    4.36
   0  12  -2  159.06    4.27
   0 -12  -2  150.50    4.49
   0  12   2  155.11    4.07
   0  12   2  157.09    4.35
  -1  12   2   24.74    1.26
  -1  12   2   26.76    1.38
   1 -12   2   24.09    1.36
   1  12  -2   26.50    1.40
  -1 -12  -2   24.42    1.41
   1  12  -2   25.63    1.33
   1  12   2   28.11    1.45
  -1  12  -2   27.35    1.38
  -1  12  -2   28.55    1.42
   1  12   2   27.12    1.22
  -1 -12   2   25.09    1.38
   1 -12  -2   24.84    1.43
  -2 -12  -2   17.94    1.23
  -2  12   2   16.88    1.08
  -2  12   2   18.05    1.13
   2  12  -2   15.75    1.09
   2 -12   2   16.65    1.19
   2  12  -2   15.40    1.12
  -2 -12   2   13.11    1.04
   2 -12  -2   15.37    1.13
  -2  12  -2   13.86    0.99
   2  12   2   12.69    1.07
  -2  12  -2   14.45    1.07
  -3  12   2   20.57    1.18
   3  12  -2   19.10    1.22
   3 -12   2   18.97    1.31
  -3  12   2   20.05    1.28
   3  12  -2   17.71    1.20
  -3 -12  -2   21.42    1.37
  -3 -12   2   18.76    1.17
   3 -12  -2   16.60    1.22
  -3  12  -2   15.16    1.15
   3  12   2   19.23    1.24
  -3  12  -2   18.38    1.10
   4  12  -2    7.85    0.91
  -4  12   2    8.82    0.88
  -4 -12  -2    8.57    1.02
  -4  12   2    8.39    0.98
   4  12  -2    8.75    0.98
   4 -12   2    9.58    1.08
   4 -12  -2    8.55    1.02
   4  12   2   10.54    1.10
  -4  12  -2   10.36    0.96
  -4 -12   2   11.13    1.11
  -4  12  -2    9.65    1.05
   5  12  -2    6.05    0.85
   5 -12   2    4.88    0.85
  -5 -12  -2    3.40    0.74
  -5  12   2    4.63    0.81
   5  12  -2    3.71    0.67
  -5 -12   2    5.13    0.77
   5 -12  -2    3.99    0.79
  -5  12  -2    5.40    0.89
   5  12   2    5.02    0.77
  -6  12   2   41.44    2.11
  -6 -12  -2   45.09    2.18
   6 -12   2   43.37    2.17
   6  12  -2   39.25    1.90
   6  12   2   42.42    1.97
  -6 -12   2   44.77    2.03
  -6  12  -2   39.47    2.03
   6 -12  -2   46.12    2.20
   7 -12   2    0.71    0.56
  -7 -12  -2    0.89    0.53
  -7  12   2    0.27    0.56
   7  12  -2    0.77    0.51
   7 -12  -2    1.37    0.67
  -7 -12   2    1.60    0.56
  -7  12  -2    1.59    0.65
   7  12   2    1.21    0.57
  -8  12   2   -0.43    0.54
   8 -12   2    0.60    0.66
   8  12  -2   -0.06    0.44
   8 -12  -2    0.35    0.58
  -8 -12   2    0.34    0.43
   8  12   2   -0.21    0.45
  -8  12  -2    0.30    0.59
   9 -12   2   10.20    1.38
  -9  12   2   10.49    1.39
   9  12   2    5.81    1.06
  -9  12  -2    5.24    1.06
  -9 -12   2    9.04    1.21
   9 -12  -2    8.58    1.26
  10 -12   2    1.07    0.83
 -10  12   2    1.52    0.79
 -10 -12   2    0.02    0.54
  10  12   2    1.74    0.84
 -10  12  -2    0.56    0.72
  10 -12  -2    0.10    0.71
   0 -13  -2    4.05    0.74
   0  13  -2    3.81    0.68
   0  13   2    3.89    0.67
   0  13   2    4.76    0.66
   0  13  -2    3.94    0.66
   0 -13   2    4.62    0.74
   1  13  -2   32.72    1.64
  -1  13   2   34.57    1.57
   1  13  -2   34.50    1.63
  -1 -13  -2   31.41    1.71
   1 -13   2   34.40    1.69
  -1  13   2   32.99    1.61
  -1  13  -2   33.43    1.61
  -1  13  -2   36.28    1.68
  -1 -13   2   33.44    1.65
   1  13   2   32.47    1.66
   1 -13  -2   34.52    1.74
  -2 -13  -2   32.12    1.69
   2  13  -2   27.97    1.53
  -2  13   2   31.46    1.54
  -2  13   2   28.84    1.50
   2 -13   2   27.49    1.59
   2  13  -2   29.66    1.54
   2 -13  -2   30.75    1.66
  -2 -13   2   30.55    1.59
  -2  13  -2   34.22    1.61
   2  13   2   32.83    1.69
  -2  13  -2   32.26    1.65
  -3  13   2    2.61    0.56
   3  13  -2    0.81    0.49
  -3  13   2    1.64    0.56
   3 -13   2    2.05    0.63
  -3 -13  -2    2.08    0.63
   3  13  -2    0.95    0.45
  -3 -13   2    1.16    0.51
   3  13   2    1.43    0.56
  -3  13  -2    1.18    0.47
  -3  13  -2    1.10    0.50
   3 -13  -2    1.50    0.58
  -4  13   2   11.57    0.97
   4 -13   2   12.66    1.28
   4  13  -2   12.23    1.16
   4  13  -2   13.60    1.10
  -4  13   2   12.92    1.27
  -4 -13  -2   11.42    1.26
  -4 -13   2   12.28    1.16
  -4  13  -2   12.89    0.99
   4  13   2   11.93    1.18
   4 -13  -2   12.03    1.24
  -4  13  -2   11.02    1.17
  -5 -13  -2   31.11    1.83
   5  13  -2   29.90    1.66
  -5  13   2   32.29    1.82
   5 -13   2   28.57    1.78
  -5 -13   2   36.51    1.81
  -5  13  -2   32.35    1.86
   5  13   2   33.83    1.79
   5 -13  -2   34.93    1.91
  -6  13   2    0.33    0.55
  -6 -13  -2   -0.02    0.46
   6 -13   2    0.50    0.61
   6  13  -2    0.74    0.51
  -6  13  -2    0.93    0.61
   6  13   2   -0.36    0.43
  -6 -13   2   -0.05    0.42
   6 -13  -2    0.02    0.52
   7 -13   2   11.57    1.37
  -7 -13  -2   17.09    1.66
  -7  13   2   16.36    1.61
   7  13  -2   12.53    1.26
  -7 -13   2   15.05    1.29
   7  13   2   13.58    1.31
  -7  13  -2   13.84    1.48
   7 -13  -2   15.90    1.59
   8  13  -2    2.83    0.74
  -8  13   2    1.47    0.74
   8 -13   2    1.69    0.79
  -8 -13  -2    3.53    0.88
   8  13   2    3.55    0.79
   8 -13  -2    3.23    0.85
  -8  13  -2    3.89    0.94
  -8 -13   2    3.64    0.82
   9 -13   2   -0.33    0.67
  -9  13   2   -0.22    0.67
   9  13  -2    0.24    0.50
   9 -13  -2    0.11    0.67
  -9 -13   2    0.14    0.47
  -9  13  -2   -0.52    0.61
  10 -13   2    6.06    1.31
 -10  13   2    7.31    1.31
 -10  13  -2    6.08    1.14
  10 -13  -2    9.64    1.43
   0  14   2    4.72    0.81
   0 -14   2    5.85    0.88
   0  14  -2    3.96    0.69
   0 -14  -2    5.10    0.85
   0  14  -2    5.57    0.85
  -1  14   2    8.22    0.91
   1 -14   2    8.69    1.02
   1  14  -2   10.85    1.13
  -1  14   2    9.75    1.05
   1  14  -2    9.50    1.04
  -1 -14  -2   11.32    1.22
  -1  14  -2    9.50    1.03
  -1  14  -2   10.08    1.07
   1 -14  -2   11.50    1.23
  -1 -14   2   11.12    1.13
   1  14   2   12.17    1.22
  -2  14   2   11.20    1.11
   2 -14   2   12.08    1.23
  -2  14   2   10.60    1.06
   2  14  -2   11.64    1.23
  -2 -14  -2   11.90    1.26
   2  14  -2   12.79    1.19
  -2 -14   2   13.38    1.28
   2  14   2   11.70    1.19
   2 -14  -2   11.42    1.24
  -2  14  -2   12.00    1.17
  -2  14  -2    8.54    1.04
  -3  14   2   -0.11    0.36
   3 -14   2    0.44    0.52
   3  14  -2    1.25    0.58
  -3 -14  -2    0.18    0.46
   3  14  -2    0.98    0.49
  -3  14   2   -0.07    0.41
  -3  14  -2    0.27    0.46
  -3 -14   2    0.71    0.54
   3 -14  -2   -0.05    0.44
  -3  14  -2    0.06    0.41
   3  14   2    0.13    0.46
  -4  14   2    9.67    1.12
  -4  14   2   12.50    1.03
   4 -14   2   11.98    1.24
  -4 -14  -2   13.97    1.39
   4  14  -2    9.73    1.13
   4 -14  -2   11.95    1.29
  -4 -14   2   14.40    1.32
  -4  14  -2   11.53    1.27
  -4  14  -2   12.73    1.05
   4  14   2   12.06    1.22
   5 -14   2    9.94    1.26
  -5  14   2   12.93    1.35
   5  14  -2   10.77    1.22
  -5 -14  -2   13.02    1.35
  -5  14  -2    7.84    1.09
  -5 -14   2   12.96    1.32
   5  14   2   12.23    1.29
   5 -14  -2    9.92    1.20
  -6  14   2   29.31    1.91
   6  14  -2   30.94    1.79
   6 -14   2   29.70    1.95
  -6 -14  -2   31.18    1.95
  -6  14  -2   27.99    1.89
  -6 -14   2   32.55    1.83
   6  14   2   31.11    1.83
   6 -14  -2   33.86    2.03
   7  14  -2   10.42    1.28
  -7  14   2   12.69    1.45
  -7 -14  -2   12.22    1.43
   7 -14   2   11.49    1.41
   7  14   2   10.08    1.23
  -7  14  -2   11.69    1.43
   7 -14  -2   11.10    1.38
  -7 -14   2   12.59    1.43
  -8 -14  -2    0.75    0.60
  -8  14   2    1.11    0.79
   8  14  -2    1.18    0.59
   8 -14   2    0.17    0.75
   8 -14  -2    1.50    0.78
   8  14   2    0.70    0.60
  -8 -14   2   -0.02    0.52
  -8  14  -2    1.09    0.74
  -9  14   2    6.00    1.22
   9  14  -2    7.55    1.11
   9 -14   2    6.12    1.20
  -9 -14  -2    9.25    1.38
   9  14   2    6.02    1.12
  -9 -14   2    9.12    1.28
  -9  14  -2    4.79    1.13
   9 -14  -2    7.99    1.37
   0 -15  -2    0.25    0.45
   0  15   2   -0.12    0.44
   0  15  -2   -0.21    0.33
   0 -15   2    1.08    0.53
   0  15  -2   -0.07    0.40
  -1  15   2    3.17    0.72
   1  15  -2    1.91    0.63
   1 -15   2    2.84    0.73
  -1 -15  -2    3.15    0.76
   1  15  -2    3.23    0.71
   1 -15  -2    3.86    0.82
   1  15   2    5.84    0.92
  -1  15  -2    3.48    0.73
  -1 -15   2    4.52    0.84
  -1  15  -2    3.12    0.70
   2  15  -2   16.55    1.27
  -2  15   2   15.24    1.22
   2  15  -2   18.17    1.35
  -2 -15  -2   16.75    1.40
   2 -15   2   18.03    1.41
  -2  15   2   18.45    1.29
  -2 -15   2   16.64    1.30
   2 -15  -2   14.88    1.33
  -2  15  -2   15.74    1.24
  -2  15  -2   17.07    1.30
   2  15   2   19.79    1.42
  -3  15   2    6.21    0.89
   3  15  -2    6.73    0.99
  -3 -15  -2    8.92    1.14
   3 -15   2    7.31    1.08
  -3  15   2    8.49    1.03
  -3  15  -2    8.01    1.01
   3  15   2    7.83    1.07
  -3  15  -2   11.06    1.27
   3 -15  -2    7.37    1.09
  -3 -15   2    8.76    1.06
  -4 -15  -2    6.69    1.13
  -4  15   2    5.03    0.83
   4  15  -2    5.68    0.95
  -4  15   2    6.25    1.00
   4 -15   2    5.58    0.95
   4  15   2    5.48    0.96
   4 -15  -2    4.57    0.98
  -4  15  -2    6.65    0.99
  -4 -15   2    6.19    0.93
  -4  15  -2    5.44    0.83
  -5  15   2    9.85    1.22
   5 -15   2   11.34    1.42
   5  15  -2    8.61    1.10
  -5 -15  -2   10.16    1.30
  -5  15  -2    9.98    1.26
   5  15   2   10.90    1.30
   5 -15  -2    9.56    1.24
  -5 -15   2   11.13    1.24
  -6  15   2    4.83    0.96
   6  15  -2    3.50    0.78
  -6 -15  -2    6.20    1.07
   6 -15   2    4.52    1.00
  -6  15  -2    7.32    1.13
   6 -15  -2    6.10    1.14
   6  15   2    5.43    0.96
  -6 -15   2    6.40    1.03
   7 -15   2    5.76    1.14
   7  15  -2    4.49    0.96
  -7 -15  -2    7.25    1.20
  -7  15   2    6.32    1.18
  -7 -15   2    7.37    1.12
  -7  15  -2    6.28    1.15
   7 -15  -2    7.04    1.21
   7  15   2    5.14    0.96
   8 -15   2    3.99    1.06
  -8  15   2    3.39    1.02
  -8 -15  -2    5.58    1.07
   8  15  -2    4.50    0.91
   8 -15  -2    1.18    0.83
  -8 -15   2    2.66    0.85
   8  15   2    2.67    0.83
  -8  15  -2    3.62    1.01
   0 -16  -2    0.47    0.60
   0  16  -2   -0.12    0.48
   0  16   2   -0.14    0.47
   0  16  -2    0.76    0.48
   0 -16   2    0.09    0.51
   1  16  -2    9.68    1.09
   1  16  -2    9.99    1.19
  -1  16   2   10.83    1.21
  -1 -16  -2    9.40    1.21
   1 -16   2    9.71    1.19
  -1 -16   2    9.96    1.20
  -1  16  -2    9.09    1.13
   1  16   2    8.85    1.11
  -1  16  -2    8.03    1.03
   1 -16  -2   12.38    1.40
   2 -16   2   18.01    1.50
   2  16  -2   16.95    1.44
  -2  16   2   18.89    1.38
  -2 -16  -2   16.79    1.47
  -2 -16   2   21.35    1.53
  -2  16  -2   19.20    1.48
  -2  16  -2   19.53    1.43
   2  16   2   20.55    1.54
   2 -16  -2   19.36    1.54
  -3 -16  -2    0.04    0.53
  -3  16   2    0.09    0.47
  -3  16   2   -0.15    0.46
   3  16  -2    0.47    0.55
   3 -16   2   -0.11    0.57
   3  16   2    0.11    0.48
  -3  16  -2   -0.53    0.42
  -3  16  -2   -0.26    0.50
  -3 -16   2    0.63    0.55
   3 -16  -2    0.06    0.57
   4  16  -2    3.14    0.86
   4 -16   2    5.81    1.01
  -4  16   2    5.29    0.96
  -4 -16  -2    5.42    1.04
   4  16   2    2.32    0.77
   4 -16  -2    2.75    0.87
  -4  16  -2    3.52    0.83
  -4 -16   2    4.38    0.90
   5  16  -2    7.04    1.09
   5 -16   2    5.67    1.12
  -5 -16  -2    7.18    1.22
  -5  16   2    6.15    1.07
   5 -16  -2    7.52    1.19
  -5 -16   2    6.06    1.01
  -5  16  -2    6.91    1.13
   5  16   2    6.00    1.07
  -6  16   2    0.45    0.69
   6  16  -2    1.38    0.67
   6 -16   2   -0.27    0.62
  -6 -16  -2   -0.27    0.58
   6  16   2    0.63    0.63
  -6  16  -2    1.18    0.76
  -6 -16   2    1.89    0.76
   6 -16  -2    1.25    0.81
   7  16  -2    7.09    1.16
  -7  16   2    6.13    1.18
   7 -16   2    9.45    1.41
  -7 -16  -2    9.90    1.36
  -7  16  -2    7.52    1.22
  -7 -16   2   11.18    1.37
   7 -16  -2    9.25    1.40
   7  16   2   10.94    1.37
   0  17  -2    2.07    0.70
   0  17   2    2.83    0.79
   0 -17   2    3.63    0.86
   0 -17  -2    2.52    0.85
   0  17  -2    3.67    0.83
   1  17  -2    4.38    0.89
  -1  17   2    4.88    0.91
   1 -17   2    6.66    1.07
  -1 -17  -2    5.91    1.03
  -1  17  -2    4.84    0.93
  -1 -17   2    4.84    0.98
  -1  17  -2    6.13    0.96
   1 -17  -2    6.92    1.14
   1  17   2    4.26    0.89
  -2  17   2    2.98    0.75
   2  17  -2    0.37    0.58
  -2 -17  -2    1.67    0.72
   2 -17   2    2.13    0.77
   2 -17  -2    1.72    0.73
  -2 -17   2    1.32    0.66
  -2  17  -2    1.68    0.68
   2  17   2    1.44    0.69
  -2  17  -2    1.19    0.65
  -3 -17  -2   34.14    2.15
   3 -17   2   37.10    2.21
   3  17  -2   38.07    2.13
  -3  17   2   35.22    1.96
   3 -17  -2   31.62    2.07
  -3  17  -2   34.37    2.01
  -3 -17   2   30.93    1.93
   3  17   2   33.50    2.03
  -3  17  -2   31.21    1.83
   4 -17   2    4.28    0.99
  -4 -17  -2    3.60    0.93
   4  17  -2    3.62    0.89
  -4  17   2    3.59    0.89
  -4  17  -2    2.25    0.79
  -4 -17   2    3.52    0.88
   4  17   2    2.39    0.80
   4 -17  -2    3.72    1.00
   5  17  -2    0.25    0.59
  -5 -17  -2   -0.51    0.57
   5 -17   2   -0.54    0.62
  -5  17   2    0.99    0.71
   5 -17  -2    0.46    0.69
  -5 -17   2    0.53    0.66
  -5  17  -2    0.46    0.59
   5  17   2   -0.29    0.55
   6  17  -2    2.12    0.79
   6 -17   2    4.27    1.06
  -6 -17  -2    5.08    1.12
  -6  17   2    3.79    1.02
  -6  17  -2    2.33    0.86
   6 -17  -2    4.18    1.09
  -6 -17   2    4.88    0.99
   6  17   2    4.76    1.02
   0 -18  -2   -0.05    0.63
   0  18  -2    0.35    0.59
   0 -18   2   -0.32    0.50
   0  18   2   -0.08    0.54
  -1 -18  -2    3.44    0.94
   1 -18   2    4.86    1.04
  -1  18   2    4.87    0.97
   1  18  -2    4.92    0.97
   1 -18  -2    3.47    0.95
  -1 -18   2    3.19    0.87
   1  18   2    2.70    0.83
  -1  18  -2    3.35    0.81
  -1  18  -2    3.82    0.91
  -2 -18  -2   27.06    1.99
   2  18  -2   26.17    1.83
   2 -18   2   28.35    1.96
  -2  18   2   23.08    1.74
  -2  18  -2   22.58    1.72
  -2 -18   2   23.02    1.76
  -2  18  -2   23.81    1.72
   2  18   2   22.92    1.77
   2 -18  -2   23.30    1.84
  -3  18   2   -0.10    0.55
   3 -18   2    0.78    0.72
  -3 -18  -2    0.01    0.64
   3  18  -2    0.42    0.60
   3 -18  -2    1.41    0.80
  -3  18  -2    1.45    0.69
  -3  18  -2    0.11    0.60
   3  18   2    0.05    0.57
  -3 -18   2    0.42    0.63
   4  18  -2   14.85    1.64
  -4 -18  -2   15.87    1.82
   4 -18   2   14.06    1.64
   4 -18  -2   14.04    1.69
  -4 -18   2   13.55    1.56
   4  18   2   10.84    1.46
  -4  18  -2   12.17    1.48
   5  18  -2    0.38    0.61
   5 -18   2   -0.50    0.67
  -5 -18  -2   -0.43    0.58
  -5  18   2    0.91    0.76
   5  18   2    0.27    0.67
  -5 -18   2    0.39    0.61
   5 -18  -2   -0.38    0.71
  -5  18  -2    0.60    0.67
   0 -19  -2    5.76    1.16
   0  19  -2    4.05    1.01
   0  19   2    5.54    1.08
   0 -19   2    4.74    1.02
   1 -19   2    2.13    0.87
  -1  19   2    1.62    0.80
  -1 -19  -2    1.66    0.85
   1  19  -2    3.91    0.99
   1  19   2    2.06    0.83
  -1 -19   2    2.62    0.87
   1 -19  -2    2.40    0.90
  -1  19  -2    1.78    0.73
   2 -19   2   -0.22    0.65
   2  19  -2   -0.58    0.58
  -2 -19  -2    0.68    0.72
  -2  19   2   -0.06    0.56
   2 -19  -2   -0.48    0.64
  -2  19  -2   -0.56    0.51
  -2 -19   2   -0.03    0.66
  -2  19  -2    0.50    0.66
   2  19   2   -0.72    0.60
  -3 -19  -2   18.63    1.97
   3 -19   2   15.21    1.74
  -3  19   2   17.58    1.71
   3  19  -2   14.83    1.66
  -3  19  -2   13.07    1.56
  -3 -19   2   14.83    1.60
  -3  19  -2   16.46    1.82
   3 -19  -2   13.23    1.64
   3  19   2   12.92    1.58
   0   0   3   -0.02    0.08
   0   0   3    0.08    0.13
   0   0  -3    0.12    0.13
   0   0  -3    0.15    0.12
   1   0   3  229.61    5.11
   1   0   3  239.54    5.24
   1   0  -3  230.38    5.01
  -1   0  -3  233.04    4.88
  -1   0   3  231.44    5.12
   1   0  -3  239.65    5.26
  -1   0  -3  225.91    5.25
   2   0  -3    0.55    0.18
   2   0   3    0.79    0.18
  -2   0  -3    0.13    0.17
  -2   0   3    0.28    0.15
   2   0  -3    0.18    0.14
   2   0  -3    0.61    0.11
   2   0   3    0.20    0.16
  -2   0  -3    0.39    0.14
  -3   0  -3    2.12    0.31
   3   0  -3    2.33    0.25
   3   0   3    2.32    0.24
  -3   0  -3    2.44    0.25
  -3   0   3    2.02    0.29
  -3   0   3    2.17    0.26
   3   0  -3    2.06    0.32
   3   0   3    1.71    0.29
  -4   0  -3   44.26    1.30
  -4   0   3   45.99    1.26
  -4   0   3   43.89    1.40
   4   0  -3   43.28    1.34
  -4   0  -3   42.70    1.52
   4   0   3   46.46    1.58
   4   0  -3   44.55    1.52
   4   0   3   44.06    1.18
  -5   0   3    9.76    0.63
   5   0   3    9.49    0.42
  -5   0   3    9.69    0.50
   5   0   3    9.85    0.75
  -5   0  -3    8.77    0.55
   5   0  -3   10.45    0.74
  -5   0  -3   10.43    0.74
   5   0  -3    9.51    0.61
  -6   0  -3    8.38    0.59
   6   0   3    7.84    0.39
  -6   0  -3    7.57    0.77
   6   0  -3    7.12    0.62
  -6   0   3    7.96    0.63
  -6   0   3    8.68    0.47
   6   0  -3    7.65    0.75
   6   0   3   10.08    0.83
   7   0  -3    6.12    0.80
   7   0   3    6.85    0.85
   7   0  -3    4.91    0.64
  -7   0   3    5.75    0.67
  -7   0  -3    5.47    0.73
  -7   0  -3    6.04    0.61
  -8   0  -3    0.98    0.34
   8   0  -3    0.88    0.41
  -8   0  -3    0.70    0.43
   8   0  -3    2.41    0.55
   8   0   3    0.75    0.45
  -8   0   3    1.69    0.43
  -9   0   3    5.32    0.73
   9   0   3    4.60    0.84
  -9   0  -3    6.64    0.95
   9   0  -3    6.79    0.88
  -9   0  -3    6.84    0.77
   9   0  -3    6.77    0.90
  10   0  -3   40.81    2.02
  10   0   3   40.96    2.23
 -10   0  -3   43.26    1.83
 -10   0   3   41.48    1.86
 -10   0  -3   40.37    2.13
  10   0  -3   41.62    2.12
  11   0   3    1.34    0.66
  11   0  -3    1.99    0.66
 -11   0  -3    2.05    0.72
  11   0  -3    1.45    0.67
 -11   0  -3    3.06    0.67
 -11   0   3    1.58    0.57
 -12   0  -3    1.05    0.74
  12   0  -3    0.29    0.56
  12   0   3    1.32    0.74
 -12   0   3    0.92    0.54
  13   0   3    6.47    1.26
 -13   0  -3   11.72    1.56
  13   0  -3    7.34    1.28
 -13   0   3    9.09    1.21
   0  -1  -3  124.49    2.65
   0   1   3  122.82    2.84
   0   1  -3  115.52    2.86
   0  -1   3  125.39    2.73
   0   1   3  124.22    2.79
   0  -1   3  124.53    2.82
   0   1  -3  114.64    2.74
   1   1  -3  375.72    8.20
   1  -1   3  403.57    8.53
  -1   1   3  378.15    8.32
   1   1  -3  393.84    8.48
  -1  -1  -3  382.08    8.54
   1  -1   3  395.96    8.31
  -1  -1  -3  387.28    7.93
   1   1   3  403.24    8.47
   1   1   3  390.48    8.74
  -1   1  -3  394.32    8.62
  -1   1  -3  391.34    8.22
  -1  -1   3  390.43    8.44
   1  -1  -3  408.02    8.53
   1  -1  -3  389.26    8.67
   1  -1  -3  392.93    8.22
  -2  -1  -3   29.97    1.06
   2   1  -3   30.01    0.82
  -2  -1  -3   32.19    0.81
  -2   1   3   31.45    0.95
   2  -1   3   32.35    0.95
  -2   1   3   31.07    0.96
   2  -1   3   32.52    1.03
   2   1  -3   29.61    1.00
   2   1  -3   30.83    1.02
   2   1   3   28.81    1.02
   2  -1  -3   30.84    0.82
  -2   1  -3   29.56    0.91
   2  -1  -3   29.18    1.01
   2   1   3   31.14    0.92
  -2   1  -3   29.82    0.99
  -2  -1   3   29.45    0.91
   3  -1   3   40.31    1.34
  -3   1   3   40.80    1.17
  -3  -1  -3   41.68    1.08
   3  -1   3   41.02    1.12
   3   1  -3   41.89    1.17
   3   1  -3   40.82    1.28
  -3   1   3   40.31    1.24
   3   1  -3   40.48    1.33
  -3  -1  -3   38.89    1.35
   3  -1  -3   37.14    1.27
  -3   1  -3   35.95    1.13
   3   1   3   38.99    1.08
   3  -1  -3   39.05    1.10
  -3   1  -3   37.35    1.26
   3   1   3   37.86    1.32
  -3  -1   3   38.21    1.10
  -4   1   3   13.17    0.56
  -4  -1  -3   13.23    0.55
  -4   1   3   12.44    0.66
   4   1  -3   11.70    0.70
   4   1  -3   12.67    0.62
  -4  -1  -3   11.93    0.74
   4  -1   3   12.54    0.73
   4  -1   3   12.69    0.50
  -4   1  -3   11.45    0.60
  -4   1  -3   12.90    0.74
   4  -1  -3   12.00    0.59
   4   1   3   12.90    0.77
   4   1   3   12.37    0.53
  -4  -1   3   10.98    0.52
  -4  -1   3   12.35    0.66
   4  -1  -3   13.59    0.75
  -5   1   3   12.18    0.71
  -5  -1  -3   11.61    0.81
  -5  -1  -3   11.58    0.59
   5   1  -3   12.13    0.70
   5   1  -3   12.55    0.80
  -5   1   3   11.79    0.54
   5  -1   3   13.30    0.84
   5  -1   3   12.59    0.47
   5   1   3   16.19    0.61
   5  -1  -3   15.34    0.89
  -5  -1   3   14.49    0.78
   5  -1  -3   15.72    0.78
  -5   1  -3   16.02    0.78
  -5   1  -3   14.05    0.87
   5   1   3   16.81    0.97
  -5  -1   3   16.57    0.66
   6   1  -3   36.01    1.54
   6  -1   3   36.47    0.96
  -6  -1  -3   37.53    1.27
  -6   1   3   36.77    1.09
  -6  -1  -3   34.48    1.55
   6  -1   3   40.58    1.63
   6   1  -3   37.74    1.45
  -6   1   3   39.72    1.45
  -6  -1   3   33.82    1.32
  -6  -1   3   34.26    1.09
   6   1   3   36.25    1.05
  -6   1  -3   33.27    1.29
   6   1   3   33.73    1.54
   6  -1  -3   34.78    1.36
   6  -1  -3   36.55    1.52
  -6   1  -3   34.82    1.50
   7   1  -3   -0.13    0.30
  -7   1   3    0.19    0.26
   7   1  -3   -0.13    0.24
  -7  -1  -3   -0.03    0.19
  -7  -1  -3   -0.04    0.29
   7  -1   3    0.18    0.31
   7   1   3    0.05    0.31
  -7   1  -3    0.25    0.24
  -7   1  -3    0.17    0.34
  -7  -1   3    0.16    0.24
  -7  -1   3   -0.01    0.17
   7  -1  -3    0.07    0.22
   7  -1  -3   -0.06    0.30
  -8  -1  -3   43.57    1.98
  -8  -1  -3   45.13    1.62
   8  -1   3   42.33    1.98
   8   1  -3   42.78    1.82
   8   1  -3   43.65    1.94
  -8   1   3   43.21    1.73
  -8   1  -3   45.80    1.75
  -8   1  -3   46.79    2.03
  -8  -1   3   44.62    1.75
   8   1   3   50.38    2.17
   8  -1  -3   46.87    2.02
   8  -1  -3   44.53    1.88
  -9   1   3   13.75    1.03
   9   1  -3   15.44    1.17
  -9  -1  -3   15.49    1.27
   9   1  -3   15.13    1.24
  -9  -1  -3   16.35    1.01
   9  -1   3   17.19    1.35
   9   1   3   16.08    1.36
  -9  -1   3   16.19    1.07
   9  -1  -3   15.31    1.25
  -9   1  -3   16.59    1.27
  -9   1  -3   17.86    1.13
   9  -1  -3   13.77    1.13
  10  -1   3    1.59    0.69
 -10  -1  -3    2.01    0.53
  10   1  -3    1.50    0.60
  10   1  -3    1.71    0.59
 -10  -1  -3    1.89    0.64
 -10   1   3    1.73    0.58
 -10   1  -3    2.16    0.74
  10   1   3    1.94    0.65
  10  -1  -3    1.21    0.55
 -10   1  -3    1.83    0.55
 -10  -1   3    1.12    0.45
  10  -1  -3    1.48    0.60
  11  -1   3   17.04    1.70
 -11   1   3   16.36    1.25
  11   1  -3   15.35    1.58
 -11  -1  -3   16.62    1.65
  11   1  -3   14.02    1.45
  11  -1  -3   18.89    1.49
 -11  -1   3   16.16    1.23
  11  -1  -3   16.31    1.62
  11   1   3   19.77    1.63
 -11   1  -3   17.57    1.30
 -11   1  -3   17.06    1.67
  12   1  -3    2.70    0.80
 -12   1   3    3.51    0.80
 -12  -1  -3    2.82    0.87
  12  -1   3    2.80    0.93
  12   1   3    1.40    0.75
 -12   1  -3    2.34    0.83
 -12  -1   3    2.20    0.67
  12  -1  -3    2.36    0.79
 -13  -1  -3    1.15    0.80
  13   1  -3    2.15    0.88
  13  -1   3    0.21    0.72
 -13   1   3    2.19    0.75
  13  -1  -3    1.76    0.80
 -13   1  -3    0.67    0.78
 -13  -1   3    1.60    0.63
  13   1   3    0.38    0.72
   0   2  -3  145.81    3.33
   0  -2  -3  142.67    3.53
   0   2   3  149.11    3.41
   0   2   3  145.68    3.37
   0  -2   3  145.48    3.34
   0   2   3  149.97    3.12
   0   2  -3  152.35    3.37
   0  -2   3  145.24    3.32
   1  -2   3  232.69    5.06
   1  -2   3  230.19    5.20
  -1  -2  -3  230.70    5.28
  -1   2   3  234.13    4.91
   1   2  -3  221.02    5.08
  -1   2   3  233.03    5.09
   1   2  -3  231.66    5.14
  -1   2  -3  232.16    5.17
   1  -2  -3  246.67    5.33
  -1  -2   3  249.07    5.24
   1  -2  -3  225.91    5.42
   1   2   3  237.48    5.47
  -1  -2   3  240.95    5.26
   1   2   3  241.61    5.27
  -1   2  -3  238.10    5.31
  -2  -2  -3   68.81    1.45
   2   2  -3   65.78    1.77
   2   2  -3   66.24    1.63
  -2  -2  -3   65.26    1.86
   2  -2   3   66.39    1.82
  -2   2   3   66.51    1.71
  -2   2   3   67.01    1.71
   2   2  -3   64.95    1.82
   2  -2   3   69.21    1.68
   2   2   3   71.88    1.82
   2  -2  -3   72.66    1.79
   2   2   3   69.53    2.00
  -2   2  -3   72.75    1.85
  -2   2  -3   71.03    1.87
  -2  -2   3   71.37    1.82
   2  -2  -3   69.94    1.94
  -3   2   3   53.99    1.41
  -3  -2  -3   51.42    1.25
   3   2  -3   51.89    1.57
   3   2  -3   53.39    1.59
   3  -2   3   54.80    1.38
  -3   2   3   53.37    1.52
   3  -2   3   52.79    1.61
   3   2  -3   53.29    1.44
  -3  -2  -3   48.70    1.63
   3  -2  -3   54.86    1.69
  -3   2  -3   59.14    1.68
   3  -2  -3   56.97    1.54
   3   2   3   55.69    1.78
  -3   2  -3   55.99    1.59
  -3  -2   3   55.38    1.52
   3   2   3   55.95    1.51
  -4  -2  -3   59.87    1.97
  -4   2   3   64.12    1.84
  -4  -2  -3   65.38    1.59
  -4   2   3   64.89    1.63
   4   2  -3   59.89    1.92
   4   2  -3   64.49    1.81
   4  -2   3   64.08    1.97
   4   2  -3   62.70    1.86
   4  -2   3   63.93    1.59
  -4  -2   3   63.79    1.72
   4   2   3   64.83    1.70
   4   2   3   66.10    2.09
  -4   2  -3   62.51    1.82
   4  -2  -3   66.76    1.84
  -4   2  -3   64.23    1.96
   4  -2  -3   64.13    1.99
  -5  -2  -3   47.38    1.73
  -5  -2  -3   45.33    1.32
   5   2  -3   45.33    1.65
  -5   2   3   44.79    1.54
  -5   2   3   46.37    1.25
   5  -2   3   46.78    1.18
   5   2  -3   45.68    1.54
  -5   2  -3   42.65    1.59
  -5  -2   3   43.46    1.49
   5  -2  -3   41.69    1.46
   5   2   3   45.22    1.29
  -5   2  -3   45.11    1.49
  -5  -2   3   44.47    1.30
   5   2   3   43.47    1.69
   5  -2  -3   44.39    1.64
   6   2  -3   36.70    1.43
  -6  -2  -3   34.67    1.56
   6  -2   3   36.09    1.54
  -6  -2  -3   33.70    1.18
  -6   2   3   36.35    1.01
   6   2  -3   33.42    1.47
  -6   2   3   36.37    1.40
  -6  -2   3   35.59    1.14
   6  -2  -3   36.12    1.40
  -6   2  -3   36.85    1.53
  -6  -2   3   34.17    1.34
  -6   2  -3   37.14    1.39
   6   2   3   34.71    1.58
   6   2   3   35.16    1.12
   6  -2  -3   36.00    1.53
  -7   2   3    3.22    0.52
  -7  -2  -3    3.08    0.43
  -7  -2  -3    3.59    0.64
   7   2  -3    3.23    0.60
   7  -2   3    3.57    0.63
   7   2  -3    3.29    0.55
   7   2   3    2.45    0.52
   7  -2  -3    2.92    0.55
  -7  -2   3    2.63    0.45
  -7   2  -3    2.83    0.49
  -7  -2   3    3.06    0.37
  -7   2  -3    3.57    0.58
   7  -2  -3    2.47    0.48
  -8  -2  -3    3.21    0.65
   8   2  -3    3.34    0.62
   8   2  -3    4.28    0.68
   8  -2   3    3.96    0.68
  -8   2   3    4.40    0.65
  -8  -2  -3    4.12    0.54
  -8   2  -3    3.95    0.70
  -8   2  -3    4.26    0.64
  -8  -2   3    3.80    0.58
   8   2   3    4.32    0.76
   8  -2  -3    4.09    0.64
   8  -2  -3    3.28    0.62
  -9  -2  -3   26.29    1.64
   9  -2   3   28.76    1.69
  -9  -2  -3   28.71    1.31
   9   2  -3   27.73    1.55
  -9   2   3   29.18    1.49
   9   2  -3   28.09    1.64
   9  -2  -3   27.37    1.61
  -9   2  -3   28.21    1.63
   9   2   3   27.72    1.71
  -9   2  -3   27.29    1.44
   9  -2  -3   28.75    1.54
  -9  -2   3   25.01    1.35
  10   2  -3   17.50    1.41
 -10   2   3   14.19    1.14
  10   2  -3   16.68    1.31
  10  -2   3   15.39    1.54
 -10  -2  -3   16.75    1.42
  10   2   3   20.05    1.57
  10  -2  -3   16.63    1.39
 -10   2  -3   17.53    1.22
  10  -2  -3   17.60    1.36
 -10  -2   3   17.52    1.18
 -10   2  -3   17.07    1.41
 -11   2   3   17.51    1.31
  11   2  -3   12.74    1.39
  11  -2   3   18.01    1.79
 -11  -2  -3   14.75    1.58
  11   2  -3   16.43    1.59
  11  -2  -3   13.77    1.41
 -11  -2   3   14.06    1.14
  11   2   3   12.76    1.47
 -11   2  -3   15.31    1.25
  11  -2  -3   17.98    1.73
 -11   2  -3   14.02    1.52
  12   2  -3    4.87    1.03
  12  -2   3    5.80    1.12
 -12   2   3    6.59    1.02
 -12  -2  -3    5.48    1.11
  12   2   3    4.30    0.99
  12  -2  -3    5.41    1.11
 -12   2  -3    4.74    1.02
 -12   2  -3    6.98    1.04
 -12  -2   3    4.53    0.86
 -13   2   3    2.28    0.76
 -13  -2  -3    5.46    1.19
  13   2  -3    6.26    1.28
  13  -2   3    2.88    0.97
 -13   2  -3    3.71    1.04
 -13  -2   3    4.00    0.86
  13   2   3    3.78    1.15
  13  -2  -3    2.74    0.98
   0   3   3    0.64    0.12
   0  -3  -3    0.36    0.15
   0  -3   3    0.46    0.18
   0  -3   3    0.72    0.16
   0   3  -3    0.80    0.15
   0  -3  -3    0.52    0.19
   0   3  -3    0.82    0.20
   0   3   3    0.51    0.17
   1  -3   3   23.08    0.79
  -1   3   3   24.81    0.82
  -1  -3  -3   24.18    0.90
   1   3  -3   24.24    0.90
  -1   3   3   25.34    0.76
   1  -3   3   24.99    0.83
   1   3  -3   23.82    0.75
  -1  -3   3   23.11    0.73
   1  -3  -3   23.34    0.87
   1   3   3   23.38    0.82
   1  -3  -3   24.21    0.80
  -1  -3   3   22.69    0.81
  -1   3  -3   22.46    0.72
  -1   3  -3   24.23    0.85
   1   3   3   23.47    0.87
  -2   3   3   85.82    2.10
  -2  -3  -3   81.07    2.27
   2  -3   3   81.63    2.22
   2   3  -3   85.39    2.26
   2  -3   3   86.92    2.07
   2   3  -3   86.86    2.17
  -2   3   3   84.62    2.09
  -2  -3   3   90.28    2.19
   2  -3  -3   86.11    2.19
   2   3   3   88.70    2.19
   2   3   3   84.66    2.38
  -2  -3   3   90.97    2.13
   2  -3  -3   82.45    2.27
  -2   3  -3   87.88    2.17
  -2   3  -3   81.73    2.21
   3   3  -3   31.45    1.17
  -3   3   3   34.55    1.00
   3   3  -3   29.84    1.11
   3  -3   3   33.69    0.97
  -3  -3  -3   33.35    0.81
   3  -3   3   34.25    1.19
   3   3  -3   33.23    1.04
  -3  -3  -3   31.99    1.21
  -3   3   3   32.08    1.10
  -3  -3   3   24.82    0.91
  -3   3  -3   27.84    1.02
  -3   3  -3   26.33    0.97
   3  -3  -3   27.67    1.05
   3   3   3   26.90    1.12
   3   3   3   26.69    0.92
   3  -3  -3   27.04    0.94
   4   3  -3    5.72    0.57
  -4  -3  -3    6.33    0.33
   4   3  -3    6.59    0.54
  -4  -3  -3    5.81    0.61
  -4   3   3    5.93    0.36
   4  -3   3    6.28    0.38
   4   3  -3    5.69    0.44
   4  -3   3    6.37    0.56
  -4   3   3    5.39    0.53
   4   3   3    8.33    0.67
   4   3   3    7.73    0.48
   4  -3  -3    8.26    0.53
   4  -3  -3    8.14    0.61
  -4   3  -3    7.04    0.55
  -4   3  -3    7.20    0.56
  -4  -3   3    6.93    0.47
   5  -3   3    0.19    0.27
  -5  -3  -3    0.36    0.27
  -5   3   3    0.07    0.12
  -5   3   3    0.01    0.19
   5   3  -3    0.27    0.21
  -5  -3  -3    0.03    0.13
   5   3  -3   -0.21    0.20
   5   3  -3    0.29    0.22
   5  -3   3    0.23    0.15
   5  -3  -3    0.26    0.26
   5  -3  -3    0.50    0.23
  -5   3  -3    0.06    0.22
   5   3   3    0.54    0.22
  -5   3  -3    0.44    0.27
   5   3   3    0.32    0.29
  -5  -3   3    0.56    0.21
  -6  -3  -3   93.49    2.32
  -6   3   3   91.71    2.13
   6   3  -3   90.87    2.80
   6  -3   3   88.83    2.81
  -6   3   3   84.90    2.59
   6   3  -3   92.15    2.71
  -6  -3  -3   90.06    2.87
   6  -3  -3   88.23    2.62
   6   3   3   89.90    2.32
   6  -3  -3   88.50    2.77
  -6  -3   3   87.99    2.32
  -6   3  -3   87.77    2.73
   6   3   3   87.62    2.91
  -6  -3   3   86.14    2.53
  -6   3  -3   91.30    2.62
   7  -3   3   16.85    1.14
  -7  -3  -3   17.28    0.82
  -7   3   3   15.86    0.99
  -7  -3  -3   16.34    1.14
   7   3  -3   17.37    1.05
   7   3  -3   17.36    1.15
  -7  -3   3   16.87    0.96
   7  -3  -3   16.79    1.11
   7  -3  -3   17.88    1.03
  -7   3  -3   18.29    1.12
   7   3   3   16.51    1.18
   7   3   3   17.88    0.79
  -7  -3   3   15.89    0.77
  -7   3  -3   18.05    1.05
  -8   3   3   25.27    1.33
  -8  -3  -3   24.06    1.49
   8   3  -3   27.44    1.41
   8   3  -3   23.62    1.43
   8  -3   3   24.67    1.45
  -8  -3  -3   25.33    1.11
   8   3   3   22.35    1.46
   8  -3  -3   21.77    1.27
   8  -3  -3   24.63    1.42
  -8  -3   3   21.87    1.17
  -8   3  -3   20.53    1.31
  -8   3  -3   23.42    1.27
   9   3  -3   17.84    1.33
   9  -3   3   17.39    1.36
  -9   3   3   14.94    1.12
  -9  -3  -3   16.60    1.33
   9   3  -3   18.07    1.24
   9   3   3   16.56    1.40
   9  -3  -3   19.40    1.30
  -9  -3   3   20.36    1.18
   9  -3  -3   22.98    1.48
  -9   3  -3   21.35    1.29
  -9   3  -3   20.56    1.39
 -10   3   3    7.08    0.94
  10   3  -3    8.56    1.10
 -10  -3  -3    7.14    1.07
  10   3  -3    6.79    0.97
  10  -3   3    5.19    0.93
 -10  -3   3    9.31    0.98
  10  -3  -3    9.74    1.19
 -10   3  -3    8.41    1.00
 -10   3  -3    9.88    1.21
  10   3   3    8.84    1.21
  10  -3  -3   10.06    1.14
  11   3  -3   12.18    1.39
 -11   3   3   15.83    1.29
  11  -3   3   12.57    1.47
 -11  -3  -3   13.89    1.55
 -11   3  -3   13.84    1.51
 -11  -3   3   15.05    1.16
 -11   3  -3   16.28    1.45
  11  -3  -3   12.61    1.38
  11  -3  -3   13.90    1.46
  12   3  -3   23.23    1.88
 -12   3   3   22.37    1.60
 -12  -3  -3   22.88    1.85
  12  -3   3   19.15    1.93
 -12  -3   3   22.87    1.50
  12  -3  -3   22.30    1.80
 -12   3  -3   22.20    1.62
  12   3   3   22.03    1.86
 -12   3  -3   21.96    1.78
  13   3  -3    2.46    0.86
 -13  -3  -3    3.19    0.99
 -13   3   3    4.05    0.96
  13  -3   3    4.27    1.15
 -13   3  -3    3.15    0.89
  13   3   3    3.05    0.97
  13  -3  -3    4.91    1.13
 -13  -3   3    2.83    0.76
 -13   3  -3    3.09    1.05
   0   4  -3   27.85    0.95
   0  -4  -3   27.52    1.02
   0  -4   3   26.85    0.90
   0   4   3   28.05    0.79
   0   4   3   27.29    0.94
   0   4  -3   29.04    0.76
   0  -4  -3   27.32    0.98
   0   4  -3   28.89    0.99
  -1   4   3   29.14    0.99
   1  -4   3   31.53    0.99
   1   4  -3   32.53    0.89
  -1  -4  -3   32.16    1.10
  -1   4   3   30.51    0.94
   1  -4   3   29.30    1.02
   1   4  -3   30.72    1.04
   1   4  -3   30.88    1.09
  -1   4  -3   28.92    0.82
   1   4   3   28.31    0.72
   1  -4  -3   29.77    1.03
   1   4   3   28.67    1.05
  -1   4  -3   28.61    1.02
   1  -4  -3   29.06    1.00
  -1  -4   3   28.55    0.92
   1   4   3   29.39    0.99
   2  -4   3   28.09    1.02
   2   4  -3   28.67    0.94
  -2  -4  -3   27.35    1.05
  -2   4   3   26.84    0.94
   2  -4   3   27.67    0.90
   2   4  -3   27.60    0.99
  -2   4   3   27.98    0.92
   2   4  -3   28.35    1.09
  -2  -4   3   27.96    0.92
   2  -4  -3   26.73    1.00
  -2   4  -3   28.55    0.89
   2   4   3   26.75    1.09
   2   4   3   28.07    0.98
  -2   4  -3   28.69    1.05
   2  -4  -3   28.94    0.99
   3   4  -3  103.89    2.71
  -3  -4  -3  102.99    2.84
  -3   4   3  102.81    2.66
  -3   4   3  104.48    2.53
   3   4  -3  109.96    2.69
   3   4  -3  105.31    2.79
   3   4  -3  104.72    2.67
   3  -4   3  105.17    2.51
  -3  -4  -3  105.89    2.24
   3  -4   3  102.74    2.81
  -3   4  -3  107.71    2.78
  -3   4  -3  108.35    2.68
   3   4   3  102.26    2.94
   3  -4  -3  104.01    2.78
   3  -4  -3  104.38    2.73
   3   4   3  105.67    2.66
  -4  -4  -3   63.71    2.10
   4   4  -3   67.26    2.03
  -4   4   3   66.93    1.98
  -4   4   3   68.27    1.73
   4  -4   3   66.70    1.70
   4   4  -3   65.78    1.93
   4   4  -3   68.66    1.91
   4   4  -3   66.59    2.03
   4  -4   3   67.39    2.09
  -4  -4  -3   67.29    1.59
   4   4   3   65.42    1.85
  -4   4  -3   68.93    2.03
  -4   4  -3   65.54    1.95
   4  -4  -3   65.46    2.04
   4   4   3   65.52    2.19
   4  -4  -3   65.41    1.95
  -5   4   3   30.39    1.25
   5  -4   3   30.76    0.92
  -5  -4  -3   29.73    1.35
   5  -4   3   30.37    1.32
   5   4  -3   28.38    1.17
   5   4  -3   30.58    1.30
   5   4  -3   29.05    1.23
  -5  -4  -3   30.49    0.92
  -5   4   3   30.67    0.93
   5   4   3   35.27    1.22
   5  -4  -3   35.10    1.34
   5  -4  -3   33.64    1.40
  -5   4  -3   36.19    1.38
   5   4   3   33.45    1.52
  -5   4  -3   36.36    1.41
  -6   4   3   38.89    1.53
  -6   4   3   38.58    1.10
  -6  -4  -3   39.26    1.21
   6   4  -3   40.42    1.53
   6  -4   3   38.34    1.63
  -6  -4  -3   37.23    1.65
   6   4  -3   38.39    1.60
   6   4   3   40.00    1.34
  -6  -4   3   38.98    1.33
  -6   4  -3   39.63    1.58
   6  -4  -3   37.54    1.50
  -6   4  -3   40.34    1.57
   6   4   3   35.64    1.70
   6  -4  -3   40.34    1.64
  -7   4   3   18.13    1.07
  -7  -4  -3   16.76    1.16
  -7  -4  -3   19.70    0.85
   7   4  -3   19.31    1.08
   7  -4   3   17.94    1.17
   7   4  -3   16.72    1.11
  -7  -4   3   19.53    0.90
  -7   4  -3   19.78    1.14
   7  -4  -3   20.21    1.11
   7  -4  -3   18.64    1.17
   7   4   3   19.30    0.90
  -7  -4   3   17.28    0.98
   7   4   3   17.97    1.26
  -8   4   3    3.06    0.59
   8  -4   3    2.21    0.59
  -8  -4  -3    3.26    0.72
   8   4  -3    3.10    0.59
   8   4  -3    2.52    0.61
  -8   4  -3    2.35    0.57
   8  -4  -3    2.88    0.65
  -8   4  -3    2.67    0.61
   8   4   3    2.07    0.61
  -8  -4   3    2.61    0.51
   8  -4  -3    2.33    0.52
   9   4  -3   24.32    1.54
  -9   4   3   26.53    1.48
  -9  -4  -3   25.15    1.61
   9  -4   3   23.75    1.56
   9   4  -3   24.93    1.45
   9  -4  -3   23.05    1.49
  -9   4  -3   22.15    1.47
   9   4   3   21.81    1.57
  -9   4  -3   21.41    1.35
  -9  -4   3   22.65    1.27
   9  -4  -3   22.27    1.40
 -10  -4  -3    5.29    0.96
 -10   4   3    4.88    0.84
  10  -4   3    4.72    0.91
  10   4  -3    6.02    0.98
  10   4  -3    5.81    0.91
  10   4   3    3.09    0.79
  10  -4  -3    5.07    0.86
  10  -4  -3    6.82    1.06
 -10   4  -3    5.12    0.93
 -10   4  -3    4.96    0.86
 -10  -4   3    4.94    0.75
 -11   4   3   12.85    1.33
 -11  -4  -3   12.49    1.41
  11  -4   3   14.43    1.59
  11   4  -3   12.65    1.46
 -11   4  -3   11.25    1.36
  11   4   3   13.15    1.64
  11  -4  -3    9.71    1.22
 -11  -4   3   14.01    1.15
  11  -4  -3   13.88    1.50
 -11   4  -3   13.30    1.38
 -12  -4  -3    3.59    0.99
  12  -4   3    2.76    1.01
  12   4  -3    4.08    0.97
 -12   4   3    2.64    0.74
  12   4   3    3.11    0.95
 -12   4  -3    3.14    0.90
 -12   4  -3    3.43    0.81
  12  -4  -3    4.60    1.03
 -12  -4   3    3.88    0.80
 -13  -4  -3    4.12    1.09
  13  -4   3    2.87    1.02
 -13   4   3    3.03    0.82
  13   4  -3    2.34    0.85
 -13   4  -3    3.72    0.94
  13  -4  -3    4.06    1.03
  13   4   3    2.18    0.88
 -13   4  -3    3.43    1.01
   0   5   3    2.16    0.25
   0   5  -3    2.29    0.16
   0  -5   3    2.04    0.30
   0   5   3    2.25    0.33
   0   5  -3    2.24    0.34
   0  -5  -3    1.65    0.30
   0  -5  -3    1.98    0.33
   0   5  -3    2.25    0.32
  -1   5   3   77.82    2.15
   1   5  -3   84.13    2.28
  -1  -5  -3   83.65    2.29
  -1   5   3   84.63    2.09
   1   5  -3   84.59    2.24
   1  -5   3   81.26    2.25
  -1  -5  -3   83.14    2.35
   1   5  -3   85.91    2.00
   1  -5  -3   75.12    2.12
  -1   5  -3   75.94    1.79
   1  -5  -3   78.44    2.11
  -1   5  -3   75.55    2.02
   1   5   3   75.62    1.75
  -1   5  -3   76.86    2.11
  -1  -5   3   76.33    2.04
   1   5   3   74.79    2.05
  -2   5   3   15.57    0.67
  -2   5   3   15.10    0.70
   2   5  -3   15.34    0.63
   2   5  -3   15.41    0.73
   2   5  -3   14.67    0.79
  -2  -5  -3   13.99    0.74
   2  -5   3   15.42    0.75
   2  -5  -3   15.77    0.74
  -2  -5   3   15.89    0.70
  -2   5  -3   16.28    0.81
   2   5   3   14.91    0.74
  -2   5  -3   16.49    0.60
   2   5   3   17.40    0.87
   2   5   3   16.58    0.48
   2  -5  -3   16.12    0.75
  -3   5   3  183.05    4.35
   3  -5   3  181.67    4.20
   3   5  -3  186.33    4.42
   3   5  -3  182.77    4.48
   3  -5   3  186.83    4.60
   3   5  -3  188.32    4.42
  -3  -5  -3  179.44    4.56
  -3   5   3  188.03    4.24
   3   5   3  192.16    4.83
  -3  -5   3  182.41    4.48
   3   5   3  187.80    4.44
  -3   5  -3  190.15    4.38
  -3   5  -3  189.51    4.52
   3  -5  -3  185.97    4.59
   3  -5  -3  183.79    4.53
  -4   5   3   71.10    2.12
  -4   5   3   71.34    1.85
  -4  -5  -3   68.89    1.64
  -4  -5  -3   71.16    2.23
   4   5  -3   72.01    2.16
   4  -5   3   71.06    2.22
   4   5  -3   66.32    2.03
   4  -5   3   69.79    1.82
   4   5  -3   70.72    2.10
   4   5  -3   70.87    2.05
  -4   5  -3   70.78    2.07
  -4   5  -3   75.01    2.24
   4  -5  -3   70.46    2.15
   4  -5  -3   71.70    2.19
   4   5   3   72.74    2.38
   4   5   3   74.94    2.09
   5  -5   3   22.38    0.79
  -5  -5  -3   22.01    0.75
  -5   5   3   23.26    1.12
   5   5  -3   22.69    1.04
  -5   5   3   25.16    0.83
   5   5  -3   22.78    1.10
   5   5  -3   23.32    1.00
   5  -5   3   22.08    1.14
   5   5  -3   23.93    1.10
  -5  -5  -3   22.40    1.17
   5   5   3   24.29    1.00
   5   5   3   22.18    1.21
   5  -5  -3   23.74    1.14
  -5   5  -3   22.54    1.13
   5  -5  -3   22.25    1.06
  -5   5  -3   21.37    1.03
   6   5  -3   24.07    1.06
  -6   5   3   23.72    1.21
  -6  -5  -3   26.66    1.36
  -6  -5  -3   24.79    0.88
   6  -5   3   25.53    1.31
   6   5  -3   24.34    1.26
   6   5  -3   26.37    1.22
   6   5  -3   25.02    1.18
   6   5   3   23.28    1.34
   6   5   3   25.47    1.06
   6  -5  -3   25.64    1.21
  -6   5  -3   24.10    1.23
   6  -5  -3   23.56    1.24
  -7  -5  -3   26.27    1.47
   7  -5   3   27.48    1.47
  -7   5   3   27.44    1.38
   7   5  -3   27.39    1.33
   7   5  -3   26.63    1.40
   7  -5  -3   27.05    1.42
  -7  -5   3   26.34    1.12
   7   5   3   28.73    1.16
   7   5   3   25.23    1.48
  -7   5  -3   26.41    1.37
  -7  -5   3   28.76    1.29
   7  -5  -3   26.09    1.33
   8  -5   3   10.76    1.11
  -8  -5  -3   10.83    1.17
   8   5  -3   11.02    0.94
   8   5  -3   10.54    1.12
  -8   5   3   12.13    1.13
  -8   5  -3    8.00    0.93
  -8   5  -3    8.76    0.96
   8  -5  -3    9.09    0.93
   8  -5  -3   11.12    1.12
  -8  -5   3    9.20    0.87
   8   5   3   10.37    1.12
  -9   5   3   12.77    1.04
  -9  -5  -3   11.26    1.27
   9   5  -3   12.29    1.08
   9  -5   3   12.49    1.32
   9   5  -3   11.22    1.16
   9  -5  -3   12.89    1.09
   9   5   3   12.61    1.33
   9  -5  -3   13.50    1.29
  -9  -5   3   10.83    1.03
  -9   5  -3   11.22    1.17
  -9   5  -3   10.06    1.09
  10   5  -3   14.59    1.25
 -10  -5  -3   15.24    1.50
 -10   5   3   14.45    1.37
  10  -5   3   15.38    1.52
  10   5  -3   15.64    1.50
 -10  -5   3   15.06    1.12
  10  -5  -3   15.05    1.28
 -10   5  -3   14.49    1.37
  10  -5  -3   16.06    1.38
 -10   5  -3   17.67    1.42
  10   5   3   13.21    1.53
  11  -5   3    0.86    0.74
 -11  -5  -3    1.17    0.66
 -11   5   3    1.07    0.58
  11   5  -3    0.78    0.57
 -11   5  -3    1.05    0.58
 -11   5  -3    1.40    0.71
  11   5   3    1.11    0.64
  11  -5  -3    0.39    0.56
  11  -5  -3    0.67    0.62
 -11  -5   3    0.61    0.46
 -12   5   3    6.22    1.06
  12   5  -3    6.46    1.16
  12  -5   3    4.30    1.03
 -12  -5  -3    4.37    1.06
 -12   5  -3    4.78    0.97
 -12   5  -3    5.71    1.10
 -12  -5   3    5.65    0.90
  12   5   3    6.05    1.20
  12  -5  -3    6.37    1.16
  13  -5   3   13.96    1.83
 -13  -5  -3   12.80    1.67
 -13   5   3   15.70    1.64
  13   5  -3   11.17    1.51
  13   5   3   11.76    1.62
  13  -5  -3   16.22    1.76
 -13   5  -3   14.85    1.75
 -13   5  -3   17.22    1.71
   0   6   3    0.53    0.18
   0   6  -3    0.49    0.21
   0  -6  -3    0.18    0.19
   0   6  -3    0.46    0.21
   0  -6  -3    0.33    0.21
   0  -6   3    0.82    0.25
   0   6   3    0.39    0.22
   1   6  -3   54.33    1.69
  -1  -6  -3   54.88    1.78
  -1  -6  -3   55.15    1.71
   1  -6   3   53.11    1.70
  -1   6   3   55.10    1.57
   1   6  -3   58.34    1.38
  -1   6   3   52.03    1.61
   1   6  -3   53.80    1.71
   1  -6  -3   57.14    1.69
  -1  -6   3   55.29    1.68
  -1   6  -3   58.17    1.78
   1  -6  -3   54.89    1.76
   1   6   3   58.21    1.44
  -1   6  -3   55.51    1.67
   1   6   3   56.70    1.72
   2   6  -3  164.20    3.81
  -2  -6  -3  161.61    4.07
   2   6  -3  166.15    4.04
  -2   6   3  161.57    3.89
  -2   6   3  164.87    3.90
   2   6  -3  161.45    4.05
   2  -6   3  165.88    4.14
  -2   6  -3  159.98    3.96
   2  -6  -3  159.29    3.90
   2   6   3  154.42    3.46
  -2  -6   3  155.37    3.92
  -2   6  -3  164.91    3.62
   2   6   3  161.51    3.92
   2   6   3  160.37    4.17
  -2   6  -3  157.15    3.81
   2  -6  -3  164.71    4.06
   3   6  -3    3.68    0.50
  -3   6   3    3.59    0.48
  -3   6   3    3.50    0.40
   3  -6   3    2.70    0.41
  -3  -6  -3    3.51    0.46
   3   6  -3    4.71    0.46
   3   6  -3    3.51    0.48
  -3   6  -3    4.06    0.52
   3   6   3    3.67    0.24
  -3  -6   3    3.81    0.43
  -3   6  -3    4.24    0.39
   3  -6  -3    3.23    0.42
   3  -6  -3    2.91    0.41
   3   6   3    3.38    0.45
   3   6   3    2.85    0.48
   4   6  -3   55.99    1.85
   4  -6   3   54.49    1.88
  -4  -6  -3   52.74    1.85
   4   6  -3   53.44    1.74
  -4   6   3   52.71    1.79
   4   6  -3   56.24    1.77
   4  -6   3   52.67    1.52
  -4   6   3   52.10    1.55
  -4  -6  -3   53.17    1.33
  -4   6  -3   50.56    1.58
  -4   6  -3   52.60    1.82
   4  -6  -3   47.45    1.69
   4  -6  -3   49.99    1.73
   4   6   3   48.93    1.90
   4   6   3   52.09    1.67
   5  -6   3   52.66    1.94
  -5  -6  -3   52.77    1.38
  -5   6   3   54.45    1.52
   5   6  -3   53.52    1.81
  -5  -6  -3   51.97    1.94
   5   6  -3   50.21    1.73
   5  -6   3   52.40    1.48
   5   6  -3   51.21    1.82
   5   6  -3   52.80    1.84
  -5   6   3   51.45    1.85
   5   6   3   55.29    1.81
   5  -6  -3   56.91    1.95
  -5   6  -3   54.67    1.82
  -5   6  -3   55.82    1.98
   5  -6  -3   56.66    1.95
   5   6   3   56.69    2.15
   6  -6   3    6.22    0.80
   6   6  -3    4.61    0.59
  -6   6   3    4.60    0.67
  -6  -6  -3    6.76    0.83
   6   6  -3    5.90    0.63
   6   6  -3    5.13    0.66
   6   6  -3    4.77    0.62
   6  -6  -3    6.97    0.77
   6   6   3    6.68    0.86
  -6   6  -3    5.96    0.67
   6   6   3    7.81    0.64
   6  -6  -3    6.50    0.75
  -6   6  -3    6.02    0.78
   7   6  -3    2.05    0.51
   7  -6   3    1.80    0.54
   7   6  -3    1.56    0.47
  -7   6   3    1.93    0.55
  -7  -6  -3    1.35    0.51
   7   6  -3    1.81    0.42
   7   6   3    1.58    0.52
   7  -6  -3    1.35    0.48
   7  -6  -3    1.58    0.45
   7   6   3    1.61    0.40
  -7   6  -3    1.31    0.48
  -8  -6  -3   15.26    1.24
   8   6  -3   16.91    1.15
   8  -6   3   14.56    1.22
  -8   6   3   16.93    1.20
   8   6  -3   17.04    1.21
   8  -6  -3   14.36    1.17
   8   6   3   15.22    1.25
  -8  -6   3   14.69    0.90
  -8   6  -3   14.31    1.14
  -8   6  -3   15.18    1.13
   8  -6  -3   14.15    1.12
  -8  -6   3   13.21    0.94
  -9   6   3   15.31    1.22
   9  -6   3   12.66    1.26
  -9  -6  -3   15.04    1.49
   9   6  -3   15.61    1.27
   9   6  -3   19.47    1.29
   9  -6  -3   18.22    1.37
   9   6   3   12.22    1.30
  -9   6  -3   13.91    1.32
  -9   6  -3   16.11    1.25
   9  -6  -3   17.08    1.28
  -9  -6   3   15.01    1.07
  10   6  -3    1.54    0.60
 -10   6   3    2.29    0.70
  10  -6   3    2.44    0.80
 -10  -6  -3    1.75    0.68
  10   6  -3    1.62    0.63
  10   6   3    2.10    0.74
 -10   6  -3    2.73    0.74
  10  -6  -3    2.39    0.73
 -10   6  -3    2.82    0.77
  10  -6  -3    3.15    0.75
 -10  -6   3    1.83    0.53
 -11   6   3    7.43    1.10
 -11  -6  -3    8.16    1.20
  11   6  -3    7.99    1.13
  11  -6   3    5.57    1.07
 -11   6  -3    8.11    1.18
 -11  -6   3   10.73    1.14
 -11   6  -3   10.43    1.28
  11  -6  -3    8.36    1.18
  11   6   3    6.56    1.11
  11  -6  -3    8.49    1.22
 -12  -6  -3    2.43    0.84
  12  -6   3    3.46    0.97
  12   6  -3    2.30    0.82
 -12   6   3    2.18    0.79
  12  -6  -3    2.45    0.89
 -12   6  -3    3.48    0.91
  12   6   3    2.61    0.84
 -12   6  -3    2.43    0.86
  12  -6  -3    1.66    0.84
   0   7   3    0.82    0.28
   0   7  -3    0.15    0.21
   0   7   3    0.53    0.21
   0  -7   3    0.65    0.26
   0  -7  -3    0.81    0.29
   0   7  -3    0.47    0.25
   0  -7  -3    0.35    0.21
  -1  -7  -3   29.35    1.25
  -1   7   3   26.79    1.09
  -1  -7  -3   29.96    1.17
  -1   7   3   29.08    1.08
   1   7  -3   28.49    1.18
   1  -7   3   29.11    1.18
   1   7  -3   29.27    0.80
   1   7  -3   29.16    1.17
  -1   7  -3   25.64    1.05
   1  -7  -3   26.11    1.01
  -1   7  -3   27.00    1.15
   1  -7  -3   24.00    1.09
   1   7   3   26.39    0.87
   1   7   3   25.08    1.08
  -1  -7   3   25.64    1.05
   2   7  -3   84.67    2.11
  -2  -7  -3   84.57    2.58
   2   7  -3   83.82    2.42
  -2   7   3   82.09    2.31
  -2   7   3   81.40    2.29
  -2  -7  -3   84.13    2.39
   2  -7   3   81.54    2.47
   2   7  -3   83.68    2.45
  -2   7  -3   81.02    1.92
   2   7   3   86.23    2.39
  -2   7  -3   77.71    2.23
  -2  -7   3   80.87    2.32
   2  -7  -3   81.61    2.43
  -2   7  -3   80.34    2.40
   2   7   3   82.33    1.98
   2  -7  -3   81.53    2.26
  -3   7   3   38.31    1.42
   3   7  -3   34.71    1.37
   3   7  -3   37.15    1.23
   3   7  -3   35.27    1.45
  -3  -7  -3   36.74    1.40
  -3   7   3   37.01    1.26
   3  -7   3   35.86    1.45
  -3  -7   3   35.68    1.34
  -3   7  -3   37.29    1.26
   3  -7  -3   39.46    1.36
  -3   7  -3   35.43    1.45
   3   7   3   35.96    1.02
   3   7   3   37.24    1.41
   3   7   3   37.02    1.55
   3  -7  -3   38.04    1.46
  -3   7  -3   36.31    1.13
   4   7  -3  132.43    3.61
  -4   7   3  135.10    3.59
   4  -7   3  132.82    3.74
  -4  -7  -3  133.70    3.68
  -4   7   3  137.21    3.34
   4   7  -3  137.13    3.51
   4   7  -3  132.39    3.55
   4   7   3  136.40    3.97
  -4   7  -3  138.32    3.75
   4   7   3  137.13    3.08
  -4  -7   3  139.80    3.66
   4  -7  -3  137.41    3.64
   4   7   3  138.38    3.62
  -4   7  -3  138.76    3.46
   4  -7  -3  141.17    3.79
  -5   7   3   20.76    1.13
   5  -7   3   19.07    0.81
   5   7  -3   18.65    1.01
   5   7  -3   18.25    0.99
  -5   7   3   18.85    0.83
   5   7  -3   19.09    1.02
   5   7  -3   23.11    1.14
   5  -7   3   19.21    1.14
  -5  -7  -3   21.25    1.14
  -5   7  -3   16.86    0.90
   5  -7  -3   18.39    1.02
   5  -7  -3   17.30    1.03
  -5   7  -3   19.66    1.13
   5   7   3   17.84    1.16
   5   7   3   19.04    1.00
   6   7  -3   16.75    1.01
  -6  -7  -3   16.88    1.14
   6   7  -3   15.90    1.01
  -6   7   3   15.60    1.06
   6   7  -3   16.83    0.97
   6   7  -3   17.92    1.05
   6  -7   3   16.63    1.12
  -6   7  -3   17.43    1.14
   6  -7  -3   18.23    1.10
   6   7   3   18.79    1.02
   6  -7  -3   17.30    1.07
   6   7   3   17.20    1.21
  -6   7  -3   17.88    1.01
   7   7  -3   55.18    2.07
   7  -7   3   51.97    2.19
  -7  -7  -3   54.79    2.24
   7   7  -3   53.19    1.98
   7   7  -3   52.45    2.09
  -7   7   3   51.16    2.09
   7   7  -3   51.23    1.86
   7  -7  -3   53.80    2.14
   7   7   3   52.68    1.90
   7   7   3   50.32    2.28
   7  -7  -3   55.40    2.15
  -7   7  -3   55.57    2.20
  -7   7  -3   57.88    2.09
   8  -7   3    7.19    0.94
  -8  -7  -3    4.94    0.81
  -8   7   3    6.14    0.85
   8   7  -3    7.16    0.95
   8   7  -3    6.30    0.84
  -8   7  -3    6.27    0.82
   8   7   3    7.79    0.82
   8   7   3    5.88    0.93
   8  -7  -3    6.30    0.86
   8  -7  -3    6.00    0.86
  -8  -7   3    5.87    0.74
  -8   7  -3    6.41    0.90
   9   7  -3    2.01    0.61
   9  -7   3    3.07    0.80
  -9   7   3    2.42    0.65
   9   7  -3    2.59    0.65
  -9  -7  -3    1.80    0.63
  -9   7  -3    2.90    0.76
   9   7   3    1.50    0.64
  -9  -7   3    1.96    0.51
   9  -7  -3    3.12    0.71
  -9   7  -3    3.21    0.70
   9  -7  -3    2.79    0.70
 -10   7   3    7.50    1.08
 -10  -7  -3    7.18    1.11
  10  -7   3    6.85    1.09
  10   7  -3    9.67    1.23
  10   7  -3    8.71    1.11
  10  -7  -3    6.75    1.04
 -10   7  -3    8.99    1.14
  10  -7  -3    9.09    1.19
 -10  -7   3    7.37    0.90
  10   7   3    5.89    1.08
 -10   7  -3    8.77    1.13
  11  -7   3    0.64    0.71
 -11  -7  -3    0.67    0.66
 -11   7   3    0.81    0.65
  11   7  -3    0.14    0.58
  11  -7  -3    0.96    0.63
  11   7   3   -0.04    0.54
  11  -7  -3    0.64    0.65
 -11   7  -3    1.15    0.70
 -11   7  -3    1.31    0.68
 -12   7   3    3.18    0.89
  12  -7   3    2.59    0.99
 -12  -7  -3    4.23    1.09
  12  -7  -3    3.63    0.99
  12   7   3    2.83    0.93
 -12   7  -3    3.77    0.97
 -12   7  -3    2.65    0.89
  12  -7  -3    3.37    0.95
   0   8  -3   38.35    1.47
   0  -8   3   38.36    1.46
   0  -8  -3   39.65    1.40
   0   8   3   39.83    1.31
   0   8   3   40.55    1.48
   0  -8  -3   41.09    1.56
   0   8  -3   42.58    1.50
   1   8  -3   39.04    1.45
  -1  -8  -3   38.37    1.42
  -1   8   3   35.93    1.38
  -1  -8  -3   39.17    1.53
  -1   8   3   37.25    1.32
   1   8  -3   37.67    1.46
   1  -8   3   37.76    1.45
   1   8   3   42.70    1.27
  -1   8  -3   39.13    1.52
  -1   8  -3   41.12    1.48
   1   8   3   41.72    1.52
   1  -8  -3   40.29    1.56
   1  -8  -3   41.92    1.39
  -1  -8   3   41.52    1.50
  -2   8   3    6.07    0.61
  -2  -8  -3    4.93    0.56
   2   8  -3    4.74    0.59
   2  -8   3    7.26    0.73
  -2   8   3    4.81    0.54
   2   8  -3    3.85    0.52
  -2  -8  -3    6.21    0.71
   2   8   3    5.06    0.61
   2   8   3    4.37    0.36
  -2   8  -3    4.35    0.51
  -2  -8   3    5.59    0.58
   2  -8  -3    4.64    0.58
   2  -8  -3    4.84    0.49
  -2   8  -3    4.82    0.62
  -3  -8  -3   67.48    2.15
  -3   8   3   69.39    2.16
   3   8  -3   67.07    2.16
   3  -8   3   63.77    2.22
   3   8  -3   68.60    2.25
  -3   8   3   69.51    2.04
   3   8  -3   67.92    1.92
  -3  -8   3   69.27    2.17
  -3   8  -3   68.36    2.05
   3  -8  -3   69.46    2.28
   3  -8  -3   67.71    2.07
  -3   8  -3   71.42    1.82
   3   8   3   70.03    1.79
   3   8   3   72.03    2.22
  -3   8  -3   69.62    2.28
   4   8  -3    1.92    0.37
   4   8  -3    2.12    0.45
  -4   8   3    3.41    0.45
   4  -8   3    1.82    0.44
  -4  -8  -3    2.93    0.50
   4   8  -3    2.59    0.50
  -4   8   3    2.23    0.47
   4   8   3    2.39    0.51
  -4  -8   3    3.14    0.48
   4  -8  -3    3.69    0.51
  -4   8  -3    2.20    0.50
  -4   8  -3    3.58    0.42
  -4   8  -3    3.12    0.42
   4   8   3    2.04    0.43
   4  -8  -3    3.38    0.55
  -5   8   3   26.84    1.06
  -5  -8  -3   26.50    1.33
   5   8  -3   24.00    1.19
   5  -8   3   25.52    1.03
   5   8  -3   25.62    1.25
   5   8  -3   27.47    1.32
  -5   8   3   26.71    1.35
   5  -8   3   25.90    1.37
   5   8   3   21.91    1.14
   5   8   3   21.84    1.33
   5  -8  -3   24.11    1.16
  -5   8  -3   24.11    1.05
  -5  -8   3   21.01    1.10
  -5   8  -3   19.69    1.22
   5  -8  -3   22.47    1.22
   6   8  -3   36.08    1.59
  -6  -8  -3   36.02    1.68
   6   8  -3   35.92    1.59
   6   8  -3   38.03    1.61
   6   8  -3   35.87    1.52
   6  -8   3   34.40    1.70
  -6   8   3   36.90    1.69
   6  -8  -3   37.59    1.69
  -6   8  -3   34.17    1.44
  -6   8  -3   33.38    1.65
   6   8   3   34.74    1.76
   6   8   3   35.26    1.51
   6  -8  -3   37.10    1.60
   7   8  -3    0.62    0.39
   7   8  -3    1.44    0.47
   7  -8   3    1.25    0.53
   7   8  -3    1.48    0.46
  -7   8   3    0.40    0.43
   7   8  -3    1.44    0.46
  -7  -8  -3    0.77    0.46
   7   8   3    1.52    0.55
  -7   8  -3    1.01    0.43
  -7   8  -3    0.61    0.44
   7  -8  -3    1.56    0.53
   7   8   3    0.89    0.41
   7  -8  -3    0.81    0.45
  -8  -8  -3    8.29    1.07
  -8   8   3    8.50    1.07
   8   8  -3   10.56    0.99
   8   8  -3    8.77    1.00
   8   8  -3    8.51    0.97
   8  -8   3   10.78    1.24
  -8   8  -3    9.03    1.08
   8   8   3   10.43    0.99
   8   8   3    8.68    1.12
   8  -8  -3   10.44    1.09
   8  -8  -3   12.75    1.23
  -8   8  -3   10.32    1.07
   9  -8   3   23.03    1.64
   9   8  -3   24.71    1.50
   9   8  -3   23.69    1.53
  -9   8   3   20.04    1.50
  -9  -8  -3   20.84    1.55
  -9   8  -3   19.02    1.46
   9  -8  -3   19.92    1.41
   9   8   3   18.43    1.54
   9  -8  -3   19.93    1.43
  -9  -8   3   21.98    1.28
 -10   8   3    1.31    0.66
  10   8  -3    2.13    0.70
 -10  -8  -3    1.41    0.67
  10  -8   3    2.61    0.81
  10   8   3    2.24    0.77
  10  -8  -3    1.69    0.72
  10  -8  -3    0.59    0.58
 -10   8  -3    2.33    0.74
  11  -8   3    1.22    0.78
 -11  -8  -3    3.94    0.92
 -11   8   3    0.83    0.61
  11  -8  -3    3.54    0.85
 -11   8  -3    3.75    0.93
  11  -8  -3    2.77    0.79
  11   8   3    2.80    0.89
  12  -8   3    0.40    0.77
 -12   8   3   -0.80    0.51
 -12  -8  -3   -0.41    0.57
 -12   8  -3    0.50    0.66
  12  -8  -3    0.54    0.70
  12  -8  -3    0.06    0.67
  12   8   3    0.58    0.78
   0   9  -3    6.11    0.67
   0  -9  -3    6.73    0.56
   0  -9  -3    6.56    0.76
   0   9   3    5.72    0.62
   0   9   3    6.87    0.55
   0   9  -3    7.18    0.74
   0  -9   3    5.63    0.62
  -1   9   3    8.91    0.66
  -1  -9  -3    9.40    0.69
   1   9  -3    9.01    0.72
   1  -9   3    8.45    0.71
   1   9  -3    8.27    0.69
  -1  -9  -3    7.30    0.75
  -1   9   3    7.84    0.66
  -1  -9   3    9.51    0.71
   1  -9  -3    9.53    0.64
   1   9   3    9.79    0.58
   1   9   3    9.86    0.75
   1  -9  -3    8.73    0.75
  -1   9  -3    9.45    0.71
  -1   9  -3    8.91    0.74
  -2  -9  -3   48.17    1.89
  -2   9   3   47.01    1.68
   2   9  -3   46.33    1.76
   2  -9   3   46.32    1.79
   2   9  -3   44.70    1.71
  -2   9   3   48.42    1.67
  -2  -9  -3   49.05    1.68
  -2   9  -3   48.78    1.71
   2  -9  -3   48.61    1.85
  -2  -9   3   50.86    1.78
  -2   9  -3   49.44    1.84
   2  -9  -3   50.51    1.61
   2   9   3   48.53    1.46
   2   9   3   50.47    1.82
   3   9  -3   10.28    0.79
   3   9  -3    9.57    0.80
  -3  -9  -3   10.10    0.86
  -3   9   3    9.48    0.79
  -3   9   3   10.22    0.72
   3  -9   3   10.42    0.85
  -3  -9  -3    9.79    0.74
  -3   9  -3    9.11    0.88
  -3  -9   3    8.42    0.69
  -3   9  -3    9.30    0.67
   3   9   3    7.89    0.77
   3  -9  -3    7.88    0.62
   3  -9  -3    8.58    0.83
   4   9  -3   20.84    1.18
   4   9  -3   19.62    1.11
   4  -9   3   20.96    1.23
  -4  -9  -3   20.95    1.11
  -4   9   3   20.10    0.99
  -4   9   3   20.05    1.17
   4   9   3   20.48    1.12
   4  -9  -3   21.40    1.03
  -4  -9   3   20.25    1.08
   4   9   3   21.26    1.28
  -4   9  -3   18.84    1.17
  -4   9  -3   19.21    0.95
   4  -9  -3   19.33    1.17
   5   9  -3   27.76    1.40
  -5   9   3   27.18    1.45
  -5   9   3   29.51    1.20
  -5  -9  -3   30.77    1.45
   5   9  -3   30.97    1.43
   5  -9   3   29.64    1.54
   5   9  -3   28.52    1.29
   5  -9  -3   30.31    1.50
   5   9   3   28.22    1.56
  -5  -9   3   26.78    1.31
   5   9   3   29.70    1.40
  -5   9  -3   27.00    1.46
   5  -9  -3   28.46    1.32
   6   9  -3   20.56    1.16
   6  -9   3   18.20    1.28
   6   9  -3   17.63    1.08
  -6  -9  -3   16.49    1.14
  -6   9   3   18.97    1.26
   6   9  -3   17.26    1.15
   6   9   3   16.82    1.10
   6   9   3   16.61    1.27
  -6   9  -3   18.23    1.27
   6  -9  -3   15.85    1.06
  -6  -9   3   15.33    1.04
   6  -9  -3   18.78    1.22
  -7   9   3   19.40    1.35
  -7  -9  -3   16.75    1.23
   7   9  -3   15.78    1.13
   7   9  -3   17.38    1.12
   7  -9   3   18.28    1.35
   7   9  -3   17.84    1.17
   7   9  -3   16.28    1.16
   7  -9  -3   13.84    1.08
  -7   9  -3   14.41    1.20
   7   9   3   13.15    1.02
   7   9   3   12.46    1.30
   7  -9  -3   15.11    1.16
   8   9  -3    3.56    0.66
   8  -9   3    3.78    0.82
  -8  -9  -3    4.57    0.84
  -8   9   3    4.46    0.86
   8   9  -3    3.64    0.73
   8   9  -3    3.78    0.72
   8   9  -3    4.27    0.69
   8   9   3    3.03    0.64
   8   9   3    2.65    0.69
   8  -9  -3    4.26    0.83
   8  -9  -3    3.69    0.72
  -8   9  -3    3.07    0.76
  -9  -9  -3   10.88    1.30
   9   9  -3   10.88    1.20
   9  -9   3   12.68    1.42
  -9   9   3   14.15    1.50
  -9  -9   3   11.04    1.06
   9  -9  -3    9.77    1.22
  -9   9  -3    9.90    1.25
   9   9   3    9.57    1.30
   9  -9  -3    8.15    1.06
  10  -9   3    1.99    0.84
 -10   9   3    4.64    0.99
 -10  -9  -3    4.03    0.92
  10  -9  -3    3.88    0.88
 -10   9  -3    3.20    0.85
  10  -9  -3    5.33    0.96
  10   9   3    2.69    0.82
 -11  -9  -3    3.89    0.99
 -11   9   3    2.62    0.86
  11  -9   3    4.87    1.07
  11   9   3    4.22    1.04
 -11  -9   3    6.05    1.15
  11  -9  -3    6.64    1.09
 -11   9  -3    6.20    1.12
  11  -9  -3    7.48    1.24
 -12  -9  -3   10.54    1.50
 -12   9   3    9.00    1.43
  12  -9   3    8.90    1.49
  12   9   3    5.94    1.27
  12  -9  -3    8.70    1.34
 -12   9  -3   11.25    1.51
 -12  -9   3   11.09    1.51
   0  10  -3   26.08    1.25
   0 -10  -3   25.06    1.08
   0 -10   3   25.29    1.26
   0  10  -3   25.30    1.22
   0  10   3   26.28    1.10
   0  10   3   24.31    1.21
   0 -10  -3   23.02    1.26
  -1  10   3    9.54    0.73
   1 -10   3    9.21    0.81
   1  10  -3   10.21    0.80
  -1 -10  -3    9.39    0.82
   1  10  -3   10.71    0.83
  -1 -10  -3    9.93    0.74
  -1  10   3   10.43    0.79
   1 -10  -3    7.73    0.59
  -1 -10   3    8.91    0.74
   1  10   3    9.10    0.61
  -1  10  -3    8.24    0.81
   1 -10  -3    8.47    0.88
  -1  10  -3    7.67    0.76
   1  10   3   10.13    0.92
   2  10  -3    9.23    0.77
  -2 -10  -3    8.44    0.95
  -2  10   3    7.34    0.76
  -2  10   3    8.73    0.82
   2 -10   3    7.19    0.78
  -2 -10  -3    8.69    0.70
   2  10  -3    8.41    0.86
   2 -10  -3    7.34    0.80
   2  10   3    7.49    0.55
  -2  10  -3    7.16    0.79
  -2 -10   3    6.94    0.73
  -2  10  -3    7.02    0.71
   2  10   3    6.28    0.72
   2 -10  -3    7.49    0.58
  -3 -10  -3   84.54    2.90
   3 -10   3   86.99    2.84
  -3  10   3   87.00    2.59
  -3  10   3   87.39    2.73
  -3 -10  -3   86.61    2.63
   3  10  -3   84.23    2.77
   3  10  -3   87.67    2.75
   3 -10  -3   85.50    2.82
  -3 -10   3   86.32    2.70
  -3  10  -3   88.85    2.60
   3  10   3   85.14    2.73
   3 -10  -3   87.32    2.49
  -3  10  -3   87.06    2.80
   4 -10   3    6.17    0.81
   4  10  -3    6.80    0.76
  -4 -10  -3    8.93    1.03
  -4 -10  -3    6.88    0.76
  -4  10   3    6.23    0.81
  -4  10   3    8.17    0.75
   4  10  -3    7.70    0.88
   4  10   3    6.14    0.75
  -4  10  -3    5.54    0.63
   4 -10  -3    7.51    0.88
   4 -10  -3    6.71    0.68
  -4  10  -3    8.22    0.94
  -4 -10   3    8.74    0.88
   5  10  -3    1.48    0.46
   5  10  -3    2.33    0.55
   5 -10   3    2.31    0.61
  -5  10   3    2.13    0.44
  -5 -10  -3    2.87    0.58
  -5  10   3    1.52    0.51
   5  10   3    2.79    0.64
  -5  10  -3    2.11    0.59
   5 -10  -3    3.88    0.69
  -5 -10   3    2.17    0.51
   5 -10  -3    2.92    0.54
   5  10   3    1.59    0.50
   6  10  -3   15.26    1.08
   6  10  -3   16.76    1.13
   6 -10   3   14.77    1.22
  -6 -10  -3   14.27    1.08
  -6  10   3   15.25    1.22
   6 -10  -3   17.35    1.13
   6  10   3   17.02    1.16
   6  10   3   16.07    1.28
  -6  10  -3   15.98    1.25
  -6 -10   3   17.87    1.13
   6 -10  -3   15.78    1.26
  -7  10   3    2.17    0.64
   7  10  -3    2.72    0.61
  -7 -10  -3    1.70    0.57
   7 -10   3    2.44    0.72
   7  10  -3    2.08    0.54
   7  10   3    2.07    0.58
   7 -10  -3    2.47    0.66
  -7  10  -3    1.94    0.66
   7 -10  -3    1.93    0.56
  -7 -10   3    2.71    0.61
   7  10   3    1.76    0.59
   8  10  -3    1.51    0.53
   8 -10   3    2.15    0.72
   8  10  -3    1.23    0.48
  -8  10   3    2.17    0.66
  -8 -10  -3    0.86    0.50
  -8  10  -3    1.42    0.62
   8  10   3    1.41    0.64
   8 -10  -3    1.09    0.62
   8  10   3    0.94    0.49
   9  10  -3   16.06    1.35
  -9  10   3   18.51    1.53
  -9 -10  -3   18.04    1.50
   9 -10   3   15.55    1.60
  -9 -10   3   18.79    1.43
  -9  10  -3   18.36    1.52
   9  10   3   21.97    1.70
   9 -10  -3   17.24    1.49
  10 -10   3    5.56    1.09
 -10  10   3    6.28    1.10
 -10 -10  -3    5.64    1.08
 -10 -10   3    6.08    1.05
  10 -10  -3    6.22    1.12
 -10  10  -3    6.38    1.08
  10  10   3    6.68    1.13
 -11  10   3    1.30    0.78
 -11 -10  -3    1.60    0.81
  11 -10   3    1.16    0.82
 -11  10  -3    1.81    0.81
  11  10   3    3.17    0.91
 -11 -10   3    4.23    1.07
  11 -10  -3    1.84    0.91
   0  11  -3   -0.18    0.28
   0 -11  -3   -0.02    0.32
   0  11   3    0.13    0.26
   0 -11   3    0.37    0.34
   0  11  -3   -0.01    0.28
   0  11   3   -0.05    0.29
  -1 -11  -3   46.79    1.84
  -1 -11  -3   46.09    1.93
  -1  11   3   47.18    1.72
   1  11  -3   45.57    1.83
   1  11  -3   49.87    1.89
   1 -11   3   44.09    1.84
  -1  11   3   42.07    1.75
  -1  11  -3   47.33    1.89
  -1 -11   3   49.95    1.90
   1  11   3   49.41    1.64
  -1  11  -3   48.61    1.85
   1  11   3   48.22    1.91
   1 -11  -3   47.56    1.96
   2 -11   3    8.99    0.93
   2  11  -3    9.81    0.97
  -2 -11  -3    9.99    0.79
  -2  11   3    9.92    0.82
  -2 -11  -3   11.51    1.14
   2  11  -3   11.38    0.90
  -2  11   3    8.22    0.85
  -2  11  -3   10.12    0.94
   2 -11  -3    8.36    0.92
  -2  11  -3    8.72    0.95
   2  11   3    7.94    0.84
  -2 -11   3    8.01    0.83
  -3  11   3    0.84    0.42
   3 -11   3    0.54    0.43
   3  11  -3    1.30    0.44
  -3 -11  -3    0.97    0.37
   3  11  -3    0.76    0.39
  -3 -11  -3    0.30    0.34
  -3  11   3    1.36    0.40
   3 -11  -3    0.79    0.43
  -3 -11   3    0.93    0.39
   3  11   3    0.74    0.45
  -3  11  -3    1.20    0.39
  -3  11  -3    0.70    0.42
  -4 -11  -3    6.26    0.87
   4 -11   3    5.62    0.83
  -4  11   3    6.26    0.72
   4  11  -3    6.21    0.81
   4  11  -3    5.20    0.77
  -4 -11  -3    7.28    0.80
  -4  11   3    8.24    0.93
  -4  11  -3    4.89    0.76
   4 -11  -3    5.78    0.81
   4  11   3    4.40    0.74
  -4  11  -3    4.82    0.64
  -4 -11   3    6.53    0.82
  -5 -11  -3   13.84    1.00
  -5  11   3   14.47    1.18
  -5 -11  -3   10.38    1.14
  -5  11   3   13.43    0.91
   5 -11   3   11.84    1.17
   5  11  -3   12.48    1.02
   5  11  -3   12.06    1.00
  -5  11  -3   13.43    1.27
   5  11   3   12.13    1.13
   5 -11  -3   12.64    1.23
  -5 -11   3   11.67    0.97
   6  11  -3    0.91    0.45
   6  11  -3    1.74    0.50
  -6 -11  -3    2.75    0.59
  -6  11   3    1.37    0.61
   6 -11   3    1.47    0.63
  -6 -11   3    2.69    0.57
   6  11   3    2.24    0.60
  -6  11  -3    1.23    0.58
   6 -11  -3    2.28    0.65
  -7 -11  -3    4.40    0.77
   7  11  -3    5.81    0.82
  -7  11   3    5.04    0.89
   7 -11   3    4.81    0.89
   7  11  -3    6.26    0.87
  -7  11  -3    3.61    0.77
   7  11   3    4.06    0.90
   7  11   3    4.73    0.81
  -7 -11   3    5.87    0.85
   7 -11  -3    5.49    0.93
  -8  11   3    6.23    1.06
   8 -11   3    5.91    1.03
   8  11  -3    5.65    0.84
  -8 -11  -3    4.81    0.88
   8  11   3    7.09    1.13
   8 -11  -3    7.39    1.08
   8  11   3    8.15    1.02
  -8 -11   3    6.27    0.90
  -8  11  -3    7.32    1.13
   9 -11   3    4.91    1.03
  -9 -11  -3    4.08    0.87
  -9  11   3    6.17    1.12
   9  11   3    5.02    1.03
   9 -11  -3    5.02    0.99
  -9 -11   3    3.59    0.79
  -9  11  -3    4.71    1.02
  10 -11   3    1.09    0.79
 -10 -11  -3    1.09    0.70
 -10  11   3    0.80    0.70
  10  11   3    0.58    0.65
 -10  11  -3    1.94    0.85
  10 -11  -3    0.43    0.68
 -11 -11  -3   10.22    1.44
  11 -11   3    8.82    1.49
 -11  11   3    9.12    1.42
 -11  11  -3    7.34    1.27
  11  11   3    7.12    1.34
  11 -11  -3    9.28    1.43
   0  12  -3    2.02    0.53
   0  12   3    2.19    0.46
   0 -12   3    1.15    0.50
   0  12   3    1.78    0.54
   0 -12  -3    1.31    0.50
   0  12  -3    1.94    0.51
   1 -12   3    1.00    0.46
  -1 -12  -3    1.06    0.46
  -1  12   3    2.42    0.56
  -1  12   3    1.28    0.42
   1  12  -3    1.74    0.49
   1  12  -3    1.05    0.43
   1  12   3    1.35    0.49
  -1  12  -3    0.77    0.42
  -1 -12   3    1.26    0.46
  -1  12  -3    1.89    0.52
   1 -12  -3    1.22    0.49
   2 -12   3   17.46    1.21
  -2  12   3   18.49    1.15
   2  12  -3   18.71    1.18
  -2  12   3   18.50    1.15
   2  12  -3   16.59    1.16
  -2 -12  -3   15.90    1.21
   2  12   3   17.33    1.18
  -2  12  -3   17.63    1.19
  -2 -12   3   17.95    1.15
  -2  12  -3   17.18    1.09
   2 -12  -3   17.13    1.22
  -3  12   3   11.11    1.09
   3  12  -3   10.10    0.99
   3  12  -3   13.70    1.24
   3 -12   3   10.46    1.06
  -3  12   3   10.78    0.99
  -3 -12  -3   11.48    1.17
  -3  12  -3   10.96    0.90
  -3  12  -3   11.19    1.13
   3  12   3   12.82    1.06
  -3 -12   3   11.36    0.95
   3 -12  -3   13.55    1.26
   4  12  -3   16.81    1.17
  -4  12   3   14.83    1.00
  -4 -12  -3   17.94    1.31
   4 -12   3   17.11    1.27
  -4  12   3   15.37    1.19
   4  12  -3   15.16    1.13
   4 -12  -3   16.76    1.26
   4  12   3   17.11    1.23
  -4  12  -3   15.65    1.18
  -4  12  -3   17.58    1.07
  -4 -12   3   15.97    1.14
  -5 -12  -3   17.86    1.33
  -5  12   3   16.26    1.29
   5  12  -3   16.20    1.18
   5 -12   3   14.85    1.41
   5  12  -3   15.65    1.16
   5  12   3   14.64    1.19
  -5 -12   3   15.33    1.13
  -5  12  -3   14.59    1.36
   5 -12  -3   15.50    1.29
   6 -12   3    4.99    0.93
  -6 -12  -3    5.59    0.97
   6  12  -3    4.48    0.78
  -6  12   3    4.21    0.89
   6  12  -3    2.83    0.70
   6 -12  -3    3.63    0.81
  -6  12  -3    4.92    0.91
   6  12   3    4.61    0.81
  -6 -12   3    4.47    0.77
   7 -12   3    5.37    0.97
  -7  12   3    4.50    0.96
   7  12  -3    7.03    0.96
   7 -12  -3    5.69    1.00
  -7  12  -3    6.01    1.02
  -7 -12   3    5.77    0.87
   7  12   3    4.52    0.81
   8  12  -3    3.42    0.78
   8 -12   3    6.50    1.13
  -8  12   3    3.62    0.90
  -8 -12   3    4.91    0.85
   8  12   3    4.96    0.87
   8  12   3    5.46    1.10
  -8  12  -3    4.87    0.99
   8 -12  -3    5.38    0.98
   9 -12   3    0.26    0.69
  -9  12   3    0.00    0.67
   9  12   3    0.19    0.62
  -9  12  -3    0.26    0.57
   9 -12  -3   -0.43    0.54
 -10  12   3   10.72    1.51
  10 -12   3   12.21    1.65
  10  12   3   11.32    1.50
 -10  12  -3   10.67    1.49
  10 -12  -3   10.76    1.47
   0  13  -3    0.41    0.38
   0  13   3   -0.25    0.35
   0  13  -3    0.52    0.40
   0 -13   3    0.39    0.40
   0 -13  -3    0.51    0.45
  -1  13   3    8.07    0.87
   1 -13   3    8.32    0.96
  -1 -13  -3   11.55    1.21
   1  13  -3    9.24    0.98
   1  13  -3    8.79    1.01
  -1  13   3    7.48    0.89
  -1  13  -3    7.20    0.90
   1  13   3    7.93    0.97
  -1  13  -3    8.81    0.95
   1 -13  -3    7.69    0.97
  -1 -13   3   10.70    1.09
  -2 -13  -3    0.50    0.45
  -2  13   3    0.03    0.35
   2  13  -3    0.10    0.37
  -2  13   3    0.81    0.42
   2 -13   3    0.77    0.48
   2  13  -3    0.14    0.38
  -2  13  -3    0.31    0.41
  -2  13  -3    0.39    0.39
   2 -13  -3    1.21    0.52
  -2 -13   3    0.31    0.41
   2  13   3   -0.14    0.37
  -3 -13  -3    5.90    0.91
  -3  13   3    5.40    0.78
   3  13  -3    6.09    0.88
   3 -13   3    5.43    0.85
  -3  13   3    6.59    0.89
   3  13  -3    5.65    0.85
  -3  13  -3    5.74    0.77
   3 -13  -3    4.46    0.79
  -3  13  -3    4.84    0.80
   3  13   3    6.99    0.97
  -3 -13   3    6.13    0.84
   4 -13   3    3.23    0.76
  -4 -13  -3    3.70    0.78
   4  13  -3    3.08    0.69
  -4  13   3    2.15    0.65
   4  13  -3    4.66    0.81
  -4  13   3    2.22    0.57
   4  13   3    2.51    0.72
   4 -13  -3    4.38    0.84
  -4 -13   3    3.04    0.64
  -4  13  -3    2.99    0.60
  -4  13  -3    3.11    0.70
  -5 -13  -3    3.59    0.82
  -5  13   3    4.99    0.91
   5  13  -3    3.82    0.76
   5 -13   3    3.59    0.80
   5  13  -3    3.88    0.74
  -5  13  -3    3.53    0.80
   5  13   3    4.07    0.78
   5 -13  -3    5.33    0.93
  -5 -13   3    3.59    0.73
   6 -13   3   13.70    1.46
  -6 -13  -3   12.17    1.43
   6  13  -3   10.73    1.18
  -6  13   3   11.95    1.33
  -6  13  -3   10.00    1.26
   6  13   3    8.44    1.09
   6 -13  -3   10.15    1.20
  -6 -13   3   10.82    1.16
  -7  13   3    8.11    1.17
  -7 -13  -3    8.30    1.25
   7  13  -3    6.80    1.00
   7 -13   3    5.98    1.04
  -7  13  -3    6.33    1.03
  -7 -13   3    8.12    1.06
   7 -13  -3    5.02    1.00
   7  13   3    4.20    0.83
   8 -13   3    3.38    0.95
  -8 -13  -3    3.70    0.92
  -8  13   3    4.09    0.96
   8  13  -3    3.44    0.80
   8  13   3    4.98    0.90
  -8  13  -3    5.06    1.04
   8 -13  -3    2.98    0.84
  -8 -13   3    5.21    0.95
  -9  13   3    5.31    1.18
   9  13  -3    4.07    0.84
   9 -13   3    6.75    1.22
  -9  13  -3    4.21    1.06
   9 -13  -3    4.65    1.07
  10 -13   3   -1.11    0.70
 -10  13   3    0.09    0.69
  10 -13  -3   -0.59    0.70
  10  13   3    0.11    0.65
 -10  13  -3    0.99    0.78
   0  14  -3    3.80    0.69
   0  14   3    6.03    0.88
   0  14  -3    5.69    0.85
   0 -14  -3    4.76    0.81
   0 -14   3    2.85    0.66
  -1 -14  -3    9.10    1.14
  -1  14   3    9.07    1.03
   1 -14   3   10.36    1.12
   1  14  -3    8.72    1.05
   1  14  -3    9.67    1.11
   1 -14  -3    9.76    1.12
   1  14   3    9.63    1.07
  -1 -14   3    8.97    1.01
  -1  14  -3    9.31    1.03
  -1  14  -3   10.47    1.10
  -2 -14  -3    9.04    1.11
   2  14  -3    8.50    1.05
   2  14  -3    9.38    1.07
  -2  14   3    9.07    1.02
  -2  14   3    9.18    0.99
   2 -14   3    9.94    1.14
  -2  14  -3    8.53    1.04
   2  14   3    8.32    1.07
   2 -14  -3    7.23    0.98
  -2  14  -3    9.16    1.03
  -2 -14   3    7.70    0.98
   3  14  -3   14.31    1.35
  -3 -14  -3   15.27    1.51
   3  14  -3   13.60    1.38
  -3  14   3   12.09    1.20
  -3  14   3   13.44    1.10
   3 -14   3   11.89    1.23
  -3  14  -3   11.20    1.21
  -3 -14   3   13.14    1.25
   3  14   3   11.96    1.27
   3 -14  -3   11.88    1.27
  -3  14  -3   11.91    1.15
  -4  14   3   13.22    1.32
   4  14  -3   12.10    1.24
  -4  14   3   13.35    1.07
   4 -14   3   11.07    1.22
   4  14  -3   11.19    1.17
  -4 -14  -3   14.29    1.48
  -4  14  -3   13.20    1.05
   4 -14  -3   12.73    1.34
   4  14   3   11.29    1.23
  -4 -14   3   11.02    1.15
  -4  14  -3   12.35    1.34
   5 -14   3    9.29    1.23
  -5  14   3    9.20    1.20
   5  14  -3    9.28    1.15
  -5 -14  -3    9.87    1.25
   5  14   3    7.97    1.11
   5 -14  -3    7.79    1.13
  -5 -14   3   10.02    1.14
  -5  14  -3    7.40    1.06
  -6  14   3    1.14    0.69
  -6 -14  -3    2.88    0.83
   6  14  -3    2.03    0.65
   6 -14   3    2.64    0.82
   6 -14  -3    1.23    0.68
   6  14   3    2.97    0.76
  -6  14  -3    1.11    0.68
  -6 -14   3    2.63    0.71
   7 -14   3    6.23    1.09
  -7  14   3    4.45    0.98
   7  14  -3    5.24    0.89
  -7 -14  -3    4.76    0.97
  -7  14  -3    6.26    1.16
   7 -14  -3    4.22    0.95
  -7 -14   3    6.51    1.00
   7  14   3    3.00    0.80
   8  14  -3    5.14    0.95
   8 -14   3    4.99    1.11
  -8 -14  -3    5.81    1.10
  -8  14   3    3.14    0.92
   8  14   3    5.07    0.94
  -8 -14   3    5.61    0.98
   8 -14  -3    5.29    1.07
  -8  14  -3    4.98    1.05
  -9  14   3    0.61    0.77
   9 -14   3    1.18    0.86
   9  14  -3    2.58    0.75
  -9 -14  -3    2.32    0.86
  -9  14  -3    1.91    0.89
   9 -14  -3    0.16    0.77
   0  15  -3   11.29    1.23
   0 -15   3    7.97    1.04
   0  15   3    8.28    1.02
   0 -15  -3    9.69    1.19
   0  15  -3   10.38    1.13
   1 -15   3    6.60    0.96
  -1 -15  -3    8.75    1.13
   1  15  -3    7.39    1.01
  -1  15   3    4.94    0.82
   1  15  -3    6.96    0.96
   1 -15  -3    5.98    1.00
   1  15   3    7.02    1.01
  -1  15  -3    7.28    0.99
  -1 -15   3    6.69    0.96
  -1  15  -3    6.66    0.95
  -2 -15  -3    5.91    0.99
   2  15  -3    5.09    0.87
   2 -15   3    7.75    1.08
   2  15  -3    7.45    1.01
  -2  15   3    5.86    0.87
  -2  15  -3    6.11    0.90
   2 -15  -3    5.47    0.91
   2  15   3    6.53    0.98
  -2  15  -3    6.79    1.00
  -2 -15   3    6.31    0.93
  -3  15   3    4.57    0.81
  -3 -15  -3    4.93    0.98
   3 -15   3    4.87    0.91
   3  15  -3    5.13    0.93
  -3  15   3    4.11    0.81
   3  15  -3    5.08    0.91
  -3  15  -3    5.93    0.87
  -3 -15   3    5.90    0.93
   3  15   3    4.79    0.92
   3 -15  -3    5.90    1.04
  -3  15  -3    5.69    0.94
  -4 -15  -3    2.59    0.79
   4 -15   3    1.73    0.72
  -4  15   3    1.48    0.60
  -4  15   3    0.97    0.65
   4  15  -3    1.43    0.61
   4  15   3    0.65    0.58
  -4  15  -3    1.67    0.58
  -4 -15   3    2.87    0.74
   4 -15  -3    2.05    0.73
  -4  15  -3    1.23    0.60
  -5  15   3    0.53    0.61
  -5 -15  -3    1.33    0.68
   5  15  -3    0.43    0.50
   5 -15   3    0.34    0.63
  -5  15  -3    1.37    0.69
   5 -15  -3    0.44    0.61
   5  15   3    0.36    0.58
  -5 -15   3    0.85    0.56
   6  15  -3   17.57    1.45
  -6 -15  -3   16.98    1.71
   6 -15   3   18.26    1.75
  -6  15   3   15.00    1.56
   6  15   3   18.39    1.54
  -6 -15   3   15.54    1.38
   6 -15  -3   18.41    1.62
  -6  15  -3   17.56    1.67
  -7 -15  -3    0.03    0.59
   7 -15   3    1.33    0.76
   7  15  -3    0.31    0.53
  -7  15   3    0.32    0.69
   7 -15  -3    0.25    0.62
  -7 -15   3   -0.16    0.50
   7  15   3    0.32    0.60
  -7  15  -3    0.34    0.67
   8  15  -3    2.70    0.78
  -8 -15  -3    3.83    0.93
   8 -15   3    3.44    1.10
  -8  15   3    3.72    1.01
   8  15   3    3.80    0.90
  -8  15  -3    4.03    1.07
   8 -15  -3    4.78    1.09
   0 -16  -3    0.47    0.56
   0  16  -3   -0.05    0.46
   0 -16   3    0.89    0.55
   0  16   3    0.66    0.58
   0  16  -3    0.18    0.51
   1  16  -3    8.34    1.12
   1  16  -3   12.10    1.35
  -1 -16  -3   12.10    1.43
  -1  16   3   10.77    1.23
   1 -16   3   10.91    1.26
  -1  16  -3   10.80    1.25
   1 -16  -3   11.05    1.32
  -1 -16   3   12.62    1.34
  -1  16  -3    9.76    1.20
   1  16   3   10.32    1.24
  -2 -16  -3   10.57    1.36
   2  16  -3    8.79    1.13
  -2  16   3   10.32    1.18
   2  16  -3   11.25    1.32
   2 -16   3   11.23    1.32
  -2  16  -3    9.05    1.13
   2 -16  -3   10.07    1.24
  -2 -16   3    8.86    1.12
  -2  16  -3    8.04    1.11
   2  16   3   10.86    1.27
  -3 -16  -3    6.24    1.10
   3  16  -3    4.06    0.85
  -3  16   3    4.94    0.85
   3 -16   3    1.74    0.72
  -3 -16   3    3.86    0.82
   3 -16  -3    5.03    0.97
   3  16   3    2.18    0.74
  -3  16  -3    4.52    0.84
  -3  16  -3    3.92    0.83
   4  16  -3    3.19    0.81
   4 -16   3    4.43    1.01
  -4 -16  -3    3.75    0.97
  -4  16   3    3.79    0.87
  -4 -16   3    3.47    0.78
  -4  16  -3    3.25    0.82
   4 -16  -3    2.76    0.88
   4  16   3    2.97    0.84
  -5  16   3    4.23    0.94
   5 -16   3    4.34    1.04
   5  16  -3    3.04    0.82
  -5 -16  -3    6.90    1.17
   5 -16  -3    4.81    1.03
  -5  16  -3    1.89    0.76
   5  16   3    4.14    0.93
  -5 -16   3    4.27    0.92
   6 -16   3    5.57    1.18
  -6 -16  -3    5.78    1.09
   6  16  -3    4.90    0.92
  -6  16   3    6.29    1.12
   6  16   3    6.55    1.13
   6 -16  -3    7.15    1.24
  -6  16  -3    4.25    1.02
  -6 -16   3    7.30    1.10
  -7  16   3    1.57    0.90
   7 -16   3    2.57    0.93
   7  16  -3    2.02    0.76
  -7 -16  -3    1.86    0.82
  -7 -16   3    3.76    0.88
   7 -16  -3    2.21    0.92
   7  16   3    2.53    0.87
  -7  16  -3    2.79    0.95
   0  17   3    5.20    0.96
   0  17  -3    6.80    1.04
   0 -17  -3    6.71    1.13
   0  17  -3    6.35    1.00
   0 -17   3    7.68    1.11
   1  17  -3    4.73    0.94
  -1 -17  -3    3.00    0.88
  -1  17   3    5.58    0.95
   1  17  -3    3.99    0.85
   1 -17   3    4.09    0.91
  -1  17  -3    2.33    0.75
  -1 -17   3    3.52    0.84
  -1  17  -3    4.09    0.85
   1  17   3    4.31    0.90
   1 -17  -3    3.66    0.92
  -2  17   3    1.99    0.71
   2 -17   3    1.20    0.68
   2  17  -3    1.95    0.72
  -2 -17  -3    2.74    0.87
  -2  17  -3    2.31    0.71
  -2 -17   3    2.75    0.82
   2  17   3    2.67    0.79
   2 -17  -3    3.28    0.89
  -2  17  -3    3.04    0.76
   3 -17   3    7.35    1.18
   3  17  -3    6.94    1.09
  -3 -17  -3    6.49    1.16
  -3  17   3    6.14    1.00
  -3  17  -3    5.06    0.97
   3  17   3    4.21    0.91
   3 -17  -3    6.57    1.21
  -3  17  -3    5.07    0.91
  -3 -17   3    3.69    0.84
  -4 -17  -3    1.85    0.81
   4 -17   3    1.48    0.80
   4  17  -3    1.83    0.73
   4 -17  -3    2.22    0.87
   4  17   3    1.22    0.69
  -4 -17   3    2.33    0.80
  -4  17  -3    1.83    0.77
   5 -17   3    2.68    0.97
  -5  17   3    1.15    0.76
  -5 -17  -3    1.94    0.83
   5  17  -3    0.27    0.53
   5  17   3    1.53    0.78
   5 -17  -3    1.19    0.79
  -5  17  -3    0.66    0.67
  -5 -17   3    1.40    0.72
  -6  17   3    3.62    0.99
   6 -17   3    5.03    1.14
  -6 -17  -3    8.24    1.36
   6  17  -3    5.72    1.04
   6  17   3    6.18    1.09
   6 -17  -3    4.27    1.13
  -6  17  -3    2.89    0.89
  -6 -17   3    5.30    1.00
   0  18  -3    2.69    0.79
   0 -18   3    3.01    0.84
   0  18   3    3.05    0.81
   0  18  -3    3.03    0.83
   0 -18  -3    2.48    0.88
  -1 -18  -3    9.80    1.37
  -1  18   3    5.47    1.02
   1 -18   3    6.25    1.08
   1  18  -3    7.72    1.15
  -1 -18   3    7.04    1.11
  -1  18  -3    6.05    1.02
   1  18   3    6.57    1.11
   1 -18  -3    7.55    1.26
  -1  18  -3    8.19    1.18
   2  18  -3    7.51    1.18
  -2  18   3    5.46    1.00
   2 -18   3    6.89    1.18
  -2 -18  -3    8.00    1.29
  -2  18  -3    5.43    1.01
  -2 -18   3    6.48    1.10
  -2  18  -3    5.94    1.02
   2 -18  -3    7.05    1.25
   2  18   3    6.94    1.20
   3  18  -3    1.09    0.66
  -3  18   3    0.89    0.62
   3 -18   3    0.31    0.72
  -3 -18  -3    1.20    0.73
   3 -18  -3    2.10    0.83
  -3  18  -3    1.33    0.67
  -3  18  -3    0.99    0.67
   3  18   3    1.02    0.71
  -3 -18   3    1.03    0.68
   4 -18   3    4.90    1.11
  -4 -18  -3    6.66    1.27
   4  18  -3    5.82    1.13
  -4  18  -3    5.09    1.04
   4  18   3    4.73    1.02
  -4 -18   3    5.61    1.05
   4 -18  -3    5.38    1.20
   5 -18   3    2.04    0.92
   5  18  -3    4.64    1.00
  -5 -18  -3    2.93    0.98
  -5 -18   3    2.65    0.87
   5  18   3    2.58    0.90
   5 -18  -3    2.69    0.91
  -5  18  -3    3.42    1.00
   0  19  -3    0.32    0.61
   0 -19   3   -0.34    0.62
   0  19   3   -0.10    0.58
   0 -19  -3    0.25    0.77
   1  19  -3    3.18    0.91
   1 -19   3    5.34    1.03
  -1 -19  -3    3.90    1.05
  -1  19   3    3.85    0.94
  -1 -19   3    3.76    0.94
  -1  19  -3    4.95    0.99
   1  19   3    2.75    0.85
   1 -19  -3    5.01    1.18
  -1  19  -3    1.84    0.77
  -2  19   3    6.55    1.09
   2 -19   3    6.02    1.15
   2  19  -3    7.65    1.24
  -2 -19  -3    6.20    1.17
  -2  19  -3    5.58    1.06
  -2 -19   3    8.18    1.24
   2  19   3    6.54    1.22
  -2  19  -3    7.57    1.21
   2 -19  -3    7.11    1.26
   0   0  -4    3.45    0.39
   0   0   4    3.90    0.24
   0   0  -4    3.48    0.32
   0   0   4    4.87    0.39
  -1   0  -4  282.10    5.96
  -1   0  -4  262.64    6.39
   1   0  -4  286.84    6.41
  -1   0   4  279.75    6.26
   1   0   4  289.50    6.27
   1   0  -4  283.98    6.11
   1   0   4  295.92    6.37
  -2   0  -4    7.80    0.38
   2   0   4    7.96    0.46
   2   0  -4    7.88    0.48
  -2   0  -4    8.88    0.54
  -2   0   4    8.61    0.48
   2   0  -4    8.93    0.53
   2   0  -4    8.67    0.28
   2   0   4    8.66    0.50
   3   0  -4  156.14    4.03
  -3   0  -4  165.78    3.70
  -3   0   4  168.79    3.84
   3   0   4  164.88    4.12
   3   0  -4  160.84    3.76
  -3   0  -4  163.08    4.08
   3   0   4  174.75    3.83
   4   0   4    5.06    0.55
  -4   0   4    7.33    0.52
  -4   0  -4    7.40    0.61
  -4   0  -4    6.09    0.43
   4   0  -4    6.86    0.58
  -4   0   4    5.82    0.43
   4   0   4    6.88    0.43
   4   0  -4    6.27    0.41
   5   0  -4    1.19    0.35
   5   0   4    1.10    0.22
   5   0   4    1.23    0.36
  -5   0  -4    1.42    0.28
   5   0  -4    0.96    0.25
  -5   0   4    1.27    0.32
  -5   0  -4    1.00    0.35
  -5   0   4    1.49    0.27
   6   0   4   45.70    1.84
  -6   0  -4   44.83    1.79
  -6   0  -4   45.81    1.50
  -6   0   4   43.54    1.60
   6   0   4   43.67    1.25
  -6   0   4   46.39    1.39
   6   0  -4   43.04    1.56
   6   0  -4   43.57    1.76
   7   0  -4   25.54    1.23
  -7   0  -4   26.66    1.15
  -7   0   4   24.97    1.23
   7   0  -4   26.72    1.39
   7   0   4   25.46    1.44
  -7   0  -4   25.37    1.38
  -8   0   4    0.15    0.31
   8   0  -4    0.41    0.41
   8   0  -4    0.69    0.38
  -8   0  -4    0.47    0.47
  -8   0  -4    0.05    0.28
   8   0   4   -0.44    0.38
   9   0  -4   32.95    1.78
   9   0   4   31.90    1.84
   9   0  -4   30.36    1.58
  -9   0   4   31.64    1.56
  -9   0  -4   30.96    1.77
  -9   0  -4   29.96    1.44
  10   0  -4    2.00    0.68
 -10   0  -4    3.67    0.84
  10   0  -4    2.24    0.63
  10   0   4    2.76    0.79
 -10   0  -4    3.55    0.67
 -10   0   4    1.86    0.56
  11   0  -4    2.32    0.73
  11   0   4    0.47    0.60
 -11   0   4    0.97    0.50
 -11   0  -4    1.86    0.77
 -12   0  -4   11.71    1.50
  12   0   4    8.88    1.36
  12   0  -4   11.90    1.51
 -12   0   4   11.21    1.28
  13   0   4   -0.24    0.69
 -13   0  -4    1.04    0.84
  13   0  -4    0.57    0.65
 -13   0   4    0.78    0.60
   0   1   4    3.58    0.26
   0  -1   4    3.66    0.36
   0  -1  -4    2.79    0.36
   0   1  -4    4.09    0.35
   0   1  -4    3.82    0.36
   0  -1  -4    4.39    0.29
   0  -1   4    4.13    0.23
   0   1   4    3.55    0.37
  -1  -1  -4  249.38    5.06
   1  -1   4  236.10    5.35
  -1  -1  -4  238.69    5.56
   1   1  -4  247.82    5.49
  -1   1   4  234.46    5.38
   1   1  -4  226.14    5.30
   1  -1   4  247.91    5.43
  -1  -1   4  250.08    5.48
  -1   1  -4  247.46    5.61
   1  -1  -4  252.08    5.37
   1   1   4  242.28    5.60
   1  -1  -4  245.40    5.30
  -1   1  -4  231.38    5.26
   1   1   4  245.98    5.49
   1  -1  -4  248.51    5.67
   2   1  -4   65.18    1.50
  -2   1   4   63.65    1.77
  -2  -1  -4   67.64    1.55
  -2   1   4   67.43    1.75
   2   1  -4   65.55    1.84
  -2  -1  -4   67.18    1.92
   2   1  -4   64.36    1.82
   2  -1   4   64.83    1.82
   2  -1   4   68.99    1.78
  -2  -1   4   67.22    1.83
   2   1   4   71.49    1.97
  -2   1  -4   70.01    1.94
   2  -1  -4   70.68    1.66
  -2   1  -4   69.06    1.77
   2  -1  -4   68.76    1.96
   2   1   4   71.71    1.86
   3  -1   4   25.39    0.89
   3  -1   4   25.35    1.02
   3   1  -4   27.95    0.81
   3   1  -4   26.66    1.02
  -3   1   4   25.59    0.93
  -3   1   4   25.27    0.95
  -3  -1  -4   28.09    0.81
  -3  -1  -4   25.02    1.06
   3   1  -4   25.95    1.03
   3  -1  -4   27.85    1.08
   3   1   4   25.90    1.08
   3   1   4   27.55    0.92
  -3   1  -4   27.36    0.94
  -3  -1   4   26.61    0.93
  -3   1  -4   25.01    1.03
   3  -1  -4   28.73    0.85
   4  -1   4  106.38    2.93
  -4   1   4  102.37    2.61
  -4   1   4  103.28    2.72
   4   1  -4  103.27    2.88
   4   1  -4  105.08    2.63
  -4  -1  -4  106.64    2.49
  -4  -1  -4  106.95    2.96
   4  -1   4  102.56    2.52
  -4   1  -4  109.57    3.02
   4   1   4  111.24    3.12
   4  -1  -4  108.86    2.76
   4  -1  -4  112.85    3.05
  -4   1  -4  109.24    2.75
  -4  -1   4  111.05    2.74
   4   1   4  113.27    2.69
   5   1  -4   68.46    2.24
   5  -1   4   70.52    1.78
   5   1  -4   71.75    2.02
  -5   1   4   70.52    2.09
  -5   1   4   68.27    1.88
  -5  -1  -4   66.98    2.25
  -5  -1  -4   68.91    1.86
   5  -1  -4   70.90    2.24
  -5  -1   4   67.31    1.87
   5  -1  -4   68.79    2.00
  -5   1  -4   66.90    2.22
  -5   1  -4   70.21    1.99
   5   1   4   69.49    1.82
   5   1   4   70.83    2.32
  -5  -1   4   68.57    2.07
  -6  -1  -4    4.67    0.48
  -6  -1  -4    3.70    0.59
   6   1  -4    4.06    0.52
   6   1  -4    4.63    0.62
   6  -1   4    4.99    0.35
   6  -1   4    5.29    0.70
  -6   1   4    4.55    0.44
  -6   1   4    5.08    0.61
  -6   1  -4    3.58    0.48
  -6  -1   4    5.04    0.47
   6  -1  -4    5.37    0.69
   6  -1  -4    4.58    0.53
   6   1   4    4.54    0.39
  -6   1  -4    4.28    0.63
   6   1   4    5.68    0.76
  -6  -1   4    5.10    0.61
  -7  -1  -4   27.39    1.44
   7   1  -4   26.95    1.26
  -7  -1  -4   28.13    1.14
  -7   1   4   24.56    1.22
   7   1  -4   26.54    1.40
   7  -1   4   24.53    1.40
  -7   1  -4   27.53    1.46
  -7  -1   4   27.22    1.02
   7  -1  -4   26.19    1.24
   7   1   4   29.49    1.55
  -7   1  -4   30.10    1.27
   7  -1  -4   25.85    1.40
  -7  -1   4   28.35    1.29
   8  -1   4   34.97    1.81
   8   1  -4   35.14    1.75
  -8  -1  -4   37.89    1.83
  -8  -1  -4   36.83    1.44
  -8   1   4   35.49    1.59
   8   1  -4   33.55    1.56
   8  -1  -4   32.84    1.53
   8  -1  -4   33.76    1.70
  -8  -1   4   31.69    1.48
   8   1   4   29.66    1.70
  -8   1  -4   33.36    1.71
  -8   1  -4   32.61    1.43
   9  -1   4    9.92    1.20
   9   1  -4    7.21    0.91
   9   1  -4    9.74    1.12
  -9   1   4    7.98    0.90
  -9  -1  -4    8.94    0.86
  -9  -1  -4    9.87    1.16
  -9   1  -4    8.63    1.06
   9  -1  -4    7.36    1.00
   9  -1  -4    7.97    0.95
  -9  -1   4    8.20    0.90
  -9   1  -4   10.34    0.97
   9   1   4   10.22    1.20
  10   1  -4    8.06    1.09
 -10  -1  -4    8.20    1.10
  10  -1   4    7.56    1.10
 -10   1   4    8.48    0.98
  10  -1  -4    8.66    1.06
  10  -1  -4    9.04    1.17
 -10   1  -4   11.55    1.30
  10   1   4    8.65    1.19
 -10  -1   4   10.05    1.07
 -10   1  -4   11.94    1.12
  11   1  -4   11.55    1.42
 -11  -1  -4   10.27    1.33
 -11   1   4   10.10    1.16
  11  -1   4    9.41    1.32
  11   1   4    8.75    1.22
  11  -1  -4    8.98    1.23
 -11   1  -4    9.98    1.32
 -11   1  -4   10.60    1.16
 -11  -1   4    9.49    1.12
  12   1  -4    0.21    0.59
 -12   1   4    0.57    0.56
 -12  -1  -4   -0.15    0.58
  12  -1   4    0.98    0.69
 -12  -1   4    0.42    0.50
  12  -1  -4    0.54    0.69
 -12   1  -4    1.08    0.68
  12   1   4    0.50    0.70
 -13  -1  -4    5.11    1.12
 -13   1   4    6.20    1.09
  13   1  -4    5.53    1.17
  13  -1   4    3.62    1.08
  13  -1  -4    5.36    1.17
  13   1   4    5.26    1.19
 -13  -1   4    6.62    1.06
 -13   1  -4    7.03    1.33
   0   2  -4   26.96    0.94
   0   2  -4   28.12    0.94
   0  -2   4   28.57    0.81
   0  -2  -4   27.33    1.05
   0   2   4   28.48    0.88
   0   2   4   28.40    0.97
   0  -2   4   28.29    0.94
   1   2  -4   52.55    1.45
  -1   2   4   49.73    1.33
  -1   2   4   48.99    1.46
   1   2  -4   51.47    1.53
  -1  -2  -4   51.53    1.58
   1  -2   4   51.49    1.44
  -1  -2  -4   52.08    1.18
   1  -2   4   51.67    1.40
  -1   2  -4   61.93    1.70
   1   2   4   64.37    1.71
  -1   2  -4   61.94    1.65
   1  -2  -4   56.77    1.77
   1   2   4   61.83    1.73
  -1  -2   4   64.78    1.70
   1  -2  -4   60.78    1.56
  -1  -2   4   64.01    1.47
   2  -2   4   27.10    0.97
   2  -2   4   29.19    0.94
  -2   2   4   27.79    0.95
   2   2  -4   29.02    0.99
  -2  -2  -4   29.72    1.10
  -2  -2  -4   28.12    0.69
   2   2  -4   26.68    1.04
  -2   2   4   26.91    0.92
  -2   2  -4   27.11    0.93
   2   2   4   26.69    1.03
  -2  -2   4   26.74    0.93
  -2  -2   4   27.07    0.73
   2  -2  -4   26.97    0.81
   2   2   4   28.22    0.94
   2  -2  -4   24.94    0.99
  -2   2  -4   25.54    0.95
  -3   2   4  132.49    3.18
   3   2  -4  128.18    3.32
   3   2  -4  133.33    3.11
   3   2  -4  133.06    3.37
   3  -2   4  133.76    3.41
  -3   2   4  136.47    3.23
  -3  -2  -4  135.88    2.90
   3  -2   4  133.46    3.16
  -3  -2  -4  135.51    3.49
   3  -2  -4  139.80    3.22
   3   2   4  137.71    3.24
  -3  -2   4  129.83    3.23
   3   2   4  135.88    3.57
  -3   2  -4  134.84    3.41
  -3   2  -4  135.77    3.25
   3  -2  -4  133.79    3.46
   4   2  -4   18.22    0.91
   4  -2   4   18.92    0.73
  -4   2   4   17.71    0.84
  -4  -2  -4   18.01    0.96
   4  -2   4   17.56    0.91
  -4   2   4   18.31    0.74
  -4  -2  -4   19.10    0.66
   4   2  -4   19.86    0.76
   4   2  -4   19.43    0.92
   4   2   4   16.00    0.69
  -4   2  -4   15.51    0.82
   4  -2  -4   13.99    0.66
  -4  -2   4   15.23    0.69
  -4   2  -4   15.09    0.75
   4   2   4   16.00    0.91
   4  -2  -4   12.79    0.79
   5   2  -4   50.55    1.84
   5   2  -4   54.42    1.66
   5  -2   4   53.17    1.89
  -5   2   4   54.70    1.51
  -5  -2  -4   54.28    1.93
  -5  -2  -4   54.56    1.49
   5  -2   4   54.53    1.45
  -5   2   4   49.73    1.71
  -5  -2   4   52.76    1.56
   5   2   4   51.16    1.93
   5   2   4   54.47    1.53
   5  -2  -4   51.94    1.65
   5  -2  -4   52.81    1.87
  -5   2  -4   53.14    1.70
  -5   2  -4   54.24    1.86
  -6  -2  -4   30.44    1.46
   6  -2   4   30.36    1.41
  -6   2   4   29.21    1.27
  -6  -2  -4   29.03    1.05
   6  -2   4   30.15    0.93
  -6   2   4   30.50    0.99
   6   2  -4   30.25    1.24
   6   2  -4   26.99    1.34
   6  -2  -4   30.94    1.24
  -6  -2   4   29.97    1.07
  -6   2  -4   31.13    1.26
   6   2   4   30.27    1.04
  -6  -2   4   29.54    1.27
   6  -2  -4   26.86    1.37
  -6   2  -4   29.18    1.39
   6   2   4   30.48    1.49
  -7  -2  -4   42.10    1.87
   7   2  -4   45.68    1.70
   7  -2   4   40.53    1.84
  -7   2   4   41.99    1.67
  -7  -2  -4   42.23    1.44
   7   2  -4   44.09    1.86
   7   2   4   45.55    1.98
   7  -2  -4   43.49    1.68
  -7  -2   4   46.44    1.72
  -7   2  -4   42.29    1.84
  -7  -2   4   44.35    1.42
  -7   2  -4   44.20    1.67
   7  -2  -4   44.72    1.88
  -8  -2  -4    4.30    0.73
   8   2  -4    4.12    0.71
   8  -2   4    4.75    0.77
   8   2  -4    3.80    0.65
  -8  -2  -4    6.62    0.66
  -8   2   4    6.46    0.78
   8   2   4    4.08    0.75
   8  -2  -4    4.16    0.71
  -8   2  -4    4.61    0.76
   8  -2  -4    5.19    0.73
  -8  -2   4    6.22    0.78
  -8   2  -4    5.33    0.72
   9   2  -4   35.43    1.72
  -9   2   4   35.17    1.67
   9  -2   4   32.98    1.88
  -9  -2  -4   34.81    1.89
   9   2  -4   33.26    1.82
   9   2   4   34.31    1.95
   9  -2  -4   35.55    1.72
  -9   2  -4   37.76    1.69
   9  -2  -4   35.16    1.87
  -9   2  -4   37.45    1.92
  -9  -2   4   35.96    1.66
 -10  -2  -4    3.44    0.79
 -10   2   4    2.81    0.66
  10  -2   4    2.06    0.71
  10   2  -4    3.03    0.76
  10   2   4    2.05    0.70
 -10   2  -4    2.35    0.60
 -10  -2   4    3.02    0.67
  10  -2  -4    2.92    0.76
 -10   2  -4    3.87    0.84
  10  -2  -4    2.07    0.62
 -11  -2  -4   12.56    1.43
 -11   2   4   12.42    1.26
  11   2  -4   12.59    1.41
  11  -2   4   10.17    1.37
 -11   2  -4   11.94    1.40
 -11   2  -4   12.17    1.21
 -11  -2   4   11.33    1.17
  11   2   4   15.64    1.74
  11  -2  -4   14.17    1.53
  12  -2   4    7.71    1.29
  12   2  -4    5.22    1.01
 -12  -2  -4    7.46    1.32
 -12   2   4    6.14    0.99
 -12  -2   4    6.04    0.95
 -12   2  -4    7.88    1.30
  12   2   4    8.51    1.37
  12  -2  -4    7.37    1.21
  13  -2   4    2.37    0.98
  13   2  -4    2.90    1.00
 -13  -2  -4    3.33    1.06
 -13   2   4    2.90    0.80
 -13   2  -4    3.32    1.00
  13   2   4    1.73    0.86
 -13  -2   4    3.01    0.80
  13  -2  -4    2.80    0.94
   0  -3   4    4.46    0.30
   0  -3  -4    4.94    0.37
   0   3   4    5.02    0.27
   0  -3  -4    4.23    0.46
   0   3   4    5.77    0.41
   0   3  -4    4.70    0.39
   0  -3   4    4.15    0.36
   0   3  -4    4.73    0.33
   1  -3   4   77.58    2.01
   1  -3   4   80.21    2.02
   1   3  -4   78.20    1.99
  -1   3   4   79.08    1.90
   1   3  -4   77.33    2.12
  -1   3   4   80.04    2.05
  -1  -3  -4   71.83    2.15
   1   3   4   87.68    1.78
   1   3   4   81.98    2.25
  -1  -3   4   84.14    2.03
  -1   3  -4   83.51    2.13
   1   3   4   81.88    2.17
  -1  -3   4   83.01    2.17
  -1   3  -4   83.93    2.17
   1  -3  -4   84.18    2.31
   1  -3  -4   85.35    2.13
   2   3  -4   14.96    0.78
   2  -3   4   16.25    0.67
   2   3  -4   16.64    0.70
  -2  -3  -4   16.45    0.80
   2  -3   4   16.88    0.73
  -2   3   4   17.12    0.69
  -2   3   4   16.20    0.69
  -2   3  -4   22.34    0.88
  -2  -3   4   22.25    0.85
   2  -3  -4   22.86    0.78
  -2   3  -4   22.10    0.83
  -2  -3   4   21.89    0.70
   2   3   4   22.53    0.95
   2   3   4   21.24    0.84
   2  -3  -4   21.23    0.91
   3  -3   4   38.99    1.20
  -3  -3  -4   41.67    1.46
  -3  -3  -4   42.76    0.95
  -3   3   4   38.63    1.29
   3   3  -4   39.63    1.34
  -3   3   4   39.57    1.23
   3  -3   4   41.56    1.40
   3   3  -4   41.49    1.44
   3   3  -4   38.16    1.15
  -3   3  -4   41.08    1.35
  -3  -3   4   39.49    1.28
   3   3   4   40.37    1.28
   3  -3  -4   39.91    1.23
  -3   3  -4   38.83    1.31
   3  -3  -4   38.45    1.39
   3   3   4   42.76    1.51
   4  -3   4   73.64    1.95
  -4  -3  -4   74.47    2.34
   4   3  -4   79.48    2.06
  -4  -3  -4   76.49    1.78
   4   3  -4   75.97    2.26
   4  -3   4   76.83    2.30
  -4   3   4   75.06    2.15
   4   3  -4   74.58    2.23
  -4   3   4   76.23    1.98
   4  -3  -4   78.96    2.34
   4  -3  -4   75.75    2.10
   4   3   4   78.13    2.44
   4   3   4   75.37    2.05
  -4   3  -4   76.21    2.19
  -4  -3   4   75.28    2.08
  -4   3  -4   78.29    2.26
  -5  -3  -4   23.06    1.19
   5  -3   4   22.67    0.83
   5  -3   4   22.75    1.14
  -5   3   4   22.34    1.04
   5   3  -4   23.18    0.96
  -5   3   4   24.30    0.85
   5   3  -4   21.74    1.08
  -5  -3  -4   24.22    0.79
   5   3  -4   22.50    1.11
   5  -3  -4   21.53    1.10
  -5   3  -4   22.12    1.01
   5  -3  -4   19.75    0.90
   5   3   4   18.60    0.82
  -5  -3   4   20.35    0.86
  -5   3  -4   18.48    0.98
   5   3   4   20.26    1.14
  -6   3   4   56.98    1.54
   6  -3   4   58.08    2.10
  -6  -3  -4   56.28    1.59
  -6  -3  -4   57.58    2.14
  -6   3   4   53.23    1.87
   6   3  -4   56.29    1.85
   6   3  -4   55.18    2.03
   6  -3  -4   56.90    1.90
  -6   3  -4   58.00    1.97
   6  -3  -4   54.71    2.08
   6   3   4   59.53    1.72
  -6   3  -4   59.91    2.10
   6   3   4   58.10    2.23
  -6  -3   4   58.73    1.96
  -6  -3   4   58.78    1.74
   7   3  -4   38.90    1.74
  -7  -3  -4   38.35    1.80
  -7  -3  -4   40.18    1.33
   7  -3   4   36.62    1.74
  -7   3   4   39.19    1.62
   7   3  -4   41.96    1.62
  -7   3  -4   39.58    1.59
  -7   3  -4   36.90    1.67
  -7  -3   4   37.34    1.31
   7   3   4   37.03    1.81
   7  -3  -4   38.55    1.72
  -7  -3   4   37.36    1.54
   7  -3  -4   33.59    1.48
   7   3   4   38.73    1.29
   8   3  -4   44.31    1.82
   8  -3   4   45.08    2.04
  -8   3   4   42.67    1.81
   8   3  -4   40.61    1.91
  -8  -3  -4   41.96    2.02
  -8   3  -4   43.05    1.90
   8  -3  -4   39.75    1.72
  -8   3  -4   39.02    1.69
  -8  -3   4   38.06    1.64
   8  -3  -4   37.76    1.84
   8   3   4   40.27    2.00
   9  -3   4   15.88    1.31
  -9  -3  -4   15.86    1.32
   9   3  -4   18.47    1.23
  -9   3   4   14.56    1.13
   9   3  -4   14.26    1.24
  -9   3  -4   17.91    1.35
   9   3   4   17.24    1.41
   9  -3  -4   13.69    1.11
  -9  -3   4   16.70    1.14
   9  -3  -4   14.00    1.36
  -9   3  -4   14.38    1.11
 -10  -3  -4   10.65    1.34
  10  -3   4   11.53    1.35
  10   3  -4   11.25    1.31
 -10   3   4   11.60    1.18
  10  -3  -4   13.62    1.18
  10  -3  -4   12.74    1.35
 -10   3  -4   13.15    1.26
 -10   3  -4   12.70    1.36
 -10  -3   4   12.84    1.05
  10   3   4   10.08    1.28
  11   3  -4    0.92    0.58
 -11  -3  -4    0.46    0.60
  11  -3   4    0.79    0.70
 -11   3   4    1.40    0.58
 -11   3  -4    0.16    0.49
 -11   3  -4    0.65    0.63
 -11  -3   4    1.30    0.55
  11   3   4    1.07    0.69
  11  -3  -4    0.99    0.64
 -12  -3  -4    2.50    0.87
  12   3  -4    1.75    0.78
 -12   3   4    2.87    0.77
  12  -3   4    3.88    1.05
  12  -3  -4    2.05    0.76
 -12  -3   4    2.13    0.67
 -12   3  -4    3.11    0.91
 -12   3  -4    1.57    0.70
  12   3   4    1.79    0.85
 -13   3   4    5.84    1.05
 -13  -3  -4    4.79    1.13
  13  -3   4    2.72    0.98
  13   3  -4    5.26    1.14
  13   3   4    4.04    1.06
  13  -3  -4    4.10    1.05
 -13  -3   4    4.82    0.96
 -13   3  -4    5.55    1.16
   0   4  -4   10.77    0.46
   0  -4  -4   10.48    0.64
   0  -4  -4   10.08    0.56
   0  -4   4   10.57    0.57
   0   4   4   11.19    0.58
   0   4   4   10.47    0.42
   0   4  -4    9.99    0.58
   0  -4   4   10.59    0.51
  -1  -4  -4   39.71    1.41
   1   4  -4   42.00    1.41
   1  -4   4   42.30    1.30
  -1   4   4   43.57    1.21
  -1   4   4   42.70    1.32
   1  -4   4   42.93    1.31
   1   4  -4   44.10    1.21
  -1  -4   4   46.82    1.42
   1  -4  -4   47.86    1.41
   1   4   4   47.09    1.07
   1   4   4   44.85    1.48
  -1  -4   4   48.00    1.32
   1  -4  -4   46.86    1.52
  -1   4  -4   46.30    1.46
  -1   4  -4   46.44    1.31
   2   4  -4  122.18    2.98
  -2   4   4  119.13    2.96
  -2  -4  -4  119.48    3.19
   2  -4   4  120.36    2.93
  -2   4   4  124.77    2.93
   2   4  -4  121.31    3.15
   2  -4   4  120.36    3.09
   2   4   4  125.62    3.11
  -2  -4   4  122.21    3.09
  -2   4  -4  124.65    3.13
  -2  -4   4  126.15    3.00
  -2   4  -4  129.26    3.04
   2   4   4  124.16    3.33
   2  -4  -4  122.90    3.23
   2  -4  -4  125.91    3.11
  -3   4   4   78.31    2.07
  -3  -4  -4   77.57    2.34
   3   4  -4   80.59    2.21
   3   4  -4   78.37    2.32
   3  -4   4   79.18    2.29
   3  -4   4   78.79    2.05
  -3   4   4   80.60    2.17
  -3  -4   4   80.55    2.20
   3  -4  -4   79.90    2.20
   3   4   4   78.68    2.44
  -3   4  -4   79.29    2.19
   3  -4  -4   78.33    2.32
  -3   4  -4   82.33    2.29
   3   4   4   81.84    2.19
  -3  -4   4   84.72    2.11
  -4  -4  -4   37.89    0.95
   4  -4   4   35.57    1.15
  -4   4   4   37.13    1.35
   4  -4   4   37.68    1.45
  -4   4   4   37.27    1.17
   4   4  -4   38.71    1.46
   4   4  -4   39.46    1.40
  -4  -4  -4   39.00    1.51
   4   4  -4   37.12    1.24
   4   4   4   41.77    1.35
   4   4   4   38.40    1.59
   4  -4  -4   40.69    1.37
  -4   4  -4   41.39    1.48
   4  -4  -4   41.13    1.52
  -4   4  -4   37.66    1.38
  -4  -4   4   40.29    1.35
   5   4  -4   31.19    1.18
   5  -4   4   31.59    1.02
  -5  -4  -4   31.85    1.43
   5  -4   4   30.25    1.35
  -5   4   4   29.85    1.27
   5   4  -4   32.65    1.35
  -5   4   4   30.49    1.01
   5   4  -4   30.88    1.33
  -5  -4  -4   32.25    0.93
   5   4   4   33.75    1.21
   5   4   4   32.03    1.50
   5  -4  -4   31.08    1.39
  -5   4  -4   33.08    1.35
  -5   4  -4   32.94    1.35
   5  -4  -4   33.83    1.28
  -5  -4   4   33.97    1.22
   6   4  -4    0.69    0.34
  -6   4   4    1.37    0.25
  -6  -4  -4    1.85    0.49
  -6  -4  -4    1.19    0.24
   6   4  -4    1.14    0.31
   6   4  -4    1.20    0.37
  -6   4   4    1.30    0.40
   6  -4   4    1.45    0.43
   6  -4  -4    1.21    0.35
   6   4   4    1.37    0.34
  -6   4  -4    0.93    0.36
   6  -4  -4    0.50    0.35
   6   4   4    1.15    0.45
  -6   4  -4    0.87    0.35
  -6  -4   4    1.14    0.31
   7   4  -4   79.10    2.73
   7  -4   4   79.29    2.79
  -7  -4  -4   88.78    2.94
   7   4  -4   82.59    2.57
  -7   4   4   78.51    2.60
   7  -4  -4   80.51    2.79
  -7   4  -4   80.04    2.64
   7  -4  -4   79.75    2.60
  -7  -4   4   82.53    2.34
  -7  -4   4   86.33    2.62
  -7   4  -4   81.85    2.75
   7   4   4   85.57    2.34
   7   4   4   83.21    2.98
  -8  -4  -4   11.62    1.23
   8  -4   4    9.66    1.07
   8   4  -4   10.58    0.87
   8   4  -4   10.48    1.08
  -8   4   4   10.96    1.03
  -8   4  -4   11.54    1.07
   8   4   4    7.51    1.03
  -8   4  -4    9.96    1.05
   8  -4  -4   10.79    1.08
  -8  -4   4   10.55    0.99
   8  -4  -4    9.84    0.87
  -9   4   4   15.67    1.17
   9  -4   4   14.66    1.29
   9   4  -4   17.82    1.33
   9   4  -4   16.74    1.17
  -9  -4  -4   17.07    1.37
  -9   4  -4   16.33    1.28
  -9  -4   4   18.98    1.18
   9  -4  -4   17.78    1.35
   9   4   4   15.99    1.38
   9  -4  -4   16.86    1.21
  -9   4  -4   18.66    1.26
 -10  -4  -4    1.89    0.70
  10   4  -4    2.19    0.65
 -10   4   4    1.46    0.54
  10  -4   4    1.22    0.61
 -10   4  -4    2.24    0.65
 -10  -4   4    4.63    0.74
  10  -4  -4    1.67    0.60
 -10   4  -4    3.36    0.78
  10   4   4    2.00    0.73
  10  -4  -4    4.07    0.83
  11  -4   4   11.55    1.39
  11   4  -4   11.65    1.37
 -11   4   4   12.12    1.31
 -11  -4  -4    9.22    1.32
 -11   4  -4   13.03    1.49
 -11  -4   4   14.99    1.38
  11   4   4   12.10    1.55
  11  -4  -4   12.77    1.46
 -11   4  -4   14.02    1.39
 -12   4   4    1.08    0.62
 -12  -4  -4    0.99    0.66
  12   4  -4    0.04    0.59
  12  -4   4    0.22    0.72
 -12   4  -4    0.58    0.63
 -12   4  -4    1.10    0.74
 -12  -4   4    0.46    0.52
  12  -4  -4   -0.08    0.56
  12   4   4    0.85    0.77
  13   4  -4    3.72    0.98
 -13  -4  -4    4.27    1.12
 -13   4   4    4.14    0.94
  13  -4   4    4.54    1.17
 -13  -4   4    4.33    0.89
  13  -4  -4    5.05    1.18
 -13   4  -4    4.32    0.96
 -13   4  -4    4.20    1.09
  13   4   4    3.81    1.10
   0   5   4  125.97    3.15
   0  -5   4  127.43    3.14
   0  -5   4  126.04    3.14
   0  -5  -4  124.76    3.26
   0  -5  -4  125.00    3.31
   0   5  -4  130.85    2.90
   0   5   4  124.62    2.85
   0   5  -4  126.82    3.18
   1  -5   4    1.28    0.27
   1   5  -4    2.21    0.24
   1   5  -4    2.25    0.38
   1  -5   4    1.75    0.29
  -1   5   4    1.90    0.27
  -1   5   4    1.45    0.30
  -1  -5  -4    1.98    0.37
   1   5   4    2.77    0.39
   1   5   4    1.80    0.18
  -1  -5   4    1.54    0.25
   1  -5  -4    1.78    0.31
   1  -5  -4    2.02    0.35
  -1   5  -4    1.53    0.22
  -1   5  -4    1.56    0.32
  -2  -5  -4   22.19    1.01
   2  -5   4   22.93    0.88
  -2   5   4   21.85    0.89
   2  -5   4   21.91    0.95
   2   5  -4   21.38    0.82
   2   5  -4   21.37    1.03
  -2   5   4   23.59    0.90
  -2   5  -4   23.08    0.79
   2  -5  -4   20.79    0.89
  -2   5  -4   21.99    0.98
   2   5   4   21.56    0.94
   2  -5  -4   21.99    0.96
   2   5   4   21.38    1.02
  -2  -5   4   20.70    0.81
   3   5  -4  251.18    5.80
  -3   5   4  253.05    5.67
  -3   5   4  243.57    5.64
  -3  -5  -4  249.00    6.03
   3   5  -4  249.49    5.90
   3  -5   4  251.93    6.00
   3  -5   4  246.87    5.61
   3  -5  -4  255.96    6.12
   3   5   4  256.91    5.93
  -3  -5   4  258.89    5.96
  -3   5  -4  258.28    5.90
  -3   5  -4  258.43    5.98
   3  -5  -4  256.57    6.09
   3   5   4  259.93    6.37
  -4  -5  -4   76.13    2.41
   4  -5   4   75.41    2.00
   4   5  -4   73.82    2.13
  -4   5   4   76.22    2.03
   4   5  -4   76.89    2.25
  -4  -5  -4   78.83    1.68
   4  -5   4   76.19    2.35
   4   5  -4   74.19    2.34
  -4   5   4   71.67    2.20
   4   5   4   71.16    2.07
   4   5   4   67.98    2.34
  -4   5  -4   71.22    2.20
  -4  -5   4   72.64    2.08
   4  -5  -4   67.87    2.09
   4  -5  -4   72.49    2.23
  -4   5  -4   70.17    2.07
   5   5  -4   10.97    0.69
  -5   5   4   12.70    0.82
  -5  -5  -4   10.12    0.83
   5  -5   4   11.84    0.86
  -5   5   4   10.93    0.58
   5   5  -4   12.17    0.83
  -5  -5  -4   11.53    0.47
   5  -5   4   11.70    0.59
   5   5  -4   10.98    0.78
   5   5   4   10.81    0.71
   5  -5  -4   11.10    0.74
  -5  -5   4   11.05    0.71
  -5   5  -4   11.86    0.82
  -5   5  -4   12.04    0.79
   5   5   4    8.66    0.89
   5  -5  -4   13.77    0.89
  -6  -5  -4   77.34    2.65
  -6   5   4   73.30    2.40
   6   5  -4   79.82    2.37
   6   5  -4   75.38    2.50
   6  -5   4   72.16    2.54
   6   5  -4   78.86    2.48
   6  -5  -4   82.79    2.67
   6   5   4   76.39    2.77
  -6  -5   4   83.68    2.35
   6   5   4   80.01    2.32
   6  -5  -4   82.99    2.53
  -6   5  -4   78.39    2.53
  -6   5  -4   74.43    2.52
   7  -5   4   12.24    1.04
   7   5  -4   11.39    0.85
   7   5  -4   12.76    1.01
  -7  -5  -4   11.81    1.16
  -7   5   4   10.19    0.96
  -7   5  -4   13.59    1.01
   7   5   4   11.50    1.16
  -7   5  -4   12.35    0.98
   7  -5  -4   12.22    1.03
   7   5   4   12.01    0.79
  -7  -5   4   12.19    0.80
   7  -5  -4   11.69    0.90
   8  -5   4    1.81    0.61
  -8  -5  -4    1.68    0.55
   8   5  -4    1.81    0.57
  -8   5   4    1.03    0.46
   8   5  -4    2.37    0.52
  -8  -5   4    1.53    0.46
   8  -5  -4    1.09    0.44
  -8   5  -4    0.57    0.43
  -8   5  -4    1.79    0.54
   8  -5  -4    1.88    0.56
   8   5   4    2.70    0.72
   9   5  -4    4.87    0.80
  -9   5   4    4.70    0.77
   9   5  -4    5.59    0.81
  -9  -5  -4    5.06    0.91
   9  -5   4    3.99    0.82
  -9   5  -4    3.97    0.78
  -9  -5   4    4.31    0.68
   9  -5  -4    3.86    0.69
   9   5   4    3.37    0.79
  -9   5  -4    4.80    0.82
   9  -5  -4    4.67    0.85
 -10  -5  -4    0.08    0.47
 -10   5   4   -0.32    0.36
  10  -5   4    1.07    0.63
  10   5  -4   -0.59    0.40
  10  -5  -4    0.84    0.53
  10  -5  -4   -0.38    0.46
 -10  -5   4   -0.17    0.35
 -10   5  -4    0.93    0.53
 -10   5  -4    0.74    0.54
  10   5   4    0.61    0.54
 -11  -5  -4   -0.19    0.55
 -11   5   4   -0.02    0.50
  11  -5   4   -0.03    0.52
  11   5  -4   -0.06    0.53
 -11  -5   4    0.42    0.46
  11  -5  -4    1.29    0.72
  11   5   4    1.14    0.68
 -11   5  -4   -0.26    0.56
 -11   5  -4    0.69    0.57
 -12   5   4   13.21    1.43
  12  -5   4   13.13    1.66
 -12  -5  -4   13.87    1.64
  12   5  -4   13.05    1.57
 -12  -5   4   17.01    1.33
 -12   5  -4   13.87    1.55
  12   5   4   15.25    1.76
 -12   5  -4   14.70    1.68
  12  -5  -4   15.15    1.68
  13  -5   4    0.07    0.81
  13   5  -4    0.28    0.65
 -13  -5  -4    0.81    0.76
  13  -5  -4    2.05    0.87
 -13   5  -4    1.02    0.82
  13   5   4    1.94    0.86
   0   6   4    0.44    0.23
   0   6  -4    0.42    0.11
   0  -6  -4    0.65    0.26
   0   6  -4    0.18    0.20
   0  -6   4    0.34    0.19
   0   6   4    0.35    0.16
   0   6  -4    0.03    0.19
   0  -6  -4    0.17    0.20
   1   6  -4  167.13    3.77
  -1  -6  -4  166.72    4.26
  -1   6   4  166.31    3.84
   1   6  -4  161.35    4.07
   1  -6   4  165.99    4.14
   1   6  -4  167.09    4.13
  -1   6   4  167.14    4.03
  -1  -6  -4  167.40    4.22
  -1   6  -4  158.36    3.58
   1   6   4  159.34    3.94
   1  -6  -4  163.50    4.04
  -1  -6   4  154.98    3.90
   1   6   4  162.99    3.49
  -1   6  -4  161.90    3.97
   1  -6  -4  158.45    4.04
  -2  -6  -4  173.16    4.27
   2   6  -4  165.44    3.92
   2   6  -4  170.33    4.14
   2   6  -4  170.10    4.22
   2  -6   4  164.31    4.00
  -2   6   4  162.79    4.00
   2  -6   4  165.37    4.22
  -2   6   4  165.57    3.96
   2  -6  -4  172.09    4.28
  -2  -6   4  166.62    4.13
   2  -6  -4  167.87    4.24
   2   6   4  171.11    4.45
  -2   6  -4  171.36    4.23
   2   6   4  176.88    4.20
   2   6   4  170.27    3.58
  -2   6  -4  169.16    3.90
   3   6  -4   37.40    1.49
  -3  -6  -4   39.22    1.48
   3   6  -4   38.63    1.40
   3  -6   4   38.32    1.27
   3  -6   4   38.05    1.45
  -3   6   4   36.45    1.26
  -3   6   4   38.94    1.38
   3   6  -4   37.69    1.28
   3  -6  -4   35.87    1.37
   3   6   4   36.78    1.53
   3  -6  -4   38.09    1.39
   3   6   4   37.28    1.38
  -3  -6   4   36.01    1.25
  -3   6  -4   38.04    1.20
  -3   6  -4   36.68    1.43
  -4  -6  -4   39.02    0.93
   4   6  -4   39.04    1.44
  -4  -6  -4   37.18    1.53
  -4   6   4   39.13    1.28
  -4   6   4   38.17    1.46
   4  -6   4   38.91    1.55
   4   6  -4   37.23    1.54
   4   6  -4   40.79    1.44
   4  -6   4   38.42    1.25
   4   6   4   43.09    1.55
   4   6   4   44.33    1.81
   4  -6  -4   44.95    1.64
  -4   6  -4   47.83    1.71
  -4   6  -4   45.90    1.49
  -4  -6   4   42.83    1.47
   4  -6  -4   46.66    1.62
  -5   6   4   95.97    2.56
   5   6  -4  106.89    3.03
   5   6  -4  103.22    2.86
  -5  -6  -4   96.27    3.06
   5  -6   4  100.07    2.56
   5   6  -4  107.51    2.97
  -5   6   4  103.08    2.95
   5  -6   4   96.49    3.04
  -5   6  -4  101.62    3.06
  -5   6  -4  106.66    2.94
   5  -6  -4  104.73    3.02
   5   6   4   99.53    3.27
   5   6   4  105.50    2.90
   5  -6  -4  108.64    3.11
  -6   6   4    4.02    0.59
   6   6  -4    4.49    0.65
  -6  -6  -4    3.61    0.64
   6   6  -4    3.83    0.54
   6  -6   4    3.07    0.61
   6   6  -4    2.92    0.53
  -6  -6   4    4.59    0.56
   6   6   4    4.23    0.55
   6  -6  -4    4.42    0.60
   6  -6  -4    3.73    0.59
   6   6   4    4.14    0.70
  -6   6  -4    3.80    0.57
  -6   6  -4    3.29    0.60
  -7   6   4   20.83    1.26
  -7  -6  -4   21.53    1.38
   7   6  -4   21.66    1.23
   7   6  -4   22.19    1.17
   7   6  -4   21.75    1.29
   7  -6   4   23.29    1.38
  -7  -6   4   22.11    1.11
  -7   6  -4   22.88    1.29
  -7   6  -4   24.17    1.36
   7   6   4   24.25    1.15
   7  -6  -4   22.52    1.33
   7   6   4   19.71    1.37
   7  -6  -4   22.55    1.25
   8   6  -4    8.96    1.00
  -8   6   4    8.08    0.97
   8  -6   4    7.65    0.98
   8   6  -4   11.77    0.94
  -8  -6  -4    9.19    1.12
   8  -6  -4   10.76    1.12
  -8  -6   4    9.60    0.81
   8   6   4   10.56    1.20
  -8   6  -4   10.81    1.08
   8  -6  -4   11.18    1.09
  -8  -6   4    9.91    0.97
  -8   6  -4    9.29    1.02
   9   6  -4    5.12    0.84
  -9   6   4    4.96    0.85
  -9  -6  -4    5.40    0.93
   9  -6   4    5.68    0.99
   9  -6  -4    5.15    0.82
   9  -6  -4    5.27    0.86
  -9   6  -4    4.73    0.83
  -9  -6   4    5.30    0.76
   9   6   4    5.15    0.96
  -9   6  -4    6.42    0.96
  10  -6   4    3.14    0.83
 -10   6   4    0.69    0.53
 -10  -6  -4    1.65    0.73
  10   6  -4    2.43    0.74
 -10   6  -4    2.12    0.70
  10   6   4    2.26    0.71
 -10   6  -4    1.96    0.71
  10  -6  -4    3.78    0.80
  10  -6  -4    2.28    0.66
 -10  -6   4    1.15    0.49
  11   6  -4   16.82    1.67
 -11  -6  -4   12.50    1.55
 -11   6   4   12.77    1.36
  11  -6   4   14.23    1.62
 -11   6  -4   14.35    1.54
  11  -6  -4   15.74    1.62
 -11  -6   4   14.90    1.24
 -11   6  -4   13.35    1.49
  11   6   4   15.58    1.73
  12  -6   4    0.59    0.79
 -12   6   4    0.41    0.59
 -12  -6  -4    0.95    0.77
  12   6  -4    0.53    0.66
  12  -6  -4    0.59    0.72
 -12   6  -4    1.14    0.73
 -12  -6   4    1.68    0.61
 -12   6  -4    0.33    0.71
  12   6   4    1.21    0.76
   0   7  -4   73.96    2.15
   0   7   4   71.75    1.89
   0   7  -4   71.76    2.19
   0   7   4   74.01    2.15
   0  -7   4   71.44    2.13
   0  -7  -4   68.76    2.17
   0  -7  -4   72.13    2.24
  -1  -7  -4   69.25    2.22
  -1   7   4   66.84    1.91
  -1   7   4   68.02    2.04
   1   7  -4   73.03    2.19
   1  -7   4   68.74    2.11
   1   7  -4   70.04    1.70
   1   7  -4   69.28    2.10
  -1  -7  -4   68.03    2.17
   1   7   4   75.34    2.20
  -1  -7   4   69.66    2.10
   1   7   4   72.91    1.81
   1  -7  -4   73.76    2.26
  -1   7  -4   73.81    2.14
   1  -7  -4   73.83    2.19
  -1   7  -4   71.22    2.21
   2   7  -4   57.09    1.56
  -2   7   4   57.37    1.75
   2  -7   4   57.11    1.87
   2   7  -4   53.80    1.90
  -2   7   4   57.41    1.74
  -2  -7  -4   52.49    1.83
   2   7  -4   53.07    1.81
   2  -7  -4   52.38    1.72
  -2  -7   4   49.64    1.64
  -2   7  -4   52.82    1.81
   2   7   4   49.33    1.28
   2   7   4   53.18    1.75
   2  -7  -4   53.79    1.79
  -2   7  -4   53.89    1.37
  -3   7   4  116.16    2.99
  -3  -7  -4  115.77    3.24
   3   7  -4  114.29    2.96
   3  -7   4  112.40    3.25
   3  -7   4  114.92    2.97
  -3   7   4  115.15    3.08
   3   7  -4  117.79    3.29
   3   7  -4  117.91    3.17
   3  -7  -4  117.52    3.27
   3   7   4  115.11    3.45
   3   7   4  118.37    2.55
  -3  -7   4  118.07    3.13
   3  -7  -4  117.77    3.20
   3   7   4  122.17    3.21
  -3   7  -4  118.36    2.90
  -3   7  -4  117.94    3.28
   4   7  -4   42.44    1.57
  -4   7   4   39.65    1.57
  -4   7   4   41.50    1.40
   4  -7   4   41.14    1.67
  -4  -7  -4   43.18    1.67
   4   7  -4   42.76    1.69
   4  -7   4   43.27    1.40
   4   7  -4   43.55    1.52
  -4   7  -4   40.46    1.63
   4  -7  -4   39.94    1.57
   4   7   4   40.79    1.55
  -4   7  -4   40.28    1.36
  -4  -7   4   39.34    1.43
   4  -7  -4   38.66    1.52
   4   7   4   39.97    1.73
  -5   7   4   18.45    0.85
   5  -7   4   18.85    1.16
   5   7  -4   17.59    1.00
   5   7  -4   18.92    1.10
  -5  -7  -4   18.74    1.12
  -5   7   4   20.51    1.12
   5  -7   4   17.36    0.81
   5   7  -4   16.81    0.97
   5   7   4   19.79    1.23
   5  -7  -4   19.33    1.09
  -5   7  -4   19.43    1.14
  -5  -7   4   17.76    0.94
   5  -7  -4   18.68    1.07
   5   7   4   17.50    1.00
  -5   7  -4   19.14    0.96
   6   7  -4   68.37    2.29
  -6   7   4   70.06    2.42
  -6  -7  -4   66.62    2.48
   6   7  -4   72.28    2.40
   6   7  -4   73.80    2.43
   6  -7   4   68.68    2.50
   6  -7  -4   64.89    2.30
   6  -7  -4   66.27    2.35
   6   7   4   67.73    2.19
   6   7   4   65.82    2.56
  -6   7  -4   63.03    2.36
  -6   7  -4   67.78    2.21
  -7   7   4   12.64    1.16
   7   7  -4   13.06    1.02
   7   7  -4   14.60    1.07
   7   7  -4   13.87    0.96
   7  -7   4   13.19    1.13
  -7  -7  -4   12.96    1.11
   7  -7  -4   12.58    1.02
   7   7   4   13.01    0.91
  -7   7  -4   11.55    1.12
   7   7   4   10.94    1.20
  -7  -7   4   13.78    0.94
  -7   7  -4   12.39    0.97
   7  -7  -4   14.72    1.09
  -8  -7  -4   11.95    1.22
  -8   7   4   14.21    1.16
   8  -7   4   11.80    1.20
   8   7  -4   13.12    1.13
   8   7  -4   14.36    1.04
  -8   7  -4   14.51    1.20
   8   7   4   14.45    1.07
   8  -7  -4   15.06    1.22
   8   7   4   15.99    1.57
  -8  -7   4   15.61    1.01
  -8   7  -4   12.95    1.09
   8  -7  -4   12.45    1.09
   9  -7   4    6.29    0.99
  -9   7   4    5.44    0.87
  -9  -7  -4    6.04    0.97
   9   7  -4    5.75    0.90
   9   7   4    8.77    1.20
  -9  -7   4    6.54    0.86
  -9   7  -4    7.74    1.07
   9  -7  -4    9.26    1.10
  -9   7  -4    7.48    0.99
   9  -7  -4    7.48    0.96
  10   7  -4    1.64    0.63
 -10   7   4    1.19    0.62
 -10  -7  -4    1.67    0.68
  10  -7   4    0.07    0.60
 -10   7  -4    0.94    0.63
  10  -7  -4    0.85    0.57
 -10   7  -4    1.58    0.68
  10  -7  -4    0.92    0.58
  10   7   4    0.71    0.64
 -10  -7   4    0.65    0.46
  11  -7   4    1.99    0.86
 -11  -7  -4    1.94    0.77
 -11   7   4    1.32    0.69
  11   7  -4    1.44    0.71
  11  -7  -4    2.37    0.80
 -11  -7   4    1.55    0.56
 -11   7  -4    3.01    0.83
  11   7   4    1.76    0.77
 -11   7  -4    2.34    0.80
 -12  -7  -4   11.11    1.60
  12   7  -4   10.36    1.38
 -12   7   4   12.40    1.52
  12  -7   4    9.82    1.49
 -12   7  -4    9.64    1.38
  12   7   4    9.07    1.51
  12  -7  -4   10.12    1.42
   0  -8  -4    5.00    0.63
   0   8   4    5.94    0.62
   0   8   4    5.79    0.50
   0  -8  -4    5.12    0.60
   0   8  -4    6.33    0.66
   0   8  -4    5.64    0.64
   0  -8   4    5.49    0.59
  -1  -8  -4   81.59    2.50
   1   8  -4   80.13    2.42
   1   8  -4   77.84    1.90
  -1   8   4   80.01    2.38
   1   8  -4   89.77    2.55
   1  -8   4   83.44    2.48
  -1  -8  -4   79.55    2.56
  -1   8   4   81.30    2.27
   1  -8  -4   79.46    2.35
   1   8   4   80.19    2.02
  -1   8  -4   77.44    2.42
  -1  -8   4   77.80    2.34
   1   8   4   80.44    2.40
  -1   8  -4   81.43    2.36
   1  -8  -4   82.33    2.50
  -2   8   4  100.05    2.70
   2  -8   4   91.90    2.80
   2   8  -4   95.61    2.38
  -2   8   4   95.20    2.64
  -2  -8  -4   94.25    2.93
  -2  -8  -4   95.71    2.79
   2   8  -4   97.71    2.86
   2   8  -4   92.70    2.75
  -2   8  -4  100.04    2.75
   2   8   4  104.10    2.89
   2  -8  -4   98.69    2.77
   2   8   4   95.41    2.33
   2  -8  -4  100.09    2.92
  -2  -8   4  102.37    2.81
  -2   8  -4   96.38    2.88
  -3  -8  -4   18.78    1.02
  -3   8   4   16.24    0.88
   3   8  -4   17.97    0.81
   3   8  -4   18.41    1.09
  -3   8   4   18.27    0.99
   3   8  -4   18.88    1.01
   3  -8   4   17.49    1.03
   3  -8  -4   16.06    0.89
  -3  -8   4   16.91    0.88
   3  -8  -4   16.36    0.98
   3   8   4   16.55    0.98
   3   8   4   16.16    1.06
  -3   8  -4   15.23    0.99
  -4  -8  -4   60.78    2.12
   4   8  -4   59.54    2.05
  -4   8   4   59.28    1.85
   4   8  -4   61.48    1.91
   4  -8   4   60.90    1.84
   4  -8   4   57.09    2.13
   4   8  -4   61.72    2.19
  -4   8   4   57.99    2.05
   4   8   4   58.00    1.99
  -4   8  -4   55.57    2.07
  -4  -8   4   57.49    1.89
   4  -8  -4   57.01    2.05
   4   8   4   58.18    2.22
   4  -8  -4   55.08    1.93
   5   8  -4   32.22    1.35
   5  -8   4   29.25    1.49
  -5   8   4   28.15    1.42
  -5   8   4   28.01    1.16
   5  -8   4   29.41    1.15
   5   8  -4   30.07    1.36
   5   8  -4   32.00    1.49
  -5  -8  -4   28.51    1.43
   5   8   4   29.84    1.57
  -5   8  -4   28.30    1.44
   5   8   4   29.20    1.36
   5  -8  -4   27.02    1.32
   5  -8  -4   30.66    1.43
  -5  -8   4   27.75    1.25
   6  -8   4    1.10    0.47
  -6   8   4    1.70    0.49
   6   8  -4    0.21    0.33
   6   8  -4    0.79    0.39
   6   8  -4    2.07    0.52
  -6  -8  -4    0.72    0.40
   6  -8  -4    1.88    0.49
   6   8   4    1.70    0.46
   6  -8  -4    1.80    0.52
  -6   8  -4    1.37    0.47
  -6  -8   4    1.59    0.41
   6   8   4    1.31    0.51
  -7   8   4   45.11    2.01
  -7  -8  -4   43.74    2.05
   7  -8   4   44.61    2.09
   7   8  -4   43.70    1.92
   7   8  -4   48.57    1.91
   7   8  -4   49.31    1.99
   7  -8  -4   47.28    1.99
   7   8   4   46.52    1.83
  -7   8  -4   44.15    2.04
   7   8   4   42.79    2.15
   7  -8  -4   48.80    2.03
  -8  -8  -4   22.35    1.52
   8   8  -4   20.73    1.29
   8   8  -4   21.80    1.40
   8   8  -4   20.82    1.33
   8  -8   4   16.34    1.40
  -8   8   4   20.35    1.42
   8  -8  -4   17.65    1.29
  -8   8  -4   19.84    1.40
   8   8   4   18.92    1.48
  -8  -8   4   19.15    1.16
   8  -8  -4   19.62    1.31
   8   8   4   19.35    1.19
   9   8  -4    4.80    0.87
  -9  -8  -4    4.27    0.87
  -9   8   4    5.67    0.94
   9  -8   4    6.73    1.06
  -9  -8   4    3.66    0.68
  -9   8  -4    3.94    0.81
   9  -8  -4    4.36    0.82
   9  -8  -4    4.56    0.84
   9   8   4    3.62    0.88
 -10  -8  -4    8.96    1.22
  10   8  -4    9.99    1.28
 -10   8   4    8.17    1.13
  10  -8   4    9.16    1.29
 -10  -8   4    6.65    0.91
  10  -8  -4    8.42    1.14
  10   8   4    7.77    1.27
  10  -8  -4    5.85    1.01
 -10   8  -4    6.76    1.07
  11  -8   4   10.39    1.40
 -11  -8  -4   15.91    1.74
 -11   8   4    9.89    1.33
  11   8  -4   14.91    1.56
  11   8   4   11.10    1.50
  11  -8  -4   12.24    1.43
  11  -8  -4   14.40    1.68
 -11   8  -4   12.57    1.52
  12  -8   4    1.51    0.81
  12   8  -4    1.84    0.84
 -12  -8  -4    1.51    0.74
 -12   8   4    2.36    0.81
  12   8   4    1.36    0.87
 -12   8  -4    2.70    0.91
  12  -8  -4    2.56    0.86
   0  -9   4   19.16    1.00
   0  -9  -4   16.35    1.00
   0   9  -4   17.22    0.95
   0   9   4   16.63    0.81
   0   9  -4   15.52    0.96
   0   9   4   15.40    0.95
   0  -9  -4   17.59    0.93
   1  -9   4   48.39    1.76
  -1   9   4   45.67    1.56
   1   9  -4   42.70    1.65
  -1  -9  -4   45.16    1.72
  -1  -9  -4   43.87    1.78
  -1   9   4   45.06    1.66
   1   9  -4   46.30    1.75
   1   9   4   44.66    1.67
  -1  -9   4   41.11    1.56
   1  -9  -4   41.55    1.69
   1   9   4   43.25    1.34
  -1   9  -4   43.26    1.60
  -1   9  -4   41.55    1.66
   1  -9  -4   45.29    1.56
  -2  -9  -4   62.98    2.29
  -2  -9  -4   63.64    2.14
  -2   9   4   65.17    2.08
   2  -9   4   67.42    2.24
   2   9  -4   61.25    2.12
   2   9  -4   65.27    2.23
  -2   9   4   62.54    2.04
   2  -9  -4   63.30    2.19
  -2  -9   4   61.88    2.04
   2  -9  -4   63.22    1.98
   2   9   4   64.40    2.15
  -2   9  -4   63.20    2.18
  -2   9  -4   60.84    2.00
   3   9  -4    0.45    0.34
  -3   9   4    1.46    0.39
  -3  -9  -4    0.50    0.29
   3   9  -4    0.24    0.27
  -3  -9  -4    0.55    0.39
   3  -9   4    0.77    0.36
  -3   9   4    0.44    0.33
  -3   9  -4    0.60    0.29
  -3   9  -4    0.89    0.35
   3  -9  -4    0.79    0.36
   3   9   4    0.91    0.39
   3  -9  -4    1.36    0.37
  -3  -9   4    0.86    0.33
  -4   9   4   37.53    1.45
   4   9  -4   35.57    1.66
  -4   9   4   39.24    1.65
   4   9  -4   39.55    1.42
   4  -9   4   37.30    1.68
   4   9  -4   39.06    1.61
   4  -9   4   38.39    1.42
  -4  -9  -4   37.40    1.59
   4   9   4   40.74    1.66
   4  -9  -4   38.91    1.56
   4   9   4   39.89    1.84
  -4  -9   4   42.47    1.60
   4  -9  -4   39.12    1.70
  -4   9  -4   36.87    1.70
  -5   9   4   11.94    0.78
  -5  -9  -4   12.25    0.96
   5   9  -4   12.93    1.00
   5  -9   4   10.17    1.02
   5   9  -4   11.69    0.83
   5   9  -4   11.42    0.89
   5  -9   4   11.73    0.79
  -5   9   4   11.77    1.06
   5   9   4    9.06    1.06
   5  -9  -4   10.23    0.98
   5  -9  -4    9.79    0.90
  -5  -9   4   11.97    0.84
  -5   9  -4    8.86    0.95
   5   9   4    8.51    0.86
  -6   9   4    3.53    0.69
   6  -9   4    4.10    0.75
  -6  -9  -4    3.54    0.68
   6   9  -4    4.44    0.66
   6   9  -4    4.25    0.66
   6   9  -4    3.83    0.69
   6  -9  -4    2.99    0.60
   6   9   4    2.27    0.51
   6   9   4    3.71    0.78
  -6   9  -4    3.69    0.68
  -6  -9   4    3.54    0.59
   6  -9  -4    2.96    0.63
   7   9  -4   23.25    1.30
   7   9  -4   22.39    1.39
   7  -9   4   21.10    1.50
  -7   9   4   21.80    1.45
   7   9  -4   26.93    1.44
  -7  -9  -4   24.00    1.48
   7   9   4   18.11    1.44
   7  -9  -4   21.37    1.32
  -7  -9   4   22.55    1.25
   7  -9  -4   22.95    1.42
  -7   9  -4   21.25    1.44
   7   9   4   19.47    1.23
   8   9  -4   21.27    1.35
   8  -9   4   22.26    1.59
  -8  -9  -4   22.90    1.54
   8   9  -4   23.95    1.44
  -8   9   4   23.02    1.56
   8   9  -4   22.38    1.44
   8   9   4   24.50    1.38
   8  -9  -4   22.86    1.47
   8  -9  -4   22.26    1.48
   8   9   4   21.90    1.64
  -8   9  -4   22.99    1.58
  -9  -9  -4   10.71    1.29
   9   9  -4   11.03    1.22
   9  -9   4    9.93    1.25
  -9   9   4    9.65    1.20
  -9  -9   4    7.61    0.95
   9  -9  -4    7.08    1.00
   9   9   4    8.98    1.30
   9  -9  -4    8.06    1.09
  -9   9  -4    7.53    1.09
  10   9  -4   11.62    1.32
 -10  -9  -4   14.95    1.61
 -10   9   4   12.34    1.40
  10  -9   4   12.14    1.46
 -10   9  -4   14.29    1.54
  10  -9  -4   11.61    1.41
  10   9   4   10.96    1.46
  10  -9  -4   12.78    1.37
 -11  -9  -4    4.97    1.07
 -11   9   4    5.11    1.12
  11  -9   4    4.99    1.13
  11   9   4    3.33    0.98
  11  -9  -4    4.18    0.99
 -11   9  -4    5.62    1.08
  11  -9  -4    4.27    1.09
   0  10  -4   74.63    2.37
   0  10   4   69.14    2.08
   0  10  -4   71.76    2.39
   0  10   4   71.81    2.35
   0 -10  -4   68.05    2.22
   0 -10   4   73.27    2.37
   0 -10  -4   72.94    2.48
  -1  10   4   29.97    1.25
   1  10  -4   29.26    1.35
  -1  10   4   30.24    1.36
   1 -10   4   29.71    1.38
   1  10  -4   26.11    1.33
  -1 -10  -4   27.14    1.30
  -1 -10  -4   26.65    1.40
  -1  10  -4   25.16    1.31
   1 -10  -4   25.66    1.33
  -1 -10   4   26.61    1.26
  -1  10  -4   24.49    1.20
   1  10   4   25.25    1.01
   1  10   4   26.80    1.30
   1 -10  -4   25.17    1.14
  -2  10   4    4.48    0.60
  -2 -10  -4    4.14    0.66
   2  10  -4    3.99    0.66
   2  10  -4    4.42    0.65
   2 -10   4    3.95    0.62
  -2  10   4    4.61    0.62
  -2 -10  -4    4.59    0.62
  -2 -10   4    3.23    0.54
   2 -10  -4    4.03    0.63
   2  10   4    3.85    0.60
  -2  10  -4    4.17    0.58
  -2  10  -4    3.55    0.60
   2 -10  -4    4.71    0.55
   3  10  -4   78.73    2.67
  -3 -10  -4   88.30    2.72
   3 -10   4   83.53    2.83
  -3  10   4   91.26    2.76
   3  10  -4   88.71    2.87
  -3  10   4   83.74    2.58
  -3 -10  -4   87.63    2.95
  -3  10  -4   82.83    2.77
  -3 -10   4   87.63    2.66
   3 -10  -4   83.79    2.79
  -3  10  -4   84.30    2.55
   3 -10  -4   82.07    2.51
   3  10   4   88.08    2.76
  -4 -10  -4    5.72    0.73
  -4 -10  -4    5.38    0.85
   4  10  -4    4.45    0.65
   4 -10   4    4.77    0.73
  -4  10   4    5.79    0.77
  -4  10   4    5.26    0.64
   4  10  -4    5.41    0.76
  -4  10  -4    4.21    0.72
  -4 -10   4    3.25    0.57
   4 -10  -4    3.64    0.55
   4 -10  -4    3.86    0.65
   4  10   4    3.47    0.62
  -5  10   4    0.49    0.45
   5  10  -4    1.49    0.50
   5 -10   4    2.19    0.59
  -5 -10  -4    2.71    0.57
  -5  10   4    1.91    0.46
   5  10  -4    1.46    0.48
   5 -10  -4    2.24    0.56
   5  10   4    1.08    0.51
  -5  10  -4    1.80    0.59
   5 -10  -4    1.46    0.45
  -5 -10   4    2.18    0.47
   5  10   4    0.97    0.42
   6 -10   4   15.60    1.27
   6  10  -4   14.77    1.08
  -6  10   4   14.08    1.27
  -6 -10  -4   14.82    1.14
   6  10  -4   14.31    1.09
   6 -10  -4   17.46    1.16
  -6 -10   4   15.78    1.07
   6 -10  -4   18.11    1.29
   6  10   4   14.45    1.44
   6  10   4   15.72    1.13
  -6  10  -4   17.12    1.28
  -7 -10  -4    6.58    0.93
   7  10  -4    6.11    0.86
  -7  10   4    6.62    0.97
   7 -10   4    5.47    0.89
   7  10  -4    5.55    0.78
  -7  10  -4    5.28    0.90
  -7 -10   4    6.15    0.80
   7 -10  -4    5.09    0.84
   7  10   4    4.64    0.88
   7  10   4    4.38    0.73
   7 -10  -4    3.87    0.74
  -8 -10  -4    0.29    0.47
  -8  10   4    1.59    0.63
   8  10  -4    1.52    0.58
   8 -10   4    1.12    0.67
  -8 -10   4    1.82    0.59
   8 -10  -4    1.42    0.64
   8  10   4   -0.04    0.48
   8  10   4    1.98    0.60
  -8  10  -4    0.78    0.61
   8 -10  -4    1.09    0.57
  -9  10   4   18.62    1.70
   9 -10   4   17.85    1.70
  -9 -10  -4   18.11    1.54
   9 -10  -4   16.11    1.38
   9  10   4   14.09    1.53
  -9  10  -4   14.85    1.54
 -10 -10  -4   17.35    1.80
 -10  10   4   17.12    1.68
  10 -10   4   17.16    1.74
 -10  10  -4   18.35    1.78
  10 -10  -4   16.18    1.59
  10  10   4   15.51    1.71
  11 -10   4   12.13    1.53
 -11 -10  -4    8.30    1.35
 -11  10   4    8.50    1.35
  11 -10  -4    7.41    1.33
 -11  10  -4    9.76    1.41
  11  10   4    8.33    1.35
   0  11   4    1.26    0.37
   0  11  -4    1.06    0.42
   0  11   4    0.75    0.41
   0 -11  -4    1.16    0.46
   0 -11  -4    1.57    0.41
   0  11  -4    1.79    0.46
   0 -11   4    1.74    0.47
  -1  11   4   40.12    1.66
   1 -11   4   41.16    1.74
   1  11  -4   39.50    1.72
  -1 -11  -4   36.08    1.55
  -1  11   4   37.91    1.51
   1  11  -4   36.17    1.63
  -1 -11  -4   39.76    1.79
  -1 -11   4   39.39    1.66
  -1  11  -4   39.94    1.65
   1 -11  -4   40.99    1.52
   1 -11  -4   38.69    1.75
  -1  11  -4   38.09    1.71
   1  11   4   36.70    1.67
  -2 -11  -4   63.13    2.19
   2 -11   4   61.38    2.29
   2  11  -4   56.03    2.21
  -2 -11  -4   61.82    2.39
   2  11  -4   58.68    2.20
  -2  11   4   58.39    2.09
  -2  11   4   61.48    2.14
   2 -11  -4   60.68    2.27
  -2  11  -4   55.69    2.18
  -2 -11   4   58.68    2.11
  -2  11  -4   59.08    2.08
   2  11   4   56.09    2.16
  -3  11   4    7.01    0.79
   3 -11   4    8.36    0.92
   3  11  -4    7.98    0.90
   3  11  -4    8.09    0.94
  -3 -11  -4    6.39    0.90
  -3 -11  -4    7.02    0.82
  -3  11   4    7.15    0.84
  -3  11  -4    6.51    0.83
  -3  11  -4    8.03    0.82
   3  11   4    7.22    0.88
   3 -11  -4    7.46    0.88
  -3 -11   4    7.48    0.81
   4  11  -4    8.07    0.88
  -4  11   4   10.18    0.92
  -4 -11  -4    9.44    1.08
   4  11  -4    9.52    1.05
  -4  11   4   11.93    1.13
   4 -11   4   10.32    1.10
  -4 -11  -4    9.41    0.95
  -4  11  -4    9.59    1.06
  -4 -11   4    9.47    0.91
   4 -11  -4   10.74    1.07
   4  11   4    9.29    1.00
   5  11  -4    0.40    0.39
  -5 -11  -4    0.39    0.42
   5 -11   4   -0.48    0.42
  -5 -11  -4    0.20    0.35
  -5  11   4    0.91    0.48
   5  11  -4    0.11    0.35
  -5  11   4    0.06    0.30
  -5 -11   4    0.49    0.37
   5 -11  -4    0.68    0.49
   5  11   4    0.55    0.49
  -5  11  -4    0.17    0.44
   6 -11   4    0.81    0.54
  -6  11   4    0.46    0.53
  -6 -11  -4    1.66    0.53
   6  11  -4    0.79    0.45
   6  11  -4    1.25    0.51
   6  11   4    1.52    0.53
  -6 -11   4    0.53    0.39
   6  11   4    0.54    0.51
  -6  11  -4    0.84    0.54
   6 -11  -4    1.50    0.60
   7 -11   4   13.70    1.44
  -7  11   4   15.08    1.45
  -7 -11  -4   13.41    1.16
   7  11  -4   14.71    1.11
   7  11  -4   13.25    1.29
  -7  11  -4   11.66    1.26
   7  11   4   13.12    1.22
  -7 -11   4   13.48    1.07
   7 -11  -4   11.67    1.24
   7  11   4    9.96    1.26
  -8  11   4   12.77    1.38
  -8 -11  -4   13.64    1.41
   8  11  -4   13.32    1.27
   8 -11   4   14.61    1.50
   8  11  -4   14.19    1.35
   8  11   4   12.52    1.43
   8 -11  -4   11.70    1.30
  -8  11  -4   15.74    1.55
   8  11   4   11.38    1.17
   9 -11   4   -0.07    0.65
  -9  11   4    1.10    0.71
  -9 -11  -4    0.32    0.52
   9 -11  -4    0.90    0.64
   9  11   4    0.61    0.63
  -9  11  -4   -0.39    0.54
 -10  11   4    2.74    0.89
  10 -11   4    2.01    0.85
 -10 -11  -4    5.97    1.12
  10  11   4    2.99    0.97
 -10  11  -4    2.52    0.91
  10 -11  -4    3.30    0.96
 -11 -11  -4   10.14    1.44
  11 -11   4    6.60    1.34
 -11  11   4    6.09    1.23
  11  11   4    5.35    1.22
  11 -11  -4    6.58    1.21
 -11  11  -4    5.39    1.16
   0  12  -4   35.20    1.63
   0 -12   4   37.25    1.68
   0  12   4   39.10    1.74
   0  12  -4   33.66    1.64
   0 -12  -4   37.09    1.80
  -1  12   4   16.51    1.04
  -1  12   4   15.41    1.09
   1  12  -4   16.45    1.12
   1 -12   4   15.27    1.16
  -1 -12  -4   15.57    1.17
   1  12  -4   16.53    1.14
   1  12   4   14.48    1.13
   1 -12  -4   16.30    1.19
  -1  12  -4   16.27    1.08
  -1 -12   4   17.87    1.16
  -1  12  -4   17.96    1.18
   2  12  -4    8.32    0.93
   2  12  -4    9.30    1.03
   2 -12   4    9.95    1.06
  -2 -12  -4   13.20    1.27
  -2  12   4   10.38    0.97
  -2  12   4   10.40    0.99
  -2  12  -4    7.31    0.91
  -2  12  -4    8.33    0.89
  -2 -12   4   10.83    1.01
   2 -12  -4    8.18    0.94
   2  12   4    8.20    0.92
  -3 -12  -4   22.18    1.45
   3  12  -4   21.42    1.37
  -3  12   4   20.46    1.21
   3  12  -4   18.88    1.26
  -3  12   4   23.36    1.35
   3 -12   4   22.27    1.39
  -3 -12   4   17.98    1.18
  -3  12  -4   19.22    1.31
   3 -12  -4   19.63    1.31
   3  12   4   19.77    1.27
  -3  12  -4   22.03    1.21
  -4 -12  -4   10.78    1.24
  -4  12   4    8.00    0.85
   4  12  -4    7.89    0.98
   4 -12   4    8.11    1.03
  -4  12   4    6.89    0.91
   4  12  -4    8.22    0.99
   4 -12  -4    8.11    1.03
  -4  12  -4    6.44    0.77
  -4 -12   4    6.21    0.79
   4  12   4    6.78    0.88
  -4  12  -4    5.57    0.81
   5  12  -4    0.85    0.43
  -5  12   4    0.94    0.55
   5 -12   4    1.66    0.65
   5  12  -4    0.99    0.49
  -5 -12  -4    1.10    0.56
   5 -12  -4    2.63    0.69
   5  12   4    2.75    0.67
  -5 -12   4    2.42    0.58
  -5  12  -4    2.34    0.72
  -6 -12  -4   13.27    1.28
  -6 -12  -4   10.89    1.27
  -6  12   4   12.10    1.28
   6 -12   4   13.52    1.37
   6  12  -4   14.01    1.31
   6  12  -4   11.24    1.16
   6 -12  -4   13.68    1.37
  -6  12  -4   11.94    1.31
   6  12   4   11.07    1.17
  -6 -12   4   12.23    1.05
   7  12  -4    3.88    0.79
  -7  12   4    3.40    0.81
  -7 -12  -4    2.83    0.69
   7 -12   4    3.56    0.90
   7  12  -4    2.64    0.69
  -7 -12   4    3.04    0.68
   7 -12  -4    2.58    0.75
   7  12   4    1.92    0.65
  -7  12  -4    1.89    0.69
   8 -12   4    0.75    0.72
  -8 -12  -4    1.72    0.64
  -8  12   4    0.91    0.71
   8  12  -4    0.88    0.52
   8  12   4    0.87    0.55
  -8  12  -4    0.53    0.60
   8  12   4    0.73    0.66
   8 -12  -4    1.30    0.67
  -9 -12  -4   16.33    1.65
  -9  12   4   20.47    1.92
   9 -12   4   17.06    1.75
   9 -12  -4   14.45    1.55
   9  12   4   13.30    1.58
  -9  12  -4   17.08    1.74
 -10 -12  -4   -0.33    0.59
  10 -12   4   -0.25    0.74
 -10  12   4   -0.76    0.57
  10 -12  -4    1.09    0.77
 -10  12  -4   -0.43    0.56
  10  12   4    0.26    0.68
   0  13  -4   -0.02    0.31
   0 -13   4    0.21    0.37
   0  13  -4   -0.34    0.28
   0 -13  -4    0.32    0.44
   0  13   4    0.68    0.43
   1  13  -4   25.55    1.44
  -1 -13  -4   25.16    1.54
  -1  13   4   25.14    1.40
   1  13  -4   23.97    1.43
   1 -13   4   22.13    1.41
  -1  13  -4   23.22    1.32
   1  13   4   22.29    1.37
  -1 -13   4   22.65    1.38
   1 -13  -4   25.57    1.51
  -2  13   4   17.51    1.18
   2  13  -4   15.41    1.17
   2  13  -4   18.04    1.27
   2 -13   4   16.30    1.27
  -2  13   4   17.50    1.18
  -2 -13  -4   15.55    1.29
  -2  13  -4   14.54    1.06
   2 -13  -4   13.68    1.18
  -2  13  -4   14.86    1.17
  -2 -13   4   15.27    1.11
   2  13   4   15.22    1.22
   3  13  -4    1.68    0.53
   3  13  -4    2.22    0.62
  -3 -13  -4    2.25    0.65
  -3  13   4    2.36    0.58
   3 -13   4    2.28    0.64
  -3  13   4    2.43    0.62
   3 -13  -4    3.30    0.70
  -3  13  -4    3.60    0.66
   3  13   4    2.49    0.67
  -3  13  -4    2.45    0.68
  -3 -13   4    2.62    0.58
   4  13  -4   20.72    1.37
  -4  13   4   22.02    1.48
   4  13  -4   25.02    1.56
  -4  13   4   24.11    1.34
  -4 -13  -4   21.40    1.53
   4 -13   4   25.72    1.64
   4 -13  -4   25.24    1.60
  -4  13  -4   24.79    1.57
  -4  13  -4   24.94    1.35
  -4 -13   4   26.49    1.47
   4  13   4   23.47    1.52
   5  13  -4    5.36    0.84
  -5 -13  -4    6.03    1.00
   5  13  -4    4.90    0.83
  -5  13   4    5.11    0.91
   5 -13   4    5.00    0.92
  -5  13  -4    4.88    0.88
  -5 -13   4    5.09    0.81
   5  13   4    5.60    0.91
   5 -13  -4    5.82    0.98
  -6  13   4    1.55    0.68
   6 -13   4    1.21    0.65
   6  13  -4    0.71    0.51
  -6 -13  -4    1.60    0.61
   6  13  -4    1.82    0.63
   6  13   4    1.84    0.68
  -6  13  -4    1.00    0.65
  -6 -13   4    0.47    0.50
   6 -13  -4    1.53    0.63
   7  13  -4    7.98    1.02
  -7  13   4    7.47    1.15
  -7 -13  -4    6.37    1.08
   7 -13   4    6.82    1.13
  -7 -13   4    7.07    0.98
  -7  13  -4    8.70    1.25
   7  13   4    9.18    1.19
   7 -13  -4    9.42    1.27
  -8  13   4   11.27    1.43
   8 -13   4   10.61    1.36
   8  13  -4   11.30    1.27
   8  13   4   11.28    1.24
  -8  13  -4    8.90    1.25
   8 -13  -4   11.05    1.38
   9 -13   4   -0.11    0.75
  -9  13   4   -0.33    0.66
  -9  13  -4    0.03    0.61
   9 -13  -4   -0.20    0.64
   0 -14   4    0.02    0.39
   0  14  -4    0.21    0.37
   0 -14  -4   -0.36    0.43
   0  14  -4    0.71    0.44
   0  14   4   -0.15    0.42
   1  14  -4    2.01    0.59
  -1 -14  -4    0.70    0.54
  -1  14   4    1.10    0.53
   1  14  -4    2.77    0.66
   1 -14   4    2.00    0.63
  -1 -14   4    3.01    0.69
  -1  14  -4    1.94    0.57
   1  14   4    2.51    0.64
  -1  14  -4    1.31    0.49
   1 -14  -4    2.25    0.69
   2  14  -4   20.12    1.41
  -2  14   4   18.62    1.28
  -2 -14  -4   22.69    1.57
   2  14  -4   19.46    1.35
   2 -14   4   19.59    1.45
   2  14   4   20.53    1.42
  -2  14  -4   22.22    1.45
  -2  14  -4   19.81    1.29
  -2 -14   4   18.88    1.32
   2 -14  -4   18.13    1.38
   3 -14   4   24.59    1.59
   3  14  -4   22.83    1.55
  -3  14   4   22.39    1.46
   3  14  -4   24.36    1.52
  -3 -14  -4   23.19    1.62
  -3  14   4   22.91    1.38
   3 -14  -4   23.99    1.58
  -3 -14   4   23.69    1.45
   3  14   4   23.59    1.57
  -3  14  -4   22.19    1.35
  -3  14  -4   22.10    1.50
  -4 -14  -4    8.28    1.18
   4 -14   4    5.24    0.91
   4  14  -4    4.24    0.85
   4  14  -4    5.45    0.84
  -4  14   4    4.27    0.85
  -4  14   4    4.42    0.74
   4  14   4    5.07    0.91
  -4  14  -4    4.57    0.77
  -4  14  -4    3.66    0.84
  -4 -14   4    6.84    0.93
   4 -14  -4    3.34    0.81
   5 -14   4   11.05    1.32
  -5  14   4    9.70    1.22
   5  14  -4    8.72    1.14
   5  14  -4    8.48    1.06
  -5 -14  -4    8.84    1.23
  -5 -14   4    9.79    1.12
  -5  14  -4    7.88    1.14
   5 -14  -4    8.04    1.14
   5  14   4    6.76    1.02
  -6  14   4   10.94    1.39
  -6 -14  -4    9.89    1.33
   6 -14   4   12.45    1.46
   6  14  -4   10.95    1.28
  -6 -14   4   12.88    1.31
   6 -14  -4   13.80    1.48
  -6  14  -4   10.32    1.31
   6  14   4   10.25    1.22
  -7 -14  -4    5.90    1.07
   7 -14   4    6.03    1.15
   7  14  -4    4.86    0.89
  -7  14   4    4.90    1.04
   7 -14  -4    5.29    1.03
  -7  14  -4    5.99    1.13
   7  14   4    5.62    0.99
   8 -14   4    2.18    0.88
  -8  14   4    4.11    1.01
  -8 -14  -4    3.03    0.91
   8  14  -4    3.98    0.87
   8 -14  -4    1.89    0.83
   8  14   4    2.33    0.77
  -8  14  -4    2.46    0.89
  -9  14   4    6.44    1.26
   9 -14   4    4.69    1.12
  -9 -14  -4    7.32    1.29
   9 -14  -4    5.74    1.24
  -9  14  -4    6.07    1.20
   0  15  -4    4.30    0.82
   0 -15  -4    5.61    0.93
   0  15  -4    4.51    0.79
   0 -15   4    5.52    0.84
   0  15   4    6.08    0.95
  -1  15   4    8.13    1.06
   1 -15   4    7.87    1.08
   1  15  -4    8.99    1.12
   1  15  -4    6.64    0.95
  -1 -15  -4    8.96    1.23
  -1  15  -4    6.13    0.96
  -1  15  -4    8.52    1.05
  -1 -15   4    7.94    1.01
   1 -15  -4    8.52    1.17
   1  15   4    7.85    1.04
   2  15  -4   14.98    1.43
  -2 -15  -4   13.81    1.47
  -2  15   4   12.93    1.26
   2 -15   4   12.80    1.33
   2  15  -4   12.97    1.41
  -2  15  -4   12.20    1.25
   2  15   4   15.70    1.32
  -2  15  -4   14.50    1.21
  -2 -15   4   11.61    1.20
   2 -15  -4   13.15    1.34
   3 -15   4   15.52    1.47
  -3  15   4   14.25    1.19
   3  15  -4   15.22    1.29
   3  15  -4   15.88    1.56
  -3 -15  -4   18.23    1.72
  -3 -15   4   12.98    1.29
  -3  15  -4   13.64    1.42
   3 -15  -4   14.45    1.52
  -3  15  -4   12.74    1.25
   3  15   4   11.49    1.26
  -4  15   4   18.55    1.48
   4 -15   4   19.39    1.58
  -4 -15  -4   17.37    1.52
  -4  15   4   19.67    1.37
   4  15  -4   17.11    1.43
   4  15  -4   17.29    1.36
  -4 -15   4   16.38    1.31
   4 -15  -4   17.26    1.51
  -4  15  -4   18.72    1.51
  -4  15  -4   16.85    1.41
   4  15   4   19.32    1.50
   5 -15   4   15.30    1.61
  -5 -15  -4   12.75    1.53
   5  15  -4   14.27    1.45
  -5  15   4   11.98    1.38
   5  15   4   13.04    1.36
  -5  15  -4   13.26    1.44
  -5 -15   4   14.47    1.41
   5 -15  -4   14.16    1.53
   6  15  -4    5.74    1.00
  -6  15   4    3.51    0.94
   6 -15   4    4.90    1.07
  -6 -15  -4    5.18    1.06
   6 -15  -4    5.42    1.03
  -6  15  -4    3.58    0.88
  -6 -15   4    5.94    0.94
   6  15   4    4.83    0.98
   7  15  -4    8.67    1.18
  -7 -15  -4   13.58    1.69
  -7  15   4    9.27    1.37
   7 -15   4    8.14    1.28
   7 -15  -4   14.90    1.71
   7  15   4    9.18    1.24
  -7  15  -4    8.96    1.34
   8  15  -4    4.97    0.99
  -8 -15  -4    4.85    1.09
   8 -15   4    4.77    1.13
  -8  15   4    3.75    1.07
  -8  15  -4    3.62    1.01
   8  15   4    2.73    0.87
   8 -15  -4    2.97    0.99
   0  16   4    2.77    0.74
   0  16  -4    0.99    0.52
   0 -16   4    1.49    0.64
   0 -16  -4    2.29    0.76
   0  16  -4    1.51    0.61
  -1  16   4   24.43    1.61
  -1 -16  -4   25.59    1.79
   1  16  -4   23.71    1.58
   1 -16   4   26.60    1.71
   1  16  -4   22.90    1.61
  -1 -16   4   20.85    1.52
  -1  16  -4   23.93    1.56
   1 -16  -4   24.58    1.73
  -1  16  -4   26.44    1.67
   1  16   4   27.04    1.74
  -2 -16  -4   14.88    1.60
   2 -16   4   13.40    1.44
  -2  16   4   13.19    1.37
   2  16  -4   14.83    1.48
   2  16  -4   11.80    1.34
   2  16   4   12.20    1.36
  -2  16  -4   13.79    1.36
   2 -16  -4   12.47    1.38
  -2 -16   4   14.30    1.36
  -2  16  -4   12.10    1.35
   3 -16   4    0.29    0.60
  -3 -16  -4    1.35    0.72
   3  16  -4    0.60    0.59
  -3  16   4    1.18    0.57
   3  16  -4    0.58    0.51
   3  16   4    0.52    0.59
  -3 -16   4    0.11    0.51
  -3  16  -4    0.61    0.49
  -3  16  -4    0.38    0.54
   3 -16  -4    0.61    0.64
  -4 -16  -4   13.53    1.58
  -4  16   4   12.57    1.41
   4 -16   4   13.63    1.52
   4  16  -4   14.19    1.44
   4  16   4   12.93    1.43
  -4  16  -4   11.47    1.35
   4 -16  -4   14.39    1.57
  -4 -16   4   13.33    1.37
   5  16  -4    8.86    1.17
  -5 -16  -4   10.28    1.43
   5 -16   4    7.87    1.23
  -5  16   4    6.57    1.15
  -5  16  -4   10.17    1.32
   5  16   4    9.25    1.29
  -5 -16   4   10.61    1.21
   5 -16  -4    7.65    1.24
  -6  16   4    1.54    0.80
   6 -16   4    1.06    0.83
  -6 -16  -4   -0.30    0.57
   6  16  -4    0.38    0.54
   6  16   4    0.09    0.58
  -6 -16   4    0.16    0.55
  -6  16  -4    0.32    0.60
   6 -16  -4    1.11    0.76
   7 -16   4    8.56    1.33
  -7 -16  -4   11.44    1.60
   7  16  -4   11.44    1.38
  -7  16   4    9.45    1.43
   7  16   4   10.80    1.40
  -7  16  -4   11.03    1.51
   7 -16  -4   10.51    1.49
   0  17  -4   35.30    1.99
   0 -17  -4   35.79    2.18
   0  17  -4   33.61    2.01
   0  17   4   35.56    2.03
   0 -17   4   34.89    2.04
  -1 -17  -4    4.67    1.03
   1  17  -4    2.47    0.73
   1 -17   4    3.32    0.87
   1  17  -4    4.19    0.89
  -1  17   4    2.60    0.75
  -1  17  -4    3.23    0.77
  -1  17  -4    3.54    0.85
   1 -17  -4    3.65    0.96
  -1 -17   4    2.70    0.80
   1  17   4    2.83    0.81
   2  17  -4    2.08    0.71
   2  17  -4    1.85    0.67
  -2 -17  -4    2.41    0.88
   2 -17   4    2.18    0.81
  -2  17   4    1.14    0.63
  -2  17  -4    2.91    0.77
   2 -17  -4    1.78    0.76
  -2  17  -4    1.22    0.62
   2  17   4    1.19    0.72
  -2 -17   4    1.70    0.71
  -3  17   4   23.25    1.64
   3 -17   4   28.42    1.95
   3  17  -4   24.69    1.72
  -3 -17  -4   24.86    1.90
  -3  17  -4   23.25    1.57
  -3  17  -4   28.17    1.87
   3  17   4   28.08    1.91
   3 -17  -4   22.01    1.79
  -3 -17   4   21.31    1.59
   4  17  -4    3.40    0.86
   4 -17   4    1.35    0.78
  -4 -17  -4    3.33    0.95
  -4 -17   4    2.85    0.76
  -4  17  -4    2.30    0.74
   4 -17  -4    3.09    0.89
   4  17   4    3.78    0.96
  -5 -17  -4   -0.15    0.59
   5 -17   4    0.42    0.77
   5  17  -4    0.14    0.57
  -5  17  -4    0.88    0.71
   5  17   4   -0.30    0.55
  -5 -17   4    0.66    0.59
   5 -17  -4   -0.83    0.64
  -6 -17  -4   13.07    1.72
   6 -17   4   12.50    1.59
   6  17  -4   14.32    1.60
  -6  17   4    9.48    1.39
   6 -17  -4   16.23    1.73
   6  17   4   11.48    1.50
  -6  17  -4   12.78    1.58
   0  18  -4   -0.22    0.51
   0 -18  -4   -0.36    0.60
   0 -18   4    0.32    0.60
   0  18  -4    0.65    0.58
   0  18   4    0.42    0.60
   1  18  -4    9.91    1.33
   1 -18   4    9.65    1.31
  -1 -18  -4   11.89    1.52
  -1  18   4   12.42    1.44
   1  18  -4   11.32    1.40
   1  18   4    9.61    1.31
  -1 -18   4   13.31    1.45
  -1  18  -4    8.85    1.27
   1 -18  -4   12.53    1.53
  -1  18  -4    9.10    1.24
  -2  18   4   10.29    1.30
  -2 -18  -4   12.10    1.54
   2 -18   4    8.62    1.30
   2  18  -4   12.64    1.48
  -2 -18   4   13.04    1.43
   2  18   4   10.32    1.38
   2 -18  -4   11.38    1.47
  -2  18  -4   11.50    1.38
  -2  18  -4   10.64    1.30
   3 -18   4    0.10    0.71
  -3 -18  -4    0.16    0.70
   3  18  -4    1.62    0.71
  -3  18   4    0.39    0.60
   3 -18  -4    0.73    0.71
  -3 -18   4    0.28    0.61
  -3  18  -4    0.24    0.60
   3  18   4    1.50    0.76
  -3  18  -4    1.40    0.69
  -4 -18  -4    2.80    0.97
   4 -18   4    1.74    0.89
   4  18  -4    2.37    0.85
   4  18   4    3.51    0.97
  -4  18  -4    2.34    0.84
   4 -18  -4    2.34    0.95
  -4 -18   4    2.94    0.84
   0 -19  -4   17.78    1.89
   0 -19   4   20.18    1.88
   0  19  -4   17.97    1.76
   0  19   4   15.69    1.68
   0  19  -4   18.40    1.87
   1  19  -4    3.97    0.99
  -1  19   4    3.35    0.89
   1 -19   4    4.10    0.99
  -1 -19  -4    2.49    0.96
   1 -19  -4    3.06    0.95
  -1  19  -4    3.97    1.02
   1  19   4    5.77    1.13
  -1  19  -4    2.33    0.82
  -1 -19   4    5.56    1.04
  -2 -19  -4    3.26    1.05
   2  19  -4    1.99    0.83
  -2  19   4    2.39    0.82
   2 -19   4    0.65    0.81
  -2  19  -4    2.38    0.80
   2  19   4    3.05    0.89
   2 -19  -4    2.16    0.92
  -2  19  -4    2.25    0.80
  -2 -19   4    1.97    0.79
   0   0  -5   -0.11    0.13
   0   0  -5   -0.15    0.15
   0   0   5    0.00    0.10
   0   0   5   -0.03    0.16
  -1   0   5    3.93    0.43
   1   0   5    3.58    0.40
  -1   0  -5    3.60    0.43
   1   0  -5    3.96    0.44
   1   0  -5    3.61    0.38
   1   0   5    4.43    0.34
  -1   0  -5    3.72    0.30
   2   0  -5   26.55    1.01
   2   0  -5   29.12    1.08
   2   0   5   26.66    1.01
   2   0   5   28.18    1.01
  -2   0  -5   27.78    0.86
  -2   0  -5   28.77    1.10
  -2   0   5   25.97    1.00
   3   0  -5    0.34    0.22
  -3   0  -5    0.48    0.25
   3   0  -5    0.32    0.20
  -3   0   5    0.95    0.25
   3   0  -5    0.79    0.14
  -3   0  -5    0.61    0.19
   3   0   5    0.54    0.21
   3   0   5    0.05    0.20
   4   0  -5   83.95    2.15
   4   0   5   82.78    2.54
   4   0  -5   83.57    2.51
  -4   0  -5   85.64    2.55
   4   0   5   83.43    2.22
  -4   0  -5   89.44    2.21
  -4   0   5   83.50    2.28
  -4   0   5   86.49    2.41
  -5   0  -5    5.54    0.68
   5   0   5    7.53    0.75
   5   0  -5    4.69    0.60
  -5   0   5    5.59    0.52
  -5   0  -5    5.77    0.47
   5   0  -5    5.31    0.44
  -5   0   5    5.68    0.60
   5   0   5    6.31    0.47
  -6   0  -5   23.92    1.02
  -6   0   5   23.16    0.97
   6   0  -5   22.49    1.24
  -6   0   5   22.14    1.12
   6   0   5   21.87    0.85
   6   0  -5   22.87    1.02
  -6   0  -5   23.91    1.27
   6   0   5   22.28    1.27
   7   0   5  110.51    3.57
   7   0  -5  109.04    3.16
   7   0  -5  109.94    3.45
  -7   0   5  112.76    3.24
  -7   0  -5  109.85    3.48
  -7   0  -5  114.81    3.03
  -8   0  -5    3.96    0.59
   8   0  -5    2.62    0.60
  -8   0   5    2.80    0.57
   8   0  -5    2.49    0.52
   8   0   5    4.49    0.85
  -8   0  -5    4.19    0.77
   9   0   5   32.20    1.88
  -9   0  -5   32.48    1.48
  -9   0  -5   31.55    1.80
  -9   0   5   28.27    1.52
   9   0  -5   31.71    1.79
 -10   0   5    5.47    0.85
 -10   0  -5    3.96    0.86
  10   0   5    3.05    0.79
  10   0  -5    4.57    0.90
 -11   0   5    0.63    0.46
  11   0  -5    0.14    0.53
 -11   0  -5   -0.48    0.51
  11   0   5    0.76    0.65
 -12   0  -5    0.48    0.63
 -12   0   5   -0.22    0.45
  12   0  -5    0.36    0.56
  12   0   5   -0.20    0.62
 -13   0   5   22.23    1.68
  13   0   5   20.06    2.12
  13   0  -5   22.15    2.18
 -13   0  -5   20.80    2.04
   0  -1  -5    1.04    0.20
   0   1  -5    0.77    0.21
   0   1   5    1.02    0.17
   0  -1   5    1.52    0.29
   0   1  -5    0.86    0.23
   0  -1   5    1.17    0.16
   0  -1  -5    1.20    0.28
   0   1   5    1.28    0.28
  -1   1   5  151.16    3.67
   1   1  -5  150.81    3.62
  -1  -1  -5  146.38    3.81
   1  -1   5  149.95    3.65
   1  -1   5  154.96    3.59
  -1  -1  -5  155.43    3.38
   1   1  -5  154.51    3.73
   1  -1  -5  153.94    3.82
   1   1   5  155.78    3.67
  -1   1  -5  142.79    3.74
  -1   1  -5  152.11    3.49
   1   1   5  156.66    3.68
   1  -1  -5  158.98    3.42
   1  -1  -5  149.83    3.50
  -1  -1   5  147.29    3.63
   2   1  -5   33.58    1.20
  -2   1   5   36.15    1.20
  -2  -1  -5   32.86    1.24
  -2  -1  -5   34.52    0.93
   2   1  -5   33.20    1.20
   2  -1   5   34.56    1.16
   2  -1   5   32.89    1.13
   2  -1  -5   32.87    0.85
   2   1   5   33.53    1.14
   2   1   5   31.72    1.15
   2  -1  -5   33.27    1.23
   2  -1  -5   32.48    1.11
  -2   1  -5   34.20    1.05
  -2   1  -5   34.36    1.20
  -2  -1   5   31.13    1.11
   3  -1   5   51.95    1.72
  -3  -1  -5   56.41    1.83
  -3   1   5   54.41    1.65
  -3   1   5   55.55    1.67
   3   1  -5   56.21    1.35
   3   1  -5   54.25    1.74
   3  -1   5   52.52    1.59
   3   1  -5   55.37    1.73
  -3  -1  -5   57.48    1.42
  -3   1  -5   51.70    1.73
   3  -1  -5   56.64    1.41
   3   1   5   56.17    1.79
   3  -1  -5   52.35    1.75
  -3   1  -5   54.87    1.56
   3   1   5   55.64    1.61
  -3  -1   5   54.29    1.62
  -4  -1  -5   49.76    1.80
  -4  -1  -5   51.16    1.42
  -4   1   5   52.06    1.65
   4  -1   5   53.19    1.79
   4   1  -5   50.68    1.42
   4   1  -5   51.11    1.71
  -4   1   5   51.67    1.58
   4  -1   5   51.71    1.52
   4   1  -5   49.73    1.74
   4  -1  -5   47.67    1.35
   4   1   5   45.58    1.42
  -4   1  -5   45.72    1.44
   4   1   5   48.85    1.73
  -4   1  -5   48.46    1.67
   4  -1  -5   45.67    1.66
  -4  -1   5   44.00    1.44
   5  -1   5   26.84    0.95
   5   1  -5   26.57    1.24
   5   1  -5   25.86    0.99
   5  -1   5   25.24    1.23
  -5   1   5   27.27    1.03
  -5  -1  -5   26.55    0.96
  -5   1   5   28.17    1.18
  -5  -1  -5   23.95    1.22
   5   1   5   28.58    1.35
  -5  -1   5   28.19    1.07
  -5   1  -5   27.36    1.30
   5   1   5   29.85    1.03
   5  -1  -5   27.89    1.03
   5  -1  -5   29.30    1.32
  -5   1  -5   27.85    1.09
  -5  -1   5   27.64    1.22
   6   1  -5   27.86    1.37
  -6   1   5   27.01    1.04
   6  -1   5   28.90    1.41
  -6   1   5   27.33    1.24
   6   1  -5   27.69    1.12
  -6  -1  -5   25.61    1.02
  -6  -1  -5   26.84    1.38
   6  -1   5   27.72    0.94
   6   1   5   27.41    1.42
   6  -1  -5   25.71    1.09
  -6   1  -5   26.71    1.15
   6   1   5   25.82    0.96
  -6  -1   5   26.09    1.22
   6  -1  -5   26.44    1.33
  -6   1  -5   28.87    1.38
  -6  -1   5   25.94    1.03
   7   1  -5    5.58    0.64
  -7  -1  -5    4.97    0.56
   7  -1   5    4.01    0.70
   7   1  -5    5.90    0.80
  -7   1   5    3.43    0.55
  -7  -1  -5    3.53    0.67
  -7   1  -5    4.22    0.69
   7  -1  -5    5.14    0.61
  -7  -1   5    6.07    0.58
   7   1   5    5.61    0.82
  -7   1  -5    4.75    0.59
   7  -1  -5    4.38    0.69
  -7  -1   5    5.01    0.66
  -8  -1  -5  107.12    3.63
   8   1  -5  104.89    3.56
  -8  -1  -5  116.55    3.10
   8  -1   5  110.86    3.70
   8   1  -5  114.14    3.33
  -8   1   5  113.57    3.36
   8  -1  -5  100.36    3.46
  -8   1  -5  113.80    3.59
   8  -1  -5  107.45    3.25
  -8   1  -5  113.79    3.15
   8   1   5  104.10    3.61
  -8  -1   5  105.39    3.24
   9   1  -5    1.41    0.55
  -9  -1  -5    1.70    0.58
  -9   1   5    2.51    0.62
   9  -1   5    1.30    0.64
   9   1   5    0.82    0.54
  -9   1  -5    1.07    0.46
  -9   1  -5    1.47    0.61
  -9  -1   5    2.18    0.56
   9  -1  -5    0.64    0.51
  10   1  -5    4.53    0.90
  10  -1   5    5.79    1.05
 -10  -1  -5    3.60    0.81
 -10   1   5    4.33    0.81
 -10   1  -5    4.91    0.77
 -10  -1   5    4.49    0.75
 -10   1  -5    4.69    0.91
  10   1   5    3.00    0.81
  10  -1  -5    4.57    0.91
  11   1  -5    3.20    0.81
  11  -1   5    4.22    0.98
 -11  -1  -5    5.17    1.04
 -11   1   5    3.81    0.80
 -11  -1   5    5.83    0.89
  11   1   5    5.57    1.05
 -11   1  -5    4.76    0.97
  11  -1  -5    6.34    1.11
  12   1  -5    6.87    1.22
  12  -1   5    5.39    1.13
 -12  -1  -5    7.20    1.23
 -12   1   5    5.59    0.95
 -12  -1   5    7.56    1.13
  12  -1  -5    8.69    1.33
  12   1   5    7.57    1.34
 -12   1  -5    8.31    1.34
 -13  -1  -5   -0.03    0.68
  13  -1   5   -0.36    0.70
 -13   1   5    0.76    0.61
  13   1  -5   -0.78    0.58
 -13   1  -5   -0.64    0.65
  13   1   5    0.17    0.75
 -13  -1   5    0.62    0.62
  13  -1  -5    1.33    0.80
   0   2   5   35.81    1.20
   0  -2  -5   34.67    0.98
   0  -2  -5   32.17    1.26
   0  -2   5   35.04    0.97
   0   2  -5   34.42    1.16
   0   2  -5   33.68    1.15
   0  -2   5   35.71    1.16
   0   2   5   35.11    1.06
  -1  -2  -5  113.02    2.53
   1   2  -5  110.43    2.89
  -1  -2  -5  119.88    3.08
  -1   2   5  116.83    2.69
   1  -2   5  112.02    2.84
  -1   2   5  107.73    2.86
   1   2  -5  114.81    2.89
   1  -2   5  116.41    2.79
   1  -2  -5  120.42    2.81
  -1  -2   5  119.89    2.97
  -1   2  -5  117.84    2.87
  -1   2  -5  123.25    3.04
  -1  -2   5  119.77    2.68
   1   2   5  117.76    2.98
   1   2   5  114.19    2.98
   1  -2  -5  119.71    3.14
  -2   2   5   42.69    1.39
   2  -2   5   43.95    1.37
  -2  -2  -5   46.58    1.09
   2   2  -5   45.02    1.42
   2  -2   5   43.43    1.38
  -2  -2  -5   42.93    1.51
  -2   2   5   44.06    1.33
   2   2  -5   43.89    1.49
   2  -2  -5   48.97    1.30
  -2   2  -5   48.36    1.53
   2   2   5   47.72    1.59
   2   2   5   49.60    1.52
   2  -2  -5   49.06    1.62
  -2  -2   5   50.67    1.52
  -2  -2   5   50.67    1.18
  -2   2  -5   50.99    1.47
  -3  -2  -5   70.46    2.26
  -3   2   5   78.33    2.11
   3   2  -5   77.33    2.21
   3  -2   5   77.61    2.21
  -3   2   5   73.79    2.09
   3  -2   5   76.14    2.07
   3   2  -5   77.64    1.83
  -3  -2  -5   78.14    1.76
   3   2  -5   75.00    2.22
   3  -2  -5   81.18    2.40
  -3   2  -5   82.08    2.34
   3   2   5   83.33    2.22
  -3  -2   5   82.01    2.23
   3   2   5   81.18    2.44
  -3   2  -5   84.33    2.22
   3  -2  -5   83.42    2.07
  -4  -2  -5   72.50    1.74
  -4   2   5   69.25    2.06
   4  -2   5   71.87    2.20
  -4  -2  -5   70.28    2.27
   4   2  -5   70.61    2.18
   4  -2   5   69.23    1.92
   4   2  -5   69.40    1.82
  -4   2   5   67.20    1.95
   4   2  -5   68.91    2.15
  -4   2  -5   72.22    2.20
  -4   2  -5   69.33    2.03
   4   2   5   71.99    2.00
   4  -2  -5   71.44    2.26
  -4  -2   5   71.53    2.02
   4   2   5   75.18    2.35
   4  -2  -5   71.98    1.93
   5  -2   5   29.20    1.32
  -5  -2  -5   29.99    0.98
   5  -2   5   28.78    1.02
   5   2  -5   28.42    1.27
   5   2  -5   29.93    1.34
  -5  -2  -5   29.59    1.37
  -5   2   5   29.29    1.24
   5   2  -5   30.08    1.06
  -5   2   5   28.48    1.06
  -5  -2   5   31.98    1.15
  -5   2  -5   31.28    1.36
   5   2   5   33.53    1.48
   5  -2  -5   30.97    1.38
   5   2   5   31.21    1.12
  -5   2  -5   29.53    1.20
   5  -2  -5   29.24    1.11
  -6   2   5   11.16    0.62
   6   2  -5   12.08    0.71
   6  -2   5   11.41    0.58
  -6  -2  -5   10.29    0.60
  -6  -2  -5   10.63    0.90
  -6   2   5   11.05    0.81
   6   2  -5    9.58    0.83
   6  -2   5   10.40    0.89
   6   2   5   11.65    0.95
  -6   2  -5   14.38    0.85
  -6  -2   5   13.07    0.87
   6   2   5   12.93    0.68
  -6  -2   5   11.89    0.70
   6  -2  -5   11.72    0.73
  -6   2  -5   12.56    0.91
   6  -2  -5    9.89    0.85
  -7  -2  -5   33.37    1.65
  -7  -2  -5   30.97    1.19
   7   2  -5   33.01    1.35
  -7   2   5   30.70    1.43
   7   2  -5   31.75    1.57
   7  -2   5   31.23    1.59
  -7   2  -5   31.32    1.54
   7  -2  -5   29.74    1.54
  -7  -2   5   29.73    1.17
  -7   2  -5   30.01    1.35
   7   2   5   31.10    1.63
  -7  -2   5   30.80    1.41
   7  -2  -5   28.53    1.29
  -8  -2  -5    8.10    1.03
   8   2  -5    8.48    0.87
  -8   2   5    8.08    0.89
   8  -2   5    7.57    0.98
   8   2  -5    6.77    0.90
  -8   2  -5    6.73    0.80
   8  -2  -5    7.53    0.93
  -8   2  -5    7.52    0.94
   8  -2  -5    8.03    0.85
  -8  -2   5    8.27    0.89
   8   2   5    4.61    0.81
  -9   2   5   31.53    1.61
   9  -2   5   31.83    1.87
   9   2  -5   31.25    1.78
  -9  -2  -5   31.15    1.82
   9   2   5   32.18    1.92
   9  -2  -5   32.63    1.83
  -9  -2   5   31.78    1.61
  -9   2  -5   33.25    1.62
  -9   2  -5   32.65    1.83
  10   2  -5    3.23    0.81
 -10   2   5    4.66    0.83
  10  -2   5    4.60    0.98
 -10  -2  -5    4.54    0.92
 -10   2  -5    3.12    0.79
  10   2   5    2.19    0.74
 -10   2  -5    3.60    0.71
 -10  -2   5    3.24    0.69
  10  -2  -5    1.77    0.67
 -11   2   5    4.60    0.87
  11   2  -5    3.69    0.92
 -11  -2  -5    3.80    0.93
  11  -2   5    3.52    0.94
 -11   2  -5    2.12    0.69
 -11  -2   5    1.84    0.61
 -11   2  -5    1.30    0.70
  11   2   5    2.32    0.81
  11  -2  -5    2.91    0.79
 -12  -2  -5    6.87    1.24
 -12   2   5    6.26    1.02
  12  -2   5    6.62    1.21
  12   2  -5    7.99    1.26
  12   2   5    5.02    1.15
 -12  -2   5    5.69    0.97
 -12   2  -5    6.51    1.16
  12  -2  -5    8.12    1.34
  13   2  -5    5.88    1.26
 -13   2   5    7.92    1.19
  13  -2   5    8.43    1.44
 -13  -2  -5    7.60    1.31
 -13   2  -5   11.40    1.60
  13  -2  -5   11.38    1.59
 -13  -2   5   11.00    1.35
  13   2   5    6.97    1.33
   0   3  -5    5.51    0.52
   0   3   5    5.03    0.29
   0   3  -5    5.79    0.41
   0  -3  -5    3.98    0.47
   0  -3   5    4.32    0.42
   0   3   5    4.27    0.43
   0  -3   5    4.77    0.32
   1   3  -5   40.72    1.24
  -1   3   5   39.70    1.13
   1  -3   5   38.42    1.25
   1  -3   5   38.32    1.19
   1   3  -5   35.41    1.31
  -1  -3  -5   38.89    1.42
  -1   3   5   38.46    1.28
  -1  -3   5   38.91    1.04
   1  -3  -5   38.21    1.15
  -1  -3   5   36.48    1.24
   1  -3  -5   37.95    1.39
  -1   3  -5   35.88    1.23
   1   3   5   37.28    1.27
   1   3   5   40.94    0.93
  -1   3  -5   38.32    1.25
   2  -3   5   24.82    0.97
   2  -3   5   24.41    0.94
  -2  -3  -5   24.56    1.09
   2   3  -5   26.02    0.98
  -2   3   5   24.59    0.97
  -2   3   5   25.88    0.93
   2   3  -5   27.98    1.13
  -2   3  -5   24.15    0.97
   2  -3  -5   25.14    0.85
  -2   3  -5   25.11    0.96
   2  -3  -5   25.25    1.07
  -2  -3   5   25.83    0.75
   2   3   5   25.19    0.98
  -2  -3   5   24.81    0.98
   2   3   5   24.40    1.04
  -3  -3  -5  106.89    2.23
   3  -3   5  106.61    2.67
   3  -3   5  105.59    2.85
  -3  -3  -5  104.56    2.96
   3   3  -5  103.71    2.80
  -3   3   5  103.48    2.70
   3   3  -5  102.01    2.88
  -3   3   5  107.33    2.71
   3  -3  -5  102.59    2.88
  -3   3  -5  103.53    2.77
   3   3   5  106.84    2.71
  -3  -3   5  101.38    2.46
  -3  -3   5  104.07    2.70
   3   3   5  102.68    2.95
  -3   3  -5  105.73    2.72
   3  -3  -5  100.98    2.58
   4   3  -5    9.78    0.50
   4  -3   5   11.37    0.62
   4   3  -5   10.01    0.74
   4  -3   5   10.86    0.74
  -4  -3  -5    9.86    0.42
  -4   3   5   10.81    0.69
   4   3  -5   10.27    0.70
  -4   3   5   10.22    0.59
  -4  -3  -5   10.93    0.78
   4   3   5    9.56    0.75
  -4   3  -5   10.10    0.67
  -4   3  -5    9.30    0.65
  -4  -3   5    9.10    0.61
   4  -3  -5    9.51    0.72
   4  -3  -5    9.36    0.54
   4   3   5    9.41    0.61
   5   3  -5    3.12    0.49
  -5  -3  -5    3.37    0.32
  -5  -3  -5    2.44    0.48
   5  -3   5    4.25    0.44
  -5   3   5    3.64    0.42
   5   3  -5    4.09    0.57
   5  -3   5    3.87    0.57
  -5   3   5    3.17    0.49
   5   3  -5    3.03    0.37
  -5  -3   5    1.62    0.33
   5  -3  -5    2.78    0.53
  -5   3  -5    1.33    0.36
   5   3   5    1.67    0.34
   5  -3  -5    2.69    0.38
  -5   3  -5    1.99    0.41
   5   3   5    2.02    0.48
  -6  -3  -5   35.43    1.16
   6   3  -5   37.76    1.35
  -6   3   5   38.10    1.22
  -6  -3  -5   35.54    1.65
   6   3  -5   37.51    1.60
   6  -3   5   34.12    1.59
  -6   3   5   36.35    1.50
   6   3   5   37.41    1.27
  -6   3  -5   37.38    1.59
   6  -3  -5   33.64    1.57
  -6   3  -5   36.98    1.48
  -6  -3   5   34.59    1.29
   6   3   5   34.15    1.67
   6  -3  -5   35.70    1.37
   7   3  -5   16.71    0.93
   7  -3   5   13.63    1.08
  -7   3   5   12.32    0.94
  -7  -3  -5   15.48    1.16
   7   3  -5   16.32    1.11
  -7  -3   5   13.92    0.95
   7  -3  -5   13.71    0.89
   7  -3  -5   13.15    1.06
   7   3   5   14.26    1.15
  -7  -3   5   13.38    0.79
  -7   3  -5   12.73    0.94
  -7   3  -5   13.66    1.05
   7   3   5   15.78    0.81
   8   3  -5    7.81    0.93
   8  -3   5   10.08    1.12
  -8   3   5   10.57    1.00
  -8  -3  -5    7.84    0.98
   8   3   5   10.14    1.21
  -8   3  -5   12.12    1.10
   8  -3  -5   10.58    0.88
  -8   3  -5    9.78    1.05
  -8  -3   5    8.58    0.91
   8  -3  -5    9.00    1.02
   9   3  -5   21.22    1.44
  -9  -3  -5   17.78    1.42
   9  -3   5   20.59    1.51
  -9   3   5   18.93    1.29
   9  -3  -5   19.04    1.39
   9   3   5   17.84    1.48
   9  -3  -5   14.34    1.15
  -9   3  -5   17.80    1.21
  -9   3  -5   16.21    1.29
  -9  -3   5   17.16    1.17
 -10  -3  -5    6.41    1.03
  10   3  -5    8.15    1.17
 -10   3   5    6.37    0.95
  10  -3   5   10.13    1.33
  10  -3  -5    7.83    1.08
 -10   3  -5    7.49    1.11
 -10   3  -5    7.62    0.97
 -10  -3   5    8.90    1.02
  10   3   5   11.87    1.50
 -11  -3  -5    4.48    1.01
  11  -3   5    4.07    0.98
 -11   3   5    4.79    0.89
  11   3  -5    4.16    0.93
  11  -3  -5    5.32    1.02
 -11  -3   5    5.03    0.83
  11   3   5    4.66    1.07
 -11   3  -5    4.61    0.87
 -11   3  -5    5.27    1.05
 -12  -3  -5    8.62    1.37
  12  -3   5   10.84    1.50
 -12   3   5   10.32    1.29
  12   3  -5   10.89    1.47
  12  -3  -5   11.09    1.52
 -12  -3   5    9.93    1.23
  12   3   5    6.76    1.23
 -12   3  -5   10.32    1.41
 -13   3   5   -0.01    0.59
  13  -3   5   -0.30    0.74
 -13  -3  -5    0.29    0.72
  13   3  -5    0.30    0.71
  13   3   5    0.18    0.71
  13  -3  -5    0.15    0.70
 -13  -3   5    0.33    0.59
 -13   3  -5    0.13    0.70
   0   4   5   79.14    2.15
   0  -4  -5   71.70    2.27
   0   4   5   76.66    1.82
   0  -4   5   77.44    2.12
   0   4  -5   76.92    2.16
   0  -4  -5   77.30    2.13
   0  -4   5   76.30    2.00
   0   4  -5   80.21    2.04
   1   4  -5   17.26    0.87
  -1   4   5   18.41    0.69
   1   4  -5   17.48    0.71
   1  -4   5   17.88    0.75
   1  -4   5   17.49    0.79
  -1   4   5   16.91    0.79
  -1  -4  -5   17.44    0.91
  -1   4  -5   18.05    0.77
  -1  -4   5   17.89    0.82
   1   4   5   15.96    0.81
   1   4   5   18.17    0.51
   1  -4  -5   18.90    0.93
  -1  -4   5   19.40    0.68
   1  -4  -5   19.45    0.78
  -1   4  -5   17.61    0.83
   1   4   5   18.55    0.85
  -2  -4  -5   55.65    1.83
  -2   4   5   53.46    1.64
   2  -4   5   52.49    1.66
  -2   4   5   55.08    1.57
   2   4  -5   57.53    1.62
   2  -4   5   51.63    1.59
   2   4  -5   53.16    1.80
   2   4   5   55.60    1.87
   2   4   5   62.34    1.80
   2  -4  -5   58.90    1.68
  -2   4  -5   56.74    1.68
  -2   4  -5   59.64    1.81
  -2  -4   5   59.29    1.56
   2  -4  -5   59.62    1.89
  -2  -4   5   58.30    1.77
  -3  -4  -5   27.06    1.23
  -3   4   5   31.49    1.13
  -3   4   5   28.25    1.07
   3  -4   5   28.46    1.05
   3  -4   5   31.00    1.20
   3   4  -5   30.35    1.28
   3   4  -5   28.23    1.12
  -3   4  -5   27.15    1.05
   3   4   5   26.49    1.07
   3   4   5   26.75    1.21
   3  -4  -5   26.33    1.16
  -3   4  -5   29.14    1.15
   3  -4  -5   26.59    0.99
  -3  -4   5   26.44    0.88
  -3  -4   5   24.58    1.04
   4   4  -5   21.11    1.09
  -4   4   5   19.95    0.86
   4   4  -5   20.87    0.81
   4   4  -5   20.27    0.99
  -4   4   5   20.08    0.97
  -4  -4  -5   21.12    1.11
   4  -4   5   22.12    1.07
   4  -4   5   21.06    0.86
  -4  -4  -5   22.62    0.58
   4   4   5   23.20    0.99
  -4   4  -5   20.92    1.03
  -4  -4   5   22.55    0.98
  -4   4  -5   24.58    1.05
   4   4   5   21.75    1.16
   4  -4  -5   21.24    0.92
   4  -4  -5   23.28    1.12
   5   4  -5   27.37    1.05
  -5  -4  -5   27.36    0.83
  -5  -4  -5   29.41    1.41
   5  -4   5   28.54    1.04
   5   4  -5   29.18    1.29
   5  -4   5   29.46    1.34
   5   4  -5   28.70    1.33
  -5   4   5   27.66    1.22
  -5   4   5   28.08    1.03
  -5  -4   5   27.61    1.14
  -5   4  -5   28.25    1.26
   5  -4  -5   29.72    1.17
   5   4   5   28.40    1.13
   5   4   5   27.37    1.41
   5  -4  -5   29.85    1.36
  -5   4  -5   30.91    1.30
   6   4  -5   16.28    0.86
  -6  -4  -5   15.97    1.11
  -6   4   5   17.95    0.77
   6   4  -5   16.56    1.06
   6   4  -5   17.87    1.08
   6  -4   5   17.70    1.11
  -6   4   5   17.45    1.03
   6  -4  -5   18.23    0.96
   6   4   5   16.51    1.17
  -6   4  -5   16.13    0.99
   6  -4  -5   19.06    1.15
  -6   4  -5   17.81    1.06
  -6  -4   5   17.92    0.91
   6   4   5   17.07    0.88
   7  -4   5    4.31    0.69
  -7  -4  -5    4.56    0.74
  -7   4   5    5.36    0.69
   7   4  -5    4.95    0.61
   7   4  -5    5.30    0.75
   7   4   5    4.29    0.56
   7  -4  -5    3.88    0.71
  -7  -4   5    4.45    0.55
   7   4   5    4.32    0.78
   7  -4  -5    4.57    0.60
  -7   4  -5    3.00    0.59
  -7  -4   5    5.03    0.68
  -7   4  -5    4.43    0.67
   8  -4   5   24.58    1.51
   8   4  -5   21.77    1.39
  -8  -4  -5   22.28    1.48
  -8   4   5   21.78    1.33
   8   4   5   23.67    1.57
   8  -4  -5   21.92    1.42
   8  -4  -5   21.27    1.23
  -8   4  -5   22.55    1.31
  -8   4  -5   21.42    1.38
  -8  -4   5   23.75    1.31
  -9   4   5    8.91    1.05
   9  -4   5    7.07    1.02
  -9  -4  -5    9.29    1.20
   9   4  -5    7.32    0.98
   9   4   5    8.06    1.14
   9  -4  -5    9.27    1.13
  -9  -4   5    9.57    1.01
  -9   4  -5   12.03    1.17
   9  -4  -5    7.12    0.90
  -9   4  -5    8.77    1.08
 -10  -4  -5    0.28    0.50
 -10   4   5    0.27    0.49
  10  -4   5   -0.28    0.50
  10   4  -5   -0.36    0.40
 -10   4  -5   -0.11    0.44
 -10  -4   5    0.35    0.38
  10   4   5   -0.44    0.52
 -10   4  -5    0.45    0.47
  10  -4  -5    0.02    0.49
  11   4  -5    9.84    1.28
  11  -4   5   12.56    1.49
 -11  -4  -5   11.11    1.46
 -11   4   5   11.55    1.30
 -11   4  -5   11.49    1.44
 -11   4  -5   11.55    1.31
  11  -4  -5   11.68    1.43
 -11  -4   5   12.81    1.29
  11   4   5    8.45    1.33
 -12  -4  -5    8.30    1.40
  12   4  -5    5.84    1.14
  12  -4   5    4.54    1.18
 -12   4   5    4.74    0.93
  12   4   5    3.59    1.03
 -12   4  -5    5.59    1.11
  12  -4  -5    4.43    1.02
 -12  -4   5    5.58    0.96
 -12   4  -5    5.09    0.97
 -13  -4  -5    1.95    0.91
  13  -4   5    0.39    0.85
  13   4  -5    2.80    0.95
 -13   4  -5    2.66    0.95
  13  -4  -5    1.53    0.83
  13   4   5    2.35    0.95
   0   5   5   75.97    2.19
   0  -5   5   79.51    2.20
   0  -5  -5   80.65    2.27
   0  -5  -5   77.37    2.36
   0   5   5   79.71    1.89
   0   5  -5   73.23    2.22
   0   5  -5   80.57    2.00
   0  -5   5   77.85    2.11
  -1   5   5   19.59    0.76
  -1  -5  -5   19.27    0.99
   1   5  -5   19.73    0.74
  -1   5   5   19.39    0.88
   1   5  -5   18.16    0.94
   1  -5   5   19.01    0.83
   1  -5   5   19.69    0.87
  -1   5  -5   16.74    0.84
  -1  -5   5   17.93    0.72
   1  -5  -5   17.65    0.91
   1  -5  -5   16.87    0.79
  -1   5  -5   16.97    0.70
  -1  -5   5   16.85    0.84
   1   5   5   17.07    0.52
   1   5   5   16.73    0.84
   1   5   5   16.69    0.86
  -2  -5  -5   87.76    2.59
  -2   5   5   91.79    2.33
   2  -5   5   86.20    2.36
   2   5  -5   90.51    2.61
  -2   5   5   85.81    2.38
   2  -5   5   87.19    2.45
   2   5  -5   86.28    2.31
  -2  -5   5   85.95    2.45
   2  -5  -5   86.15    2.54
  -2   5  -5   88.04    2.30
   2  -5  -5   89.61    2.43
   2   5   5   88.48    2.62
  -2   5  -5   87.17    2.50
  -2  -5   5   91.33    2.30
   2   5   5   93.10    2.49
   3   5  -5   59.38    2.00
   3  -5   5   55.65    1.69
  -3  -5  -5   57.18    1.97
   3  -5   5   58.39    1.90
  -3   5   5   59.37    1.79
  -3   5   5   57.53    1.73
   3   5  -5   58.48    1.78
  -3  -5   5   59.83    1.85
   3  -5  -5   56.55    1.92
   3   5   5   59.64    1.84
  -3  -5   5   58.85    1.66
   3  -5  -5   58.44    1.79
   3   5   5   57.36    2.02
  -3   5  -5   59.73    1.75
  -3   5  -5   57.25    1.88
  -4   5   5   18.20    0.81
  -4   5   5   18.11    0.93
   4  -5   5   17.23    0.80
   4   5  -5   16.65    0.90
   4   5  -5   16.29    1.00
   4  -5   5   19.54    1.01
  -4  -5  -5   15.84    0.99
  -4  -5   5   17.32    0.75
   4  -5  -5   17.42    0.97
  -4  -5   5   17.82    0.90
   4  -5  -5   17.22    0.86
  -4   5  -5   16.59    0.86
   4   5   5   14.43    0.97
   4   5   5   16.14    0.87
  -4   5  -5   18.71    0.98
  -5  -5  -5    6.06    0.76
  -5   5   5    6.38    0.49
   5  -5   5    6.65    0.52
   5   5  -5    7.25    0.79
  -5   5   5    5.68    0.65
   5   5  -5    6.21    0.51
   5  -5   5    6.19    0.70
   5   5  -5    6.37    0.68
   5  -5  -5    7.82    0.64
   5  -5  -5    7.59    0.80
  -5   5  -5    8.87    0.70
  -5  -5   5    7.94    0.65
   5   5   5    6.36    0.76
  -5   5  -5    8.00    0.79
   5   5   5    7.43    0.68
   6   5  -5   22.53    1.23
   6   5  -5   22.44    1.03
   6   5  -5   24.21    1.27
   6  -5   5   22.22    1.28
  -6   5   5   21.32    0.88
  -6   5   5   21.85    1.17
  -6  -5  -5   22.64    1.31
  -6  -5   5   19.69    1.01
  -6   5  -5   17.88    1.11
   6   5   5   21.24    1.30
   6   5   5   20.99    1.02
   6  -5  -5   19.89    1.05
  -6   5  -5   19.71    1.11
   6  -5  -5   19.66    1.19
  -7   5   5    8.61    0.92
   7   5  -5    9.13    0.74
   7  -5   5    7.11    0.88
   7   5  -5    9.96    1.00
  -7  -5  -5   11.62    1.16
   7   5  -5    9.32    0.96
  -7   5  -5    9.65    0.94
   7   5   5    9.97    0.78
  -7  -5   5    8.66    0.73
   7   5   5   10.51    1.15
   7  -5  -5   11.39    1.11
   7  -5  -5   10.12    0.84
  -7   5  -5   10.70    0.92
  -8  -5  -5    7.63    1.02
   8   5  -5    7.40    0.95
  -8   5   5    6.39    0.84
   8  -5   5    7.67    1.01
   8  -5  -5    5.87    0.88
   8   5   5    5.33    0.89
  -8   5  -5    6.88    0.89
   8  -5  -5    5.53    0.75
  -8  -5   5    6.11    0.78
  -8   5  -5    8.44    0.98
  -9   5   5    3.64    0.75
  -9  -5  -5    3.23    0.81
   9   5  -5    4.14    0.84
   9  -5   5    3.27    0.78
   9  -5  -5    2.34    0.57
  -9   5  -5    3.43    0.71
   9   5   5    3.21    0.77
  -9  -5   5    2.92    0.62
   9  -5  -5    1.86    0.64
  -9   5  -5    1.75    0.56
 -10   5   5   11.08    1.26
  10   5  -5   11.57    1.28
  10  -5   5   12.05    1.40
 -10  -5  -5   12.53    1.52
 -10   5  -5   11.12    1.29
  10   5   5   11.78    1.46
 -10  -5   5   12.70    1.25
  10  -5  -5   15.11    1.49
 -10   5  -5   12.13    1.30
 -11   5   5    1.24    0.63
  11   5  -5    1.95    0.73
  11  -5   5    1.26    0.72
 -11  -5  -5    1.68    0.79
  11   5   5    2.12    0.78
 -11   5  -5    2.90    0.80
  11  -5  -5    0.98    0.68
 -11   5  -5    3.11    0.86
 -11  -5   5    1.67    0.63
 -12  -5  -5    5.16    1.13
  12  -5   5    2.75    0.94
  12   5  -5    3.32    0.93
 -12   5   5    6.18    1.07
 -12  -5   5    6.35    1.01
 -12   5  -5    7.43    1.27
  12  -5  -5    4.82    1.10
  12   5   5    3.59    1.03
 -12   5  -5    5.80    1.06
   0   6  -5   11.21    0.72
   0   6   5   10.37    0.68
   0  -6  -5    9.97    0.69
   0  -6   5   11.07    0.68
   0  -6  -5   10.87    0.76
   0  -6   5   10.03    0.62
   0   6  -5   10.91    0.46
   0   6   5   10.49    0.51
   1  -6   5   10.56    0.67
  -1  -6  -5    8.31    0.67
   1   6  -5    9.31    0.48
   1   6  -5   11.05    0.73
  -1   6   5   10.02    0.56
  -1  -6  -5   10.01    0.74
  -1   6   5    9.65    0.64
   1  -6   5   11.17    0.66
   1   6   5   12.98    0.49
  -1   6  -5   15.46    0.84
  -1   6  -5   13.70    0.57
   1  -6  -5   11.70    0.78
  -1  -6   5   13.79    0.70
   1   6   5   14.81    0.81
  -1  -6   5   14.68    0.81
   1  -6  -5   14.66    0.79
   2   6  -5   17.82    0.76
  -2  -6  -5   19.02    1.00
  -2   6   5   18.21    0.85
  -2   6   5   19.24    0.89
   2  -6   5   18.49    0.87
   2   6  -5   19.16    1.04
   2  -6   5   19.63    0.93
  -2   6  -5   15.58    0.66
   2  -6  -5   16.48    0.88
  -2   6  -5   16.21    0.89
   2  -6  -5   15.64    0.81
  -2  -6   5   14.53    0.70
   2   6   5   14.04    0.83
   2   6   5   12.97    0.85
  -2  -6   5   14.03    0.81
   3   6  -5    1.40    0.30
  -3  -6  -5    1.78    0.40
   3   6  -5    1.75    0.43
  -3   6   5    0.82    0.28
   3  -6   5    1.49    0.32
   3  -6   5    1.54    0.40
  -3   6   5    1.68    0.35
  -3   6  -5    1.27    0.34
   3  -6  -5    2.12    0.41
   3  -6  -5    1.69    0.34
  -3   6  -5    1.64    0.30
  -3  -6   5    1.75    0.38
   3   6   5    1.94    0.44
   3   6   5    2.45    0.45
  -3  -6   5    1.91    0.31
  -4   6   5   10.27    0.76
   4   6  -5    9.87    0.69
  -4   6   5   10.24    0.64
   4   6  -5   10.32    0.82
   4  -6   5   10.75    0.81
   4  -6   5   11.27    0.66
  -4  -6  -5   10.42    0.81
  -4   6  -5   10.61    0.67
   4   6   5    8.94    0.71
   4  -6  -5   10.88    0.81
  -4   6  -5   12.77    0.86
   4   6   5    8.17    0.85
  -4  -6   5    9.63    0.71
  -4  -6   5    8.63    0.58
   4  -6  -5   11.41    0.74
  -5   6   5   30.64    1.13
   5  -6   5   27.88    1.39
  -5  -6  -5   31.05    1.47
  -5   6   5   27.58    1.31
   5  -6   5   30.88    1.12
   5   6  -5   29.27    1.41
   5   6  -5   28.08    1.31
   5  -6  -5   26.14    1.20
   5   6   5   24.88    1.39
  -5   6  -5   26.66    1.30
  -5  -6   5   25.44    1.07
  -5   6  -5   25.96    1.18
   5  -6  -5   26.81    1.31
   5   6   5   27.17    1.19
  -5  -6   5   25.67    1.18
  -6   6   5    0.24    0.33
   6   6  -5    0.41    0.29
   6  -6   5    0.36    0.39
   6   6  -5    0.56    0.33
  -6  -6  -5    0.23    0.38
   6   6  -5    0.11    0.32
   6  -6  -5    0.77    0.33
  -6   6  -5    0.54    0.36
  -6   6  -5    0.13    0.32
   6   6   5    0.21    0.37
   6  -6  -5    0.34    0.38
  -6  -6   5   -0.02    0.30
   6   6   5   -0.01    0.30
   7   6  -5   42.48    1.85
   7  -6   5   39.43    1.90
  -7  -6  -5   43.04    1.99
  -7   6   5   42.81    1.86
   7   6  -5   43.21    1.68
   7   6  -5   44.97    1.91
   7   6   5   42.46    1.61
  -7   6  -5   39.78    1.82
   7  -6  -5   41.80    1.89
  -7  -6   5   41.64    1.62
  -7   6  -5   40.14    1.76
   7  -6  -5   41.17    1.72
   7   6   5   39.60    1.99
  -8  -6  -5    9.53    1.15
  -8   6   5   12.85    1.22
   8  -6   5   10.12    1.10
   8   6  -5   12.28    1.20
   8   6   5   13.67    1.42
  -8   6  -5   13.24    1.10
   8  -6  -5   11.93    1.00
  -8   6  -5   13.61    1.26
   8  -6  -5   12.64    1.23
  -8  -6   5   13.34    0.92
  -8  -6   5   13.58    1.03
  -9  -6  -5   11.80    1.34
   9   6  -5   13.64    1.34
  -9   6   5   12.37    1.23
   9  -6   5   12.96    1.35
   9  -6  -5   14.74    1.42
   9  -6  -5   13.65    1.16
  -9   6  -5   15.48    1.27
   9   6   5   15.60    1.57
  -9  -6   5   14.68    1.11
  -9   6  -5   15.25    1.40
  10   6  -5    2.19    0.70
 -10  -6  -5    3.26    0.83
  10  -6   5    2.10    0.74
 -10   6   5    1.96    0.68
  10  -6  -5    3.37    0.83
 -10   6  -5    3.63    0.80
 -10   6  -5    3.35    0.81
  10   6   5    4.02    0.89
 -10  -6   5    2.85    0.68
  11   6  -5   30.28    1.97
  11  -6   5   27.19    2.01
 -11  -6  -5   30.63    2.09
 -11   6   5   31.61    1.94
  11  -6  -5   30.25    2.02
 -11   6  -5   36.17    2.04
  11   6   5   31.34    2.17
 -11  -6   5   36.25    1.88
 -11   6  -5   33.91    2.10
 -12  -6  -5    0.47    0.64
  12   6  -5    0.28    0.62
 -12   6   5    1.09    0.67
  12  -6   5    0.54    0.73
 -12  -6   5    1.42    0.61
  12   6   5    0.30    0.65
 -12   6  -5    1.29    0.76
  12  -6  -5    0.25    0.72
 -12   6  -5   -0.05    0.61
   0  -7  -5    4.54    0.58
   0   7  -5    5.14    0.60
   0   7   5    4.94    0.56
   0   7   5    4.78    0.40
   0  -7   5    5.39    0.54
   0  -7   5    4.40    0.54
   0   7  -5    4.93    0.29
   0  -7  -5    5.83    0.63
   1  -7   5   87.69    2.54
  -1   7   5   89.22    2.52
  -1  -7  -5   87.47    2.70
  -1   7   5   89.59    2.33
  -1  -7  -5   88.55    2.68
   1  -7   5   87.29    2.49
   1   7  -5   87.22    2.62
   1   7  -5   87.73    2.17
  -1   7  -5   85.42    2.01
   1  -7  -5   89.02    2.53
  -1   7  -5   81.39    2.48
  -1  -7   5   78.68    2.40
   1   7   5   83.69    1.99
   1   7   5   85.36    2.46
  -1  -7   5   79.99    2.33
   1  -7  -5   80.53    2.49
   2  -7   5   58.95    1.94
  -2  -7  -5   58.04    2.01
   2  -7   5   58.28    1.84
  -2   7   5   58.69    1.80
  -2   7   5   57.34    1.84
   2   7  -5   59.95    2.06
   2   7  -5   58.91    1.66
  -2   7  -5   52.71    1.87
   2   7   5   55.06    1.84
  -2  -7   5   54.03    1.71
   2  -7  -5   53.23    1.84
  -2   7  -5   55.24    1.52
   2  -7  -5   57.39    1.86
   3   7  -5   11.19    0.86
  -3   7   5   12.54    0.80
  -3  -7  -5   13.70    0.89
  -3   7   5   13.06    0.76
   3   7  -5   11.36    0.67
   3  -7   5   13.22    0.76
   3  -7   5   13.06    0.87
   3  -7  -5   13.00    0.84
  -3   7  -5   12.96    0.63
  -3  -7   5   11.83    0.69
   3   7   5   11.35    0.83
  -3   7  -5   12.34    0.86
   3  -7  -5   11.25    0.77
   3   7   5   10.35    0.84
   4  -7   5   41.21    1.43
   4   7  -5   42.55    1.52
  -4   7   5   43.07    1.62
  -4   7   5   41.73    1.44
   4  -7   5   43.28    1.71
  -4  -7  -5   41.28    1.70
   4   7  -5   38.80    1.69
   4  -7  -5   41.18    1.62
  -4   7  -5   39.19    1.37
   4  -7  -5   40.13    1.57
  -4  -7   5   40.58    1.41
  -4  -7   5   37.50    1.51
  -4   7  -5   39.55    1.64
   4   7   5   41.28    1.58
   4   7   5   38.22    1.73
  -5   7   5   24.18    1.27
   5  -7   5   26.17    1.36
   5   7  -5   26.58    1.38
   5  -7   5   26.99    1.08
  -5  -7  -5   28.65    1.43
   5   7  -5   25.38    1.23
  -5   7   5   27.79    1.10
  -5   7  -5   29.19    1.43
   5  -7  -5   30.64    1.41
  -5   7  -5   29.68    1.24
   5  -7  -5   30.14    1.35
  -5  -7   5   27.41    1.17
   5   7   5   28.50    1.33
  -5  -7   5   30.40    1.33
   5   7   5   26.24    1.49
   6  -7   5   10.65    1.05
  -6   7   5   11.34    0.94
   6   7  -5   12.90    1.17
   6   7  -5   10.21    0.89
  -6  -7  -5   11.86    1.03
   6  -7  -5   13.57    0.96
   6  -7  -5   11.67    0.99
   6   7   5   10.25    1.08
  -6   7  -5   13.26    1.02
  -6   7  -5   12.12    0.90
   6   7   5   12.60    0.91
  -6  -7   5   13.73    0.93
   7   7  -5   24.34    1.42
  -7  -7  -5   24.56    1.54
   7   7  -5   28.44    1.32
   7   7  -5   26.65    1.44
  -7   7   5   26.23    1.47
   7  -7   5   23.70    1.52
  -7  -7   5   29.84    1.40
   7   7   5   29.95    1.41
   7  -7  -5   29.47    1.58
   7   7   5   28.87    1.70
  -7   7  -5   28.27    1.56
   7  -7  -5   27.80    1.47
  -7   7  -5   31.28    1.49
  -8  -7  -5   13.26    1.35
   8  -7   5   12.03    1.23
  -8   7   5   11.18    1.14
   8   7  -5   12.72    1.10
  -8   7  -5   12.81    1.07
   8  -7  -5   12.13    1.17
  -8   7  -5   13.68    1.31
  -8  -7   5   13.07    0.97
   8  -7  -5   11.58    1.17
   8   7   5    9.98    1.17
  -9  -7  -5    0.26    0.50
   9  -7   5    0.19    0.56
   9   7  -5    1.12    0.54
  -9   7   5   -0.26    0.45
   9  -7  -5   -0.25    0.38
  -9   7  -5    0.93    0.55
   9   7   5    0.80    0.62
  -9  -7   5   -0.23    0.34
  -9   7  -5    0.80    0.49
   9  -7  -5    0.44    0.51
  10  -7   5   10.28    1.34
 -10  -7  -5    8.15    1.21
  10   7  -5   13.43    1.43
 -10   7   5   10.97    1.25
 -10   7  -5   17.48    1.43
  10  -7  -5   15.03    1.52
 -10  -7   5   14.78    1.22
 -10   7  -5   14.83    1.47
  10   7   5   19.02    1.86
 -11   7   5    4.07    0.94
  11   7  -5    3.14    0.88
  11  -7   5    3.69    0.98
 -11  -7  -5    4.46    1.07
 -11   7  -5    5.26    1.03
 -11  -7   5    4.56    0.84
  11  -7  -5    1.56    0.70
  11   7   5    3.44    0.97
  12   7  -5    3.18    0.89
 -12   7   5    3.44    0.94
 -12  -7  -5    1.89    0.88
  12  -7   5    3.16    1.03
 -12   7  -5    2.88    0.86
  12  -7  -5    1.57    0.81
  12   7   5    1.08    0.77
 -12  -7   5    2.97    0.78
   0  -8   5   27.99    1.20
   0  -8  -5   28.77    1.31
   0   8   5   28.24    1.24
   0   8  -5   28.77    1.31
   0  -8  -5   28.90    1.29
   0   8   5   28.00    1.02
   1  -8   5    1.82    0.41
  -1   8   5    1.68    0.34
   1   8  -5    1.62    0.42
   1   8  -5    1.60    0.38
  -1   8   5    2.31    0.43
   1  -8   5    2.60    0.45
   1   8  -5    1.76    0.23
  -1  -8  -5    2.00    0.46
  -1  -8  -5    1.63    0.41
  -1  -8   5    0.79    0.30
   1   8   5    1.38    0.24
  -1   8  -5    1.40    0.40
   1   8   5    1.08    0.37
   1  -8  -5    1.04    0.33
   1  -8  -5    1.61    0.41
  -2  -8  -5    7.21    0.81
  -2  -8  -5    7.25    0.78
   2   8  -5    7.85    0.86
  -2   8   5    7.65    0.63
   2  -8   5    6.79    0.65
   2   8  -5    5.13    0.62
   2  -8   5    6.06    0.66
  -2   8   5    6.47    0.65
   2   8  -5    6.03    0.44
   2  -8  -5    6.61    0.69
   2  -8  -5    5.64    0.63
  -2  -8   5    5.65    0.57
  -2   8  -5    5.51    0.70
   2   8   5    5.02    0.64
  -3   8   5   10.76    0.80
  -3  -8  -5   10.73    0.83
   3   8  -5   10.46    0.87
   3   8  -5   10.04    0.77
   3  -8   5   10.84    0.75
   3   8  -5   10.67    0.64
  -3   8   5    9.46    0.70
   3  -8   5    9.04    0.78
   3   8   5   10.66    0.90
  -3   8  -5   10.03    0.82
  -3  -8   5   10.48    0.69
   3  -8  -5   10.43    0.78
   3   8   5   10.17    0.81
   3  -8  -5   11.32    0.80
   4   8  -5    0.04    0.23
  -4   8   5    0.39    0.33
  -4  -8  -5    0.26    0.29
   4  -8   5    0.21    0.34
   4   8  -5    0.17    0.28
   4  -8   5   -0.02    0.25
  -4   8   5   -0.23    0.21
   4  -8  -5    0.07    0.28
  -4  -8   5    0.29    0.24
   4   8   5    0.12    0.31
   4   8   5    0.01    0.32
   4  -8  -5    0.20    0.30
  -4   8  -5    0.23    0.30
  -5   8   5   33.69    1.55
   5  -8   5   33.88    1.62
   5   8  -5   27.97    1.49
   5  -8   5   32.58    1.26
   5   8  -5   33.30    1.41
  -5  -8  -5   28.63    1.51
  -5   8   5   34.62    1.31
   5  -8  -5   30.98    1.45
   5   8   5   27.45    1.55
   5  -8  -5   29.76    1.42
  -5   8  -5   27.79    1.46
   5   8   5   27.79    1.37
  -5  -8   5   28.74    1.26
   6   8  -5   26.96    1.35
   6  -8   5   25.81    1.49
  -6   8   5   24.08    1.39
  -6  -8  -5   26.30    1.48
   6   8  -5   24.64    1.42
  -6  -8   5   28.96    1.30
   6  -8  -5   29.85    1.49
   6   8   5   30.33    1.43
  -6   8  -5   27.29    1.50
   6   8   5   27.55    1.62
   6  -8  -5   27.63    1.46
  -6  -8   5   31.21    1.45
   7   8  -5    1.24    0.51
  -7   8   5   -0.18    0.42
  -7  -8  -5    0.67    0.45
   7   8  -5    1.23    0.49
   7  -8   5    0.51    0.51
   7   8   5    0.96    0.61
  -7   8  -5    1.09    0.54
   7  -8  -5    0.96    0.52
  -7  -8   5    1.76    0.52
   7   8   5    0.88    0.43
   7  -8  -5    0.95    0.45
   8   8  -5    9.63    1.07
  -8   8   5    8.21    1.02
  -8  -8  -5    8.96    1.14
   8   8  -5    9.65    1.03
   8  -8   5    7.89    1.02
  -8  -8   5    9.94    1.00
   8  -8  -5    9.21    1.03
   8  -8  -5   12.26    1.21
  -8   8  -5   10.36    1.17
   8   8   5    9.84    1.22
   8   8   5    8.84    0.93
   9  -8   5    4.74    1.01
  -9   8   5    4.30    0.86
   9   8  -5    5.95    0.93
  -9  -8  -5    6.11    1.03
  -9  -8   5    5.87    0.90
   9  -8  -5    5.88    0.98
   9  -8  -5    6.22    0.92
  -9   8  -5    5.54    0.98
   9   8   5    6.13    1.06
 -10  -8  -5    0.80    0.62
  10  -8   5    0.69    0.66
  10   8  -5    0.11    0.55
 -10   8   5    1.76    0.70
  10   8   5   -0.06    0.57
  10  -8  -5    1.07    0.66
 -10   8  -5    0.21    0.55
 -10  -8   5    1.19    0.54
 -11   8   5   13.38    1.53
  11   8  -5   12.87    1.48
 -11  -8  -5   12.45    1.53
  11  -8   5   10.23    1.43
  11   8   5   12.38    1.60
 -11   8  -5   14.63    1.60
  11  -8  -5    9.36    1.30
 -11  -8   5   13.08    1.34
 -12  -8  -5    7.72    1.32
  12  -8   5    7.64    1.33
 -12   8   5    6.38    1.22
  12   8  -5    7.52    1.26
  12  -8  -5    7.79    1.34
 -12   8  -5    9.39    1.39
  12   8   5    8.68    1.45
   0   9  -5   28.12    1.28
   0   9   5   29.19    1.32
   0   9  -5   27.91    1.35
   0   9   5   26.92    1.06
   0  -9  -5   30.15    1.39
   0  -9   5   30.55    1.30
   0  -9  -5   27.60    1.29
  -1   9   5   38.34    1.52
  -1  -9  -5   36.25    1.61
   1  -9   5   38.71    1.55
  -1  -9  -5   38.67    1.61
   1   9  -5   36.48    1.60
  -1   9   5   38.03    1.38
   1   9  -5   35.04    1.50
  -1  -9   5   34.51    1.42
   1   9   5   34.58    1.49
   1  -9  -5   36.24    1.55
  -1   9  -5   36.04    1.56
   1  -9  -5   38.11    1.49
  -2   9   5    4.00    0.57
   2   9  -5    3.40    0.59
   2  -9   5    3.95    0.59
  -2  -9  -5    3.31    0.56
   2   9  -5    3.95    0.57
   2  -9   5    3.19    0.51
  -2   9   5    3.12    0.50
  -2  -9  -5    3.53    0.60
   2  -9  -5    3.13    0.55
  -2  -9   5    3.58    0.50
  -2   9  -5    3.50    0.61
   2  -9  -5    3.50    0.54
   2   9   5    3.79    0.57
  -3  -9  -5    7.51    0.89
  -3  -9  -5    6.07    0.74
   3  -9   5    5.11    0.66
  -3   9   5    6.54    0.72
   3  -9   5    6.25    0.66
   3   9  -5    5.21    0.73
  -3   9   5    6.64    0.69
   3   9  -5    6.02    0.75
   3   9   5    6.25    0.73
   3  -9  -5    7.50    0.73
   3  -9  -5    7.61    0.81
  -3   9  -5    6.40    0.79
  -3  -9   5    7.65    0.66
  -4   9   5   14.25    0.88
  -4   9   5   14.41    1.01
   4  -9   5   13.01    1.03
  -4  -9  -5   14.00    1.00
   4   9  -5   11.78    0.92
   4   9  -5   12.44    1.01
   4  -9   5   15.43    0.91
  -4   9  -5   11.58    0.95
   4  -9  -5   12.74    0.90
   4   9   5    9.63    1.03
  -4  -9   5   12.51    0.83
   4  -9  -5   12.74    0.95
   4   9   5   12.00    0.97
   5  -9   5   37.67    1.46
  -5   9   5   39.35    1.75
   5   9  -5   34.36    1.71
  -5  -9  -5   37.91    1.74
   5   9  -5   40.08    1.56
  -5   9   5   38.71    1.47
   5  -9   5   36.62    1.77
   5   9  -5   39.89    1.68
   5  -9  -5   38.74    1.70
   5   9   5   35.70    1.85
  -5  -9   5   37.45    1.53
   5   9   5   41.14    1.71
   5  -9  -5   37.92    1.65
  -5   9  -5   38.16    1.79
  -6  -9  -5   30.46    1.62
   6   9  -5   33.06    1.50
   6  -9   5   30.86    1.67
  -6   9   5   30.75    1.63
   6   9  -5   29.79    1.58
   6  -9  -5   30.20    1.58
  -6   9  -5   34.01    1.73
   6   9   5   35.36    1.61
  -6  -9   5   31.84    1.43
   6   9   5   27.99    1.71
   6  -9  -5   31.46    1.57
  -7   9   5    9.43    1.08
   7  -9   5   11.08    1.22
   7   9  -5   10.02    1.04
   7   9  -5    9.83    1.07
  -7  -9  -5   10.11    1.15
   7   9   5    9.80    0.97
  -7   9  -5   11.67    1.24
   7  -9  -5   11.46    1.15
  -7  -9   5   12.07    1.01
   7  -9  -5   11.21    1.13
   7   9   5    9.72    1.20
  -8   9   5    7.60    1.07
   8   9  -5    8.28    1.05
   8  -9   5    7.07    1.04
  -8  -9  -5    9.18    1.18
   8   9  -5    6.50    0.92
   8  -9  -5    8.31    1.02
  -8   9  -5    6.66    0.98
   8   9   5    6.58    1.04
  -8  -9   5    7.91    0.92
   8  -9  -5    7.87    1.03
   8   9   5    7.67    0.93
  -9   9   5    3.18    0.82
   9   9  -5    5.26    0.93
  -9  -9  -5    6.08    1.07
   9  -9   5    2.95    0.82
   9   9   5    3.15    0.84
   9  -9  -5    4.43    0.85
   9  -9  -5    4.86    0.91
  -9   9  -5    4.04    0.92
  10   9  -5    1.71    0.72
  10  -9   5    3.07    0.93
 -10   9   5    3.00    0.87
 -10  -9  -5    2.51    0.86
  10  -9  -5    3.81    0.88
  10   9   5    1.51    0.80
 -10   9  -5    2.12    0.75
 -10  -9   5    1.56    0.57
  11  -9   5    6.40    1.23
 -11   9   5    7.12    1.22
  11   9  -5    6.25    1.10
 -11  -9  -5    8.50    1.38
 -11   9  -5   10.13    1.41
  11  -9  -5    9.87    1.32
  11   9   5    9.79    1.56
   0  10   5   78.33    2.55
   0  10  -5   76.69    2.51
   0 -10  -5   77.40    2.66
   0 -10  -5   74.81    2.48
   0  10  -5   81.00    2.63
   0  10   5   81.74    2.25
   0 -10   5   82.61    2.56
  -1 -10  -5   25.21    1.30
  -1  10   5   26.44    1.31
   1  10  -5   23.84    1.25
  -1  10   5   25.13    1.14
  -1 -10  -5   24.97    1.36
   1  10  -5   25.15    1.35
   1 -10   5   26.21    1.31
  -1 -10   5   27.07    1.29
   1 -10  -5   28.91    1.43
  -1  10  -5   27.25    1.38
   1 -10  -5   25.26    1.22
  -1  10  -5   25.83    1.27
   1  10   5   26.45    1.37
  -2 -10  -5    5.98    0.80
  -2  10   5    5.81    0.70
   2  10  -5    6.30    0.81
  -2  10   5    6.68    0.75
  -2 -10  -5    7.94    0.86
   2  10  -5    6.76    0.80
   2 -10   5    6.89    0.82
   2 -10  -5    7.40    0.85
   2 -10  -5    7.20    0.73
   2  10   5    6.87    0.80
  -2 -10   5    7.35    0.75
  -2  10  -5    7.25    0.85
  -3 -10  -5   13.27    1.08
   3 -10   5   15.10    0.95
  -3  10   5   16.44    1.06
   3 -10   5   15.19    1.08
   3  10  -5   16.01    1.13
  -3  10   5   14.98    0.95
  -3 -10  -5   14.54    1.03
   3  10  -5   13.35    0.98
   3 -10  -5   14.86    1.04
  -3  10  -5   12.93    1.02
  -3 -10   5   13.08    0.91
   3 -10  -5   13.16    0.90
   3  10   5   15.34    1.06
   4 -10   5   16.56    1.20
  -4  10   5   16.97    1.03
  -4  10   5   17.09    1.15
   4  10  -5   18.32    1.22
   4 -10   5   17.53    1.03
  -4 -10  -5   18.47    1.16
   4  10  -5   17.80    1.11
  -4 -10   5   17.56    1.03
   4 -10  -5   16.99    1.17
  -4  10  -5   20.66    1.28
   4 -10  -5   17.42    1.07
   4  10   5   19.23    1.20
  -5  10   5    6.36    0.85
  -5 -10  -5    5.57    0.78
   5 -10   5    5.33    0.81
   5  10  -5    7.37    0.95
  -5  10   5    7.15    0.76
   5  10  -5    5.38    0.76
   5  10   5    6.20    0.96
   5 -10  -5    6.75    0.85
  -5 -10   5    6.77    0.77
   5  10   5    6.18    0.83
  -5  10  -5    6.42    0.85
   5 -10  -5    5.27    0.72
  -6 -10  -5    4.82    0.76
   6  10  -5    5.95    0.88
  -6  10   5    4.45    0.81
   6 -10   5    5.51    0.91
   6  10   5    6.04    0.84
   6 -10  -5    6.29    0.87
   6  10   5    5.62    0.94
  -6 -10   5    6.22    0.77
  -6  10  -5    5.53    0.87
   6 -10  -5    5.55    0.78
  -7  10   5   22.03    1.52
  -7 -10  -5   20.61    1.45
   7  10  -5   23.34    1.46
   7 -10   5   21.67    1.55
   7 -10  -5   22.60    1.48
  -7 -10   5   20.05    1.36
   7 -10  -5   20.69    1.39
   7  10   5   22.78    1.40
  -7  10  -5   20.54    1.48
   7  10   5   19.52    1.56
   8  10  -5    2.54    0.68
  -8  10   5    2.07    0.69
   8 -10   5    3.56    0.82
  -8 -10  -5    2.82    0.73
  -8 -10   5    2.36    0.67
   8  10   5    5.42    0.83
   8 -10  -5    2.88    0.73
   8 -10  -5    3.34    0.81
  -8  10  -5    1.67    0.67
   8  10   5    2.21    0.74
  -9 -10  -5    7.31    1.14
  -9  10   5    9.57    1.28
   9 -10   5    8.56    1.18
  -9  10  -5   10.59    1.33
   9 -10  -5    7.50    1.04
   9 -10  -5    8.80    1.15
   9  10   5   11.40    1.43
 -10  10   5    1.54    0.74
  10 -10   5    1.47    0.87
 -10 -10  -5    1.37    0.73
 -10  10  -5    0.56    0.61
  10  10   5    1.29    0.75
 -11 -10  -5    0.16    0.61
  11 -10   5    2.18    0.92
 -11  10   5    0.47    0.74
  11  10   5    1.88    0.87
 -11  10  -5    1.09    0.77
   0 -11   5    0.00    0.32
   0 -11  -5    0.26    0.37
   0  11   5   -0.10    0.36
   0 -11  -5    0.17    0.31
   0  11  -5    0.28    0.33
   0  11  -5    0.41    0.35
   1 -11   5   39.15    1.70
  -1  11   5   37.12    1.50
   1  11  -5   37.73    1.74
   1  11  -5   38.08    1.66
  -1 -11  -5   39.76    1.69
  -1 -11  -5   36.40    1.76
  -1  11   5   33.80    1.60
  -1  11  -5   36.83    1.68
  -1 -11   5   34.08    1.56
   1  11   5   34.13    1.62
   1 -11  -5   40.12    1.57
  -1  11  -5   37.39    1.60
   1 -11  -5   33.83    1.66
   2 -11   5   15.87    1.13
   2  11  -5   14.90    1.12
  -2 -11  -5   15.32    1.18
   2  11  -5   15.40    1.06
  -2  11   5   15.48    1.05
  -2  11   5   15.91    1.04
  -2 -11  -5   15.74    1.09
   2 -11  -5   18.65    1.23
   2 -11  -5   18.36    1.05
  -2  11  -5   18.06    1.21
  -2  11  -5   19.46    1.13
   2  11   5   17.66    1.20
  -2 -11   5   17.23    1.08
   3  11  -5    4.61    0.69
  -3 -11  -5    3.28    0.67
   3  11  -5    4.47    0.75
  -3  11   5    3.32    0.63
  -3  11   5    3.18    0.58
  -3 -11  -5    3.21    0.61
   3 -11   5    3.50    0.62
   3 -11   5    2.85    0.60
   3  11   5    3.92    0.65
  -3 -11   5    3.93    0.62
  -3  11  -5    3.10    0.63
   3 -11  -5    3.81    0.59
   3 -11  -5    3.58    0.66
   4 -11   5    2.08    0.50
  -4  11   5    2.01    0.50
   4  11  -5    1.69    0.55
   4  11  -5    1.66    0.49
  -4 -11  -5    1.73    0.52
   4 -11   5    1.74    0.58
  -4  11   5    1.69    0.55
  -4 -11  -5    1.79    0.59
  -4  11  -5    2.83    0.67
  -4 -11   5    2.19    0.50
   4  11   5    1.59    0.53
   4 -11  -5    3.05    0.56
   4 -11  -5    1.61    0.54
   5  11  -5   17.88    1.29
   5  11  -5   17.96    1.21
  -5  11   5   19.92    1.35
  -5  11   5   16.21    1.05
  -5 -11  -5   18.72    1.24
   5 -11   5   18.33    1.37
  -5  11  -5   16.95    1.28
   5  11   5   17.80    1.25
  -5 -11   5   15.50    1.06
   5 -11  -5   15.54    1.24
   6  11  -5    9.44    1.04
  -6  11   5    7.91    1.04
  -6 -11  -5    8.37    1.01
   6  11  -5    9.69    1.14
   6 -11   5    6.36    0.97
   6  11   5    8.12    1.14
  -6  11  -5    7.68    1.04
   6  11   5    8.10    0.96
  -6 -11   5    8.88    0.96
   6 -11  -5   10.00    1.13
  -7  11   5   18.76    1.46
   7 -11   5   14.81    1.43
  -7 -11  -5   15.51    1.31
   7  11  -5   17.00    1.33
   7  11   5   15.18    1.24
   7 -11  -5   14.47    1.39
  -7  11  -5   14.97    1.47
   7  11   5   12.71    1.42
  -8  11   5   29.38    1.87
   8  11  -5   27.53    1.70
  -8 -11  -5   26.87    1.75
   8 -11   5   26.24    1.88
  -8  11  -5   30.49    1.90
   8  11   5   24.44    1.89
   8 -11  -5   28.87    1.79
   8  11   5   27.04    1.64
  -8 -11   5   28.40    1.67
  -9  11   5    2.13    0.77
  -9 -11  -5    2.16    0.75
   9 -11   5    1.53    0.81
   9  11   5    3.52    0.96
   9 -11  -5    3.91    0.91
  -9  11  -5    3.14    0.84
  10 -11   5    2.08    0.91
 -10 -11  -5    1.50    0.76
 -10  11   5    3.15    0.93
 -10  11  -5    1.70    0.78
  10  11   5    2.63    1.01
   0  12   5    4.53    0.72
   0 -12   5    3.49    0.63
   0 -12  -5    5.40    0.86
   0  12  -5    4.97    0.79
   0  12  -5    3.76    0.63
  -1 -12  -5   20.81    1.35
   1  12  -5   18.40    1.26
   1  12  -5   19.51    1.23
   1 -12   5   20.35    1.30
  -1  12   5   20.45    1.27
   1  12   5   21.07    1.32
   1 -12  -5   21.30    1.35
  -1  12  -5   21.88    1.27
  -1 -12   5   23.20    1.28
  -1  12  -5   20.37    1.31
  -2  12   5    2.06    0.54
  -2  12   5    1.69    0.51
   2  12  -5    2.15    0.58
   2 -12   5    1.96    0.56
   2  12  -5    2.08    0.57
  -2 -12  -5    2.42    0.62
  -2  12  -5    2.06    0.55
   2  12   5    1.89    0.55
  -2  12  -5    3.86    0.71
  -2 -12   5    3.64    0.64
   2 -12  -5    1.86    0.56
   3  12  -5    6.57    0.95
  -3 -12  -5    7.95    1.01
  -3  12   5    6.15    0.82
  -3  12   5    8.06    0.89
  -3 -12  -5    8.69    1.09
   3 -12   5    6.35    0.86
   3  12  -5    4.35    0.72
   3  12   5    7.73    0.99
  -3  12  -5    5.29    0.80
  -3 -12   5    4.99    0.73
   3 -12  -5    5.57    0.84
   4 -12   5   16.02    1.31
  -4  12   5   15.09    1.09
   4  12  -5   15.26    1.16
   4 -12   5   15.65    1.10
  -4  12   5   17.38    1.27
  -4 -12  -5   15.48    1.29
  -4 -12  -5   13.13    1.07
   4  12  -5   14.31    1.35
  -4 -12   5   13.62    1.05
   4 -12  -5   15.66    1.22
   4  12   5   11.70    1.13
  -4  12  -5   10.84    1.14
   5 -12   5   -0.40    0.47
  -5 -12  -5   -0.01    0.40
   5  12  -5    0.41    0.42
  -5  12   5    0.31    0.51
  -5 -12  -5   -0.60    0.34
   5  12  -5   -0.44    0.31
  -5  12  -5    0.21    0.47
   5  12   5    0.02    0.41
  -5 -12   5   -0.43    0.32
   5 -12  -5    0.44    0.49
   6  12  -5    0.65    0.50
   6  12  -5    0.32    0.45
  -6 -12  -5    0.90    0.57
   6 -12   5    0.84    0.62
  -6  12   5    0.46    0.56
  -6 -12  -5    0.38    0.42
   6  12   5   -0.04    0.47
   6 -12  -5    1.63    0.62
  -6 -12   5    0.87    0.48
  -6  12  -5    0.01    0.51
  -7 -12  -5   20.77    1.51
   7 -12   5   24.50    1.75
   7  12  -5   24.77    1.63
  -7  12   5   22.83    1.70
   7 -12  -5   22.05    1.57
   7  12   5   24.48    1.59
  -7  12  -5   23.85    1.65
   7  12   5   21.47    1.73
   8 -12   5    1.27    0.80
  -8  12   5    1.49    0.73
  -8 -12  -5    2.42    0.73
   8  12  -5    1.88    0.67
  -8 -12   5    0.54    0.61
  -8  12  -5    1.28    0.74
   8 -12  -5    1.94    0.69
   8  12   5    1.18    0.68
   8  12   5    1.77    0.66
  -9 -12  -5    0.88    0.69
   9 -12   5    1.05    0.79
  -9  12   5    1.32    0.80
  -9  12  -5    1.63    0.76
   9 -12  -5    2.58    0.86
   9  12   5    1.34    0.81
 -10  12   5    3.68    1.07
  10 -12   5    5.68    1.23
 -10 -12  -5    3.53    0.93
  10  12   5    1.70    0.88
 -10  12  -5    3.15    0.94
   0  13  -5    4.54    0.76
   0 -13   5    5.95    0.83
   0  13   5    4.57    0.78
   0  13  -5    6.39    0.87
   0 -13  -5    6.03    0.90
   1 -13   5    0.92    0.51
   1  13  -5    0.05    0.37
  -1  13   5   -0.03    0.39
  -1 -13  -5    0.27    0.41
   1  13  -5   -0.14    0.33
  -1  13  -5    0.87    0.44
   1 -13  -5    0.65    0.50
  -1  13  -5   -0.17    0.35
   1  13   5    0.42    0.43
  -1 -13   5    0.31    0.40
   2 -13   5   35.40    1.84
   2  13  -5   39.63    1.93
   2  13  -5   37.07    1.80
  -2  13   5   36.42    1.73
  -2 -13  -5   36.90    1.94
   2 -13  -5   33.87    1.80
   2  13   5   33.11    1.73
  -2  13  -5   34.52    1.78
  -2  13  -5   33.26    1.62
  -2 -13   5   33.48    1.66
  -3 -13  -5   19.59    1.48
  -3  13   5   20.46    1.29
   3 -13   5   22.91    1.51
   3  13  -5   19.16    1.32
   3  13  -5   21.38    1.48
  -3  13   5   22.92    1.41
  -3  13  -5   21.77    1.44
   3 -13  -5   20.80    1.42
  -3 -13   5   23.02    1.35
   3  13   5   20.26    1.41
  -4  13   5    0.77    0.46
   4 -13   5    2.13    0.61
   4  13  -5    2.52    0.73
  -4 -13  -5    1.17    0.59
  -4  13   5    2.39    0.64
   4 -13   5    1.79    0.67
   4  13  -5    1.89    0.61
  -4  13  -5    1.83    0.66
   4 -13  -5    1.36    0.60
   4  13   5    1.50    0.62
  -4 -13   5    1.12    0.49
  -5  13   5    8.35    1.10
   5 -13   5    7.22    1.07
   5  13  -5    8.83    1.14
  -5 -13  -5   10.25    1.29
   5  13  -5    8.58    1.07
  -5  13  -5   10.75    1.24
   5 -13  -5    9.26    1.17
   5  13   5   11.31    1.24
  -5 -13   5    9.92    1.07
  -6  13   5    3.93    0.89
   6  13  -5    2.93    0.72
   6  13  -5    3.82    0.84
   6 -13   5    4.59    0.91
  -6 -13  -5    5.82    1.09
  -6  13  -5    3.15    0.82
   6  13   5    2.17    0.72
   6 -13  -5    4.37    0.87
   7  13  -5    2.63    0.74
   7  13  -5    1.39    0.65
  -7  13   5    1.35    0.76
   7 -13   5    0.73    0.73
  -7 -13  -5    3.29    0.90
  -7  13  -5    2.53    0.76
   7  13   5    1.28    0.68
   7 -13  -5    2.56    0.75
  -8  13   5    7.69    1.20
   8 -13   5    8.41    1.26
  -8 -13   5   12.43    1.37
   8 -13  -5   10.67    1.34
   8  13   5    8.41    1.16
  -8  13  -5   12.01    1.48
   9 -13   5    3.41    0.99
  -9  13   5    8.21    1.33
  -9 -13   5    7.10    1.15
   9  13   5    7.36    1.36
   9 -13  -5    5.77    1.15
  -9  13  -5    4.87    1.09
   0  14  -5    0.35    0.44
   0 -14  -5    0.34    0.50
   0  14   5    1.16    0.56
   0  14  -5    0.71    0.48
   0 -14   5    0.28    0.45
  -1 -14  -5   12.57    1.38
   1  14  -5   10.10    1.10
   1  14  -5    9.13    1.10
   1 -14   5   11.35    1.19
  -1  14   5   10.74    1.12
   1 -14  -5   10.72    1.22
  -1 -14   5    8.43    0.96
  -1  14  -5    9.94    1.07
  -1  14  -5    8.53    1.04
   1  14   5    9.74    1.10
   2  14  -5    2.40    0.68
  -2  14   5    2.50    0.62
   2 -14   5    3.16    0.78
  -2 -14  -5    3.57    0.79
   2  14  -5    1.78    0.66
  -2  14  -5    4.71    0.80
   2  14   5    4.55    0.82
   2 -14  -5    5.65    0.94
  -2  14  -5    3.37    0.79
  -2 -14   5    4.23    0.77
   3  14  -5    4.73    0.85
   3 -14   5    6.06    0.92
  -3 -14  -5    6.78    1.09
   3  14  -5    4.11    0.86
  -3  14   5    5.36    0.80
  -3  14  -5    4.64    0.85
   3 -14  -5    6.12    0.99
   3  14   5    4.90    0.91
  -3 -14   5    5.02    0.84
  -4  14   5   18.76    1.45
  -4  14   5   22.22    1.38
   4  14  -5   20.59    1.44
   4  14  -5   18.52    1.46
  -4 -14  -5   20.47    1.59
   4 -14   5   19.32    1.33
   4 -14   5   23.51    1.64
  -4 -14   5   17.43    1.31
   4 -14  -5   20.23    1.54
  -4  14  -5   18.89    1.49
   4  14   5   19.83    1.49
  -5 -14  -5    2.58    0.84
   5  14  -5    1.94    0.64
   5 -14   5    0.74    0.71
   5  14  -5    1.89    0.68
  -5  14   5    1.82    0.72
   5  14   5    1.24    0.63
   5 -14  -5    1.01    0.64
  -5 -14   5   -0.17    0.46
  -5  14  -5    1.05    0.64
  -6  14   5    1.06    0.68
   6  14  -5    0.80    0.58
  -6 -14  -5    2.29    0.79
   6  14  -5    1.87    0.72
   6 -14   5    0.00    0.61
  -6  14  -5    1.15    0.67
   6  14   5    0.57    0.64
   6 -14  -5    1.85    0.76
   7  14  -5    2.50    0.74
   7 -14   5    2.53    0.92
  -7  14   5    1.55    0.83
  -7 -14  -5    2.64    0.80
   7  14   5    2.84    0.84
  -7  14  -5    1.96    0.79
   7 -14  -5    2.51    0.85
  -8  14   5    5.02    1.11
   8 -14   5    4.34    1.05
  -8 -14  -5    5.75    1.14
   8 -14  -5    4.02    1.00
   8  14   5    5.53    1.03
  -8  14  -5    3.62    1.00
   9 -14   5    4.76    1.29
  -9 -14  -5    7.03    1.27
  -9  14  -5    4.80    1.12
   9 -14  -5    5.95    1.23
   0  15   5    5.07    0.88
   0 -15  -5    7.42    1.12
   0  15  -5    7.27    1.01
   0  15  -5    5.22    0.91
   0 -15   5    7.02    0.96
   1  15  -5    4.08    0.82
   1 -15   5    2.42    0.71
   1  15  -5    2.06    0.69
  -1 -15  -5    2.89    0.78
  -1  15   5    2.74    0.71
   1 -15  -5    4.38    0.92
  -1  15  -5    2.93    0.72
   1  15   5    2.05    0.67
  -1 -15   5    3.75    0.74
  -1  15  -5    2.99    0.73
  -2  15   5    0.17    0.48
  -2 -15  -5    0.79    0.60
   2  15  -5    0.86    0.52
   2 -15   5    0.07    0.54
   2  15  -5    0.84    0.53
  -2 -15   5    0.37    0.51
   2  15   5   -0.02    0.49
  -2  15  -5    0.14    0.44
   2 -15  -5    0.84    0.59
  -2  15  -5    0.35    0.50
  -3 -15  -5   25.38    1.82
   3  15  -5   25.97    1.66
   3 -15   5   26.75    1.76
   3  15  -5   24.71    1.74
  -3  15   5   25.57    1.56
  -3 -15   5   27.01    1.62
  -3  15  -5   27.31    1.74
   3 -15  -5   25.92    1.77
   3  15   5   27.29    1.76
   4  15  -5    1.24    0.59
   4 -15   5    2.96    0.82
  -4  15   5    2.70    0.69
  -4 -15  -5    2.83    0.83
   4  15  -5    2.11    0.76
   4  15   5    1.47    0.66
  -4 -15   5    0.28    0.53
   4 -15  -5    2.03    0.73
  -4  15  -5    1.26    0.64
   5  15  -5    1.54    0.67
  -5  15   5    1.22    0.70
   5 -15   5    1.39    0.76
  -5 -15  -5    2.13    0.78
   5  15  -5    1.90    0.73
  -5 -15   5    1.83    0.63
   5 -15  -5    1.11    0.68
  -5  15  -5    1.10    0.65
   5  15   5    1.17    0.65
  -6  15   5    4.97    1.04
   6  15  -5    3.56    0.83
  -6 -15  -5    4.36    1.00
   6 -15   5    3.48    0.95
   6 -15  -5    3.17    0.90
   6  15   5    3.78    0.89
  -6  15  -5    2.29    0.82
   7  15  -5   -0.19    0.49
  -7 -15  -5    0.40    0.65
  -7  15   5    0.55    0.73
   7 -15   5    0.40    0.78
   7 -15  -5   -0.62    0.59
   7  15   5   -0.82    0.55
  -7  15  -5   -0.15    0.64
  -8 -15  -5    0.32    0.63
   8 -15   5    1.61    0.90
  -8  15   5    1.35    0.88
   8  15   5    0.61    0.70
   8 -15  -5    0.75    0.82
  -8  15  -5    0.71    0.75
   0  16  -5    0.76    0.53
   0 -16   5    0.59    0.55
   0  16   5    0.96    0.59
   0  16  -5    1.08    0.57
   0 -16  -5    1.52    0.67
   1  16  -5    2.43    0.70
  -1  16   5    2.69    0.78
   1  16  -5    3.43    0.83
   1 -16   5    3.86    0.88
  -1 -16  -5    4.13    0.93
  -1 -16   5    2.81    0.74
  -1  16  -5    3.06    0.75
   1  16   5    2.22    0.74
  -1  16  -5    3.15    0.78
   1 -16  -5    3.21    0.90
   2  16  -5   13.09    1.44
   2 -16   5   10.72    1.30
   2  16  -5   11.92    1.32
  -2 -16  -5   14.26    1.63
  -2  16   5   11.44    1.26
  -2  16  -5    9.72    1.20
   2  16   5   10.38    1.29
  -2  16  -5    9.52    1.23
   2 -16  -5   11.26    1.40
  -2 -16   5   11.64    1.22
  -3 -16  -5    0.31    0.61
   3  16  -5   -0.55    0.46
   3 -16   5    0.05    0.58
  -3  16   5   -0.26    0.48
   3  16  -5   -0.27    0.50
  -3 -16   5    0.25    0.53
   3 -16  -5   -0.25    0.48
   3  16   5    0.02    0.53
  -3  16  -5   -0.07    0.50
   4  16  -5    8.94    1.24
   4  16  -5    5.67    1.01
  -4 -16  -5    6.31    1.16
   4 -16   5    8.83    1.31
  -4 -16   5    7.07    0.98
   4  16   5    5.52    1.01
   4 -16  -5    7.14    1.17
  -4  16  -5    4.92    0.96
  -5 -16  -5    1.13    0.69
   5 -16   5    2.04    0.82
   5  16  -5    1.08    0.67
   5 -16  -5    0.76    0.73
  -5 -16   5    1.23    0.66
  -5  16  -5    0.14    0.62
   5  16   5    1.06    0.65
  -6 -16  -5    3.91    0.94
   6  16  -5    3.77    0.94
   6 -16   5    5.00    1.09
  -6  16   5    4.43    1.07
   6  16   5    5.45    1.09
   6 -16  -5    4.23    1.06
  -6  16  -5    5.90    1.15
   7 -16   5    0.97    0.80
  -7  16   5    1.60    0.85
   7  16  -5    2.05    0.77
  -7 -16  -5    2.91    0.97
   7  16   5    1.58    0.78
  -7  16  -5    0.97    0.78
   7 -16  -5    1.38    0.94
   0  17  -5    1.97    0.70
   0  17  -5    3.55    0.83
   0 -17   5    2.29    0.80
   0  17   5    2.43    0.78
   0 -17  -5    3.71    0.96
   1  17  -5    5.19    0.96
  -1  17   5    3.22    0.85
   1 -17   5    4.86    0.97
  -1 -17  -5    2.55    0.88
   1  17  -5    3.67    0.90
   1 -17  -5    5.00    1.08
  -1  17  -5    4.73    0.92
  -1 -17   5    6.71    1.06
  -1  17  -5    6.06    1.03
   1  17   5    5.43    1.04
  -2 -17  -5    5.54    1.10
  -2  17   5    6.26    1.03
   2  17  -5    7.69    1.15
   2  17  -5    7.13    1.15
   2 -17   5    6.11    1.07
  -2  17  -5    7.73    1.13
   2 -17  -5    7.15    1.18
  -2 -17   5    5.93    1.00
  -2  17  -5    7.83    1.19
   2  17   5    8.15    1.28
  -3  17   5   10.01    1.25
   3  17  -5    9.20    1.26
  -3 -17  -5    9.62    1.39
   3 -17   5    9.18    1.29
   3  17  -5    7.50    1.22
   3 -17  -5    9.08    1.36
  -3  17  -5    8.67    1.23
   3  17   5    8.25    1.20
  -3 -17   5   10.26    1.27
   4  17  -5    2.96    0.84
   4 -17   5    3.09    0.93
  -4 -17  -5    1.89    0.82
  -4 -17   5    1.53    0.68
   4  17   5    1.82    0.80
  -4  17  -5    2.19    0.81
   4 -17  -5    2.24    0.85
  -5 -17  -5   -0.54    0.59
   5 -17   5    0.00    0.73
   5  17  -5    0.00    0.52
  -5  17  -5   -0.27    0.59
   5  17   5   -0.17    0.62
   5 -17  -5    0.62    0.78
   6 -17   5    0.74    0.84
  -6 -17  -5    1.33    0.84
  -6  17  -5    1.19    0.83
   6 -17  -5    1.81    0.92
   0 -18  -5    6.48    1.20
   0  18  -5    5.06    0.98
   0  18   5    5.34    1.03
   0 -18   5    7.51    1.21
   0  18  -5    4.44    1.00
  -1  18   5    6.38    1.09
  -1 -18  -5    7.79    1.24
   1  18  -5    5.58    1.06
   1  18  -5    5.22    1.07
   1 -18   5    4.44    1.01
  -1  18  -5    5.49    1.03
  -1 -18   5    5.90    1.06
  -1  18  -5    4.36    0.98
   1 -18  -5    6.21    1.19
   1  18   5    4.70    1.00
   2 -18   5    3.63    0.96
   2  18  -5    6.35    1.18
  -2 -18  -5    5.29    1.19
   2  18  -5    4.41    0.96
  -2  18   5    3.88    0.90
  -2  18  -5    5.66    1.05
   2  18   5    4.28    0.98
  -2  18  -5    6.79    1.13
   2 -18  -5    6.35    1.18
  -2 -18   5    4.75    0.93
   3 -18   5   -0.92    0.59
   3  18  -5    0.32    0.58
  -3  18   5    0.20    0.59
  -3 -18  -5   -0.83    0.63
   3  18   5    0.10    0.66
   3 -18  -5   -0.33    0.66
  -3 -18   5    0.67    0.70
  -3  18  -5    1.51    0.73
   4 -18   5    2.04    0.92
  -4 -18  -5    2.21    0.90
   4  18  -5    2.24    0.82
  -4 -18   5    1.53    0.72
   4  18   5    3.06    0.95
  -4  18  -5    1.65    0.83
   4 -18  -5    2.39    0.91
   0 -19   5    1.69    0.79
   0  19  -5    1.09    0.75
   0 -19  -5    0.28    0.77
   0  19   5    0.87    0.76
   0  19  -5    1.41    0.72
   0   0   6    2.24    0.37
   0   0  -6    2.37    0.34
   0   0   6    3.51    0.28
   0   0  -6    3.44    0.49
  -1   0   6  125.57    3.24
  -1   0  -6  125.81    2.99
  -1   0  -6  125.24    3.36
   1   0   6  130.83    3.25
   1   0  -6  128.84    3.35
   1   0   6  127.58    3.11
   1   0  -6  121.64    3.11
  -2   0  -6   13.15    0.58
  -2   0  -6   14.41    0.80
  -2   0   6   13.84    0.77
   2   0  -6   14.14    0.79
   2   0  -6   12.74    0.72
   2   0   6   12.33    0.68
   2   0   6   14.42    0.76
  -3   0  -6  230.95    5.65
   3   0  -6  227.47    5.38
  -3   0  -6  239.72    5.09
  -3   0   6  226.57    5.41
   3   0   6  226.78    5.37
   3   0   6  229.03    5.62
   3   0  -6  233.09    5.63
  -4   0   6   15.86    0.83
   4   0  -6   14.80    0.91
   4   0   6   15.79    0.80
   4   0   6   17.78    0.98
  -4   0  -6   17.01    0.74
   4   0  -6   16.56    0.60
  -4   0  -6   16.80    0.97
  -5   0  -6   11.75    0.67
  -5   0   6   12.17    0.81
   5   0  -6   11.90    0.86
   5   0  -6   11.99    0.60
   5   0   6   11.72    0.88
  -5   0   6   11.59    0.72
   5   0   6   12.54    0.70
  -5   0  -6   11.51    0.87
   6   0   6    6.94    0.86
  -6   0  -6    5.39    0.55
   6   0  -6    5.09    0.69
  -6   0   6    5.40    0.69
   6   0   6    6.10    0.53
  -6   0  -6    6.32    0.79
   6   0  -6    6.43    0.58
  -6   0   6    6.08    0.62
  -7   0  -6    1.87    0.52
  -7   0   6    1.15    0.44
  -7   0  -6    0.69    0.32
  -7   0   6    1.42    0.38
   7   0  -6    0.57    0.41
   7   0   6    1.37    0.51
  -8   0  -6    5.57    0.87
   8   0  -6    5.10    0.87
  -8   0  -6    7.81    0.80
   8   0   6    6.07    0.94
  -8   0   6    5.54    0.77
   9   0   6   50.24    2.41
  -9   0  -6   48.21    2.29
   9   0  -6   47.90    2.27
  -9   0   6   47.96    2.07
 -10   0  -6    1.97    0.70
  10   0   6    2.28    0.81
  10   0  -6    1.40    0.63
 -10   0   6    1.49    0.57
 -11   0   6    0.79    0.55
  11   0   6    0.01    0.59
  11   0  -6    1.37    0.65
 -11   0  -6    0.75    0.63
 -12   0   6    1.98    0.69
  12   0   6    3.34    0.97
 -12   0  -6    1.21    0.74
  12   0  -6    1.79    0.80
 -13   0   6    1.04    0.72
  13   0   6    0.27    0.83
 -13   0  -6    0.75    0.85
  13   0  -6    1.02    0.80
   0  -1   6   47.73    1.54
   0   1  -6   48.34    1.60
   0  -1   6   49.82    1.29
   0  -1  -6   46.43    1.38
   0   1  -6   47.94    1.49
   0   1   6   47.09    1.55
   0  -1  -6   48.14    1.66
   0   1   6   49.88    1.34
  -1  -1  -6   21.72    0.78
   1   1  -6   22.46    0.97
   1  -1   6   22.87    0.97
  -1   1   6   21.45    0.96
   1   1  -6   21.45    0.93
   1  -1   6   22.33    0.81
  -1  -1  -6   21.66    1.03
  -1   1  -6   19.19    0.91
  -1   1  -6   17.95    0.74
  -1  -1   6   16.75    0.82
   1   1   6   16.76    0.73
   1  -1  -6   17.84    0.57
   1   1   6   17.67    0.85
   1  -1  -6   16.65    0.74
   1  -1  -6   18.17    0.91
   2   1  -6  262.83    6.13
  -2  -1  -6  269.64    6.23
   2  -1   6  257.46    6.05
   2   1  -6  245.79    5.91
   2  -1   6  259.16    5.98
  -2   1   6  259.36    6.00
  -2  -1  -6  259.76    5.55
  -2  -1   6  251.84    5.87
   2  -1  -6  247.24    5.72
   2  -1  -6  258.58    6.10
   2   1   6  258.95    5.89
   2   1   6  256.96    6.03
   2  -1  -6  251.56    5.54
  -2   1  -6  247.97    5.58
  -2   1  -6  262.10    6.05
   3   1  -6   21.93    1.04
  -3  -1  -6   23.11    1.11
   3  -1   6   21.89    0.95
  -3   1   6   23.60    1.01
  -3   1   6   23.86    1.01
   3  -1   6   22.78    1.01
  -3  -1  -6   22.54    0.76
   3   1  -6   19.85    0.99
   3   1   6   23.79    1.00
  -3   1  -6   23.07    0.91
   3  -1  -6   24.69    0.71
   3   1   6   22.72    1.05
  -3   1  -6   23.70    1.09
  -3  -1   6   23.02    1.00
   3  -1  -6   25.64    1.14
   4  -1   6   56.08    1.91
   4   1  -6   57.37    1.90
   4  -1   6   53.56    1.69
  -4  -1  -6   56.51    1.53
   4   1  -6   56.86    1.93
   4   1  -6   57.54    1.45
  -4   1   6   54.13    1.75
  -4   1   6   55.64    1.81
  -4  -1  -6   54.52    1.96
  -4   1  -6   59.40    1.74
  -4  -1   6   57.78    1.81
   4  -1  -6   58.20    1.57
   4   1   6   58.85    1.78
   4   1   6   59.63    2.02
   4  -1  -6   55.71    1.98
  -4   1  -6   60.35    2.00
   5  -1   6   12.17    0.87
  -5   1   6   11.78    0.79
   5   1  -6   11.30    0.57
   5   1  -6   10.56    0.83
  -5  -1  -6   10.78    0.86
  -5   1   6   11.97    0.71
  -5  -1  -6   10.69    0.60
   5  -1   6   11.08    0.67
  -5  -1   6   11.85    0.73
  -5   1  -6   11.56    0.69
   5   1   6   12.99    0.70
  -5   1  -6   12.20    0.88
   5   1   6   11.44    0.89
   5  -1  -6   11.69    0.60
   5  -1  -6   13.10    0.91
  -6   1   6    1.03    0.38
  -6  -1  -6    1.10    0.42
   6  -1   6    1.81    0.33
   6   1  -6    1.74    0.45
  -6   1   6    1.12    0.32
   6   1  -6    1.33    0.30
  -6  -1  -6    1.42    0.31
   6  -1   6    1.50    0.46
   6   1   6    1.12    0.31
  -6   1  -6    1.67    0.46
  -6  -1   6    1.32    0.39
   6   1   6    1.27    0.46
   6  -1  -6    0.42    0.35
  -6   1  -6    0.61    0.30
  -6  -1   6    1.31    0.35
   6  -1  -6    1.15    0.28
   7  -1   6    8.69    0.95
   7   1  -6   11.71    1.11
  -7   1   6    9.05    0.92
  -7  -1  -6    9.86    0.70
  -7  -1  -6   11.45    1.14
   7  -1  -6    8.16    0.91
  -7  -1   6   10.49    0.85
  -7   1  -6   10.81    0.79
  -7  -1   6   10.26    0.72
  -7   1  -6   10.15    1.05
   7   1   6    9.07    1.01
   8  -1   6   13.91    1.23
  -8  -1  -6   13.92    1.18
   8   1  -6   14.33    1.18
  -8   1   6   12.27    1.01
  -8   1  -6   14.18    1.33
   8   1   6   15.45    1.28
  -8   1  -6   13.62    0.94
   8  -1  -6   14.08    1.18
  -8  -1   6   13.56    1.05
  -9  -1  -6    8.69    1.18
   9  -1   6    8.57    1.18
  -9   1   6    9.29    1.05
   9   1  -6    7.44    1.03
  -9  -1   6    7.96    0.95
  -9   1  -6    9.06    0.95
   9   1   6    9.57    1.24
  -9   1  -6   10.03    1.18
   9  -1  -6    9.86    1.18
  10  -1   6   20.84    1.69
 -10   1   6   21.56    1.45
 -10  -1  -6   22.43    1.66
  10   1  -6   22.39    1.63
  10  -1  -6   23.48    1.66
  10   1   6   23.68    1.75
 -10  -1   6   22.36    1.46
 -10   1  -6   21.48    1.61
  11   1  -6    3.52    0.90
 -11   1   6    2.11    0.68
  11  -1   6    2.24    0.85
 -11  -1  -6    2.58    0.82
  11  -1  -6    3.53    0.89
 -11   1  -6    2.38    0.80
  11   1   6    2.07    0.82
 -11  -1   6    2.66    0.74
 -12  -1  -6    0.79    0.73
 -12   1   6    1.86    0.70
  12  -1   6    1.63    0.79
  12   1  -6    2.77    0.92
 -12  -1   6    1.80    0.71
 -12   1  -6    1.46    0.79
  12  -1  -6    2.00    0.80
  12   1   6    1.87    0.84
 -13   1   6    0.87    0.67
  13   1  -6    1.17    0.78
  13  -1   6    1.94    0.98
 -13  -1  -6    1.63    0.91
  13  -1  -6    0.72    0.71
  13   1   6    1.41    0.92
 -13   1  -6    1.14    0.82
 -13  -1   6    0.53    0.68
   0  -2  -6    0.49    0.25
   0   2   6    0.49    0.17
   0  -2   6    0.45    0.21
   0  -2   6    0.46    0.14
   0  -2  -6    0.08    0.13
   0   2   6    0.29    0.22
   0   2  -6    0.22    0.20
   0   2  -6    0.10    0.18
  -1   2   6   79.06    2.27
   1  -2   6   80.31    2.25
   1  -2   6   85.30    2.13
   1   2  -6   78.64    2.28
  -1  -2  -6   83.71    1.96
   1   2  -6   81.40    2.28
  -1  -2  -6   80.26    2.45
   1  -2  -6   84.88    2.20
   1   2   6   87.59    2.41
   1  -2  -6   89.07    2.56
  -1   2  -6   86.80    2.45
  -1  -2   6   89.48    2.00
   1   2   6   86.59    2.34
  -1  -2   6   86.68    2.37
   1  -2  -6   86.38    2.14
  -1   2  -6   82.31    2.26
  -2   2   6  114.04    3.03
  -2   2   6  122.46    2.92
   2   2  -6  115.38    3.07
   2  -2   6  115.63    2.99
  -2  -2  -6  119.41    2.62
  -2  -2  -6  113.11    3.19
   2  -2   6  116.97    3.00
   2   2  -6  108.45    3.04
  -2   2  -6  125.82    3.26
   2  -2  -6  118.65    3.32
   2   2   6  125.26    3.20
   2   2   6  125.08    3.29
   2  -2  -6  127.24    2.90
  -2  -2   6  122.21    3.17
  -2   2  -6  123.76    3.05
   3   2  -6  207.37    5.11
  -3   2   6  206.02    4.97
  -3  -2  -6  210.92    4.46
  -3   2   6  213.10    4.88
   3  -2   6  205.86    5.12
  -3  -2  -6  213.63    5.27
   3   2  -6  207.63    5.05
   3  -2   6  208.76    4.94
  -3   2  -6  206.17    4.72
  -3   2  -6  201.58    5.02
   3   2   6  201.50    5.13
   3   2   6  204.05    4.85
   3  -2  -6  209.95    5.14
  -3  -2   6  196.16    4.84
   3  -2  -6  202.37    4.64
  -3  -2   6  211.60    4.48
  -4   2   6   14.95    0.81
   4   2  -6   17.15    0.93
  -4   2   6   17.59    0.90
   4   2  -6   16.12    0.92
  -4  -2  -6   14.41    0.94
   4  -2   6   16.92    0.94
   4   2  -6   16.33    0.58
   4  -2   6   15.51    0.79
  -4  -2  -6   17.17    0.62
   4  -2  -6   13.22    0.87
  -4   2  -6   14.80    0.86
  -4   2  -6   12.03    0.71
   4   2   6   13.58    0.74
   4   2   6   12.42    0.86
  -4  -2   6   13.54    0.76
   4  -2  -6   13.22    0.59
   5   2  -6   67.64    2.24
   5   2  -6   64.56    1.78
   5  -2   6   64.84    1.89
  -5  -2  -6   65.73    2.30
   5   2  -6   62.11    2.16
   5  -2   6   66.18    2.25
  -5  -2  -6   64.15    1.72
  -5   2   6   64.67    1.95
  -5   2   6   65.72    2.11
  -5   2  -6   65.64    2.19
  -5   2  -6   62.52    1.95
  -5  -2   6   63.81    1.94
   5   2   6   64.11    1.89
   5  -2  -6   62.09    1.82
   5  -2  -6   61.11    2.19
   5   2   6   62.52    2.26
   6  -2   6   14.22    0.73
  -6   2   6   15.07    0.96
  -6   2   6   13.28    0.77
  -6  -2  -6   14.82    0.71
   6   2  -6   13.61    0.73
   6  -2   6   13.89    1.01
  -6  -2  -6   14.63    1.05
   6   2  -6   13.88    1.00
  -6   2  -6   14.62    1.01
   6  -2  -6   15.42    1.06
  -6  -2   6   14.44    0.97
   6  -2  -6   13.73    0.78
   6   2   6   16.19    1.12
  -6   2  -6   13.39    0.85
  -6  -2   6   15.35    0.84
   6   2   6   15.98    0.81
  -7  -2  -6    3.41    0.66
   7  -2   6    2.80    0.61
  -7   2   6    3.05    0.57
   7   2  -6    4.73    0.74
  -7   2  -6    4.67    0.73
  -7   2  -6    3.78    0.57
  -7  -2   6    5.28    0.72
  -7  -2   6    4.71    0.57
   7   2   6    5.48    0.84
   7  -2  -6    4.97    0.79
   7  -2  -6    4.46    0.58
  -8  -2  -6   15.86    1.25
   8   2  -6   14.15    1.16
   8  -2   6   15.36    1.26
  -8   2   6   12.48    1.03
  -8  -2   6   11.77    1.10
   8   2   6   13.48    1.38
  -8   2  -6   13.20    1.13
   8  -2  -6   13.48    1.30
  -8   2  -6   12.28    0.95
   9  -2   6   46.43    2.28
   9   2  -6   47.01    2.22
  -9   2   6   41.39    1.94
  -9  -2  -6   44.51    2.23
  -9   2  -6   41.84    2.10
  -9   2  -6   43.35    1.84
   9  -2  -6   37.58    2.03
  -9  -2   6   38.65    1.84
  10  -2   6    5.20    1.03
 -10  -2  -6    6.43    1.07
 -10   2   6    5.53    0.88
  10   2  -6    6.31    1.06
 -10   2  -6    8.30    1.15
  10  -2  -6    4.20    0.86
 -10  -2   6    6.73    0.94
  10   2   6    6.16    1.08
 -10   2  -6    6.32    0.88
 -11  -2  -6    1.14    0.71
 -11   2   6    1.25    0.58
  11   2  -6    1.14    0.68
  11  -2   6    1.35    0.83
 -11  -2   6    2.15    0.67
  11  -2  -6    2.15    0.77
 -11   2  -6    0.92    0.69
  11   2   6    1.07    0.75
 -12   2   6    1.46    0.72
  12  -2   6    2.04    0.89
 -12  -2  -6    3.08    0.96
  12   2  -6    1.56    0.76
 -12  -2   6    2.23    0.75
 -12   2  -6    1.98    0.87
  12  -2  -6    1.09    0.68
  12   2   6    1.63    0.80
 -13   2   6    3.15    0.89
  13  -2   6    2.57    0.98
  13   2  -6    4.30    1.06
 -13  -2  -6    4.75    1.14
 -13  -2   6    4.99    1.00
 -13   2  -6    3.07    1.03
  13   2   6    2.55    1.00
  13  -2  -6    2.10    0.90
   0  -3  -6   30.08    1.29
   0  -3   6   29.78    1.15
   0   3  -6   31.13    1.18
   0   3   6   30.93    1.19
   0  -3   6   32.73    0.98
   0   3   6   31.39    0.93
   0   3  -6   31.86    1.14
   0   3   6   30.47    1.06
  -1   3   6   38.87    1.37
   1  -3   6   38.18    1.22
   1   3  -6   38.15    1.40
   1   3  -6   39.59    1.32
  -1  -3  -6   40.00    1.02
   1  -3   6   38.84    1.33
  -1   3   6   37.66    1.17
   1  -3  -6   37.26    1.15
  -1  -3   6   38.02    1.02
  -1   3  -6   36.19    1.31
  -1   3  -6   35.81    1.27
  -1  -3   6   38.77    1.32
   1   3   6   34.74    1.27
   1  -3  -6   35.47    1.42
   2  -3   6  140.64    3.48
  -2  -3  -6  139.20    2.97
   2   3  -6  138.98    3.63
  -2   3   6  143.26    3.36
   2  -3   6  138.66    3.51
  -2   3   6  137.38    3.52
  -2  -3  -6  137.38    3.73
   2   3  -6  140.11    3.54
   2  -3  -6  136.28    3.79
  -2  -3   6  148.12    3.27
  -2   3  -6  141.92    3.54
   2   3   6  151.40    3.67
  -2  -3   6  142.37    3.61
   2   3   6  143.13    3.76
  -2   3  -6  145.82    3.66
   2  -3  -6  146.06    3.44
   3  -3   6    5.84    0.58
  -3   3   6    6.08    0.56
   3   3  -6    5.93    0.67
   3   3  -6    7.14    0.58
  -3  -3  -6    6.83    0.28
   3  -3   6    6.40    0.58
  -3   3   6    6.87    0.57
  -3  -3  -6    7.88    0.77
  -3   3  -6    6.66    0.60
   3   3   6    5.08    0.58
   3  -3  -6    5.79    0.64
  -3  -3   6    6.52    0.32
   3   3   6    7.10    0.57
  -3   3  -6    6.67    0.57
   3  -3  -6    6.64    0.42
  -3  -3   6    6.96    0.63
  -4  -3  -6    8.78    0.37
   4  -3   6    7.43    0.60
   4   3  -6   10.31    0.78
  -4   3   6    8.85    0.62
   4   3  -6    9.17    0.69
  -4  -3  -6    7.56    0.79
  -4   3   6    8.33    0.65
   4  -3   6    8.33    0.70
   4  -3  -6    6.27    0.45
   4   3   6    7.20    0.58
  -4   3  -6    8.28    0.66
   4  -3  -6    8.35    0.79
  -4  -3   6    8.19    0.63
  -4   3  -6    7.50    0.60
   4   3   6    8.10    0.81
   5  -3   6   31.35    1.16
   5   3  -6   28.16    1.36
   5  -3   6   29.63    1.39
  -5  -3  -6   30.37    0.93
  -5   3   6   30.71    1.18
  -5  -3  -6   29.61    1.44
  -5   3   6   30.09    1.29
   5   3  -6   29.59    1.02
   5   3  -6   31.27    1.38
   5  -3  -6   33.95    1.20
   5  -3  -6   31.40    1.48
   5   3   6   32.84    1.54
  -5   3  -6   34.03    1.44
   5   3   6   33.58    1.27
  -5  -3   6   33.35    1.29
  -5   3  -6   32.22    1.33
   6   3  -6   63.55    2.26
  -6  -3  -6   63.08    2.38
   6   3  -6   65.62    1.91
   6  -3   6   63.46    2.31
  -6   3   6   63.30    1.89
  -6   3   6   59.27    2.11
   6   3  -6   62.01    2.26
  -6   3  -6   64.41    2.30
   6   3   6   65.93    2.48
  -6  -3   6   62.85    2.01
   6   3   6   65.80    1.98
  -6   3  -6   68.12    2.18
   6  -3  -6   65.25    2.03
   6  -3  -6   64.43    2.38
  -7  -3  -6   56.94    2.30
   7  -3   6   57.02    2.27
   7   3  -6   53.49    2.17
  -7   3   6   52.51    2.03
   7   3   6   55.69    1.76
  -7   3  -6   58.34    2.05
  -7  -3   6   53.72    2.07
  -7   3  -6   54.29    2.16
   7   3   6   51.56    2.29
  -7  -3   6   53.72    1.82
   7  -3  -6   52.17    2.20
   7  -3  -6   51.80    1.87
   8   3  -6   20.36    1.38
  -8   3   6   18.47    1.23
  -8  -3  -6   21.68    1.45
   8  -3   6   19.68    1.39
   8  -3  -6   23.69    1.49
  -8   3  -6   19.28    1.33
  -8  -3   6   21.41    1.29
  -8   3  -6   21.81    1.28
   8   3   6   20.22    1.49
   9   3  -6    6.95    0.97
  -9   3   6    7.91    0.98
  -9  -3  -6    7.38    1.04
   9  -3   6    7.26    1.07
  -9   3  -6    6.67    0.99
  -9   3  -6    8.39    0.99
   9  -3  -6    5.86    0.91
   9   3   6    5.81    0.99
  -9  -3   6    8.49    1.00
  10   3  -6   12.44    1.34
 -10   3   6   15.52    1.29
 -10  -3  -6   14.36    1.56
  10  -3   6   15.44    1.62
 -10  -3   6   16.96    1.29
  10  -3  -6   16.90    1.65
  10   3   6   14.53    1.62
 -10   3  -6   15.17    1.50
 -10   3  -6   15.48    1.26
  11   3  -6    2.64    0.85
 -11  -3  -6    2.99    0.87
  11  -3   6    2.53    0.88
 -11   3   6    2.42    0.73
 -11   3  -6    2.33    0.78
  11  -3  -6    2.07    0.80
 -11  -3   6    1.68    0.65
  11   3   6    2.53    0.86
 -12  -3  -6    1.79    0.83
  12  -3   6    1.83    0.86
 -12   3   6    1.45    0.71
  12   3  -6    0.37    0.67
 -12  -3   6    0.81    0.56
 -12   3  -6    0.28    0.72
  12   3   6    1.48    0.84
  12  -3  -6    0.98    0.71
   0   4  -6   14.22    0.69
   0  -4  -6   14.37    0.87
   0  -4   6   13.26    0.75
   0  -4  -6   12.97    0.70
   0   4  -6   13.27    0.77
   0   4   6   14.12    0.78
   0  -4   6   14.03    0.62
   0   4   6   13.99    0.55
   1  -4   6  135.88    3.41
  -1   4   6  139.14    3.52
   1   4  -6  139.66    3.43
  -1   4   6  140.98    3.23
   1   4  -6  132.99    3.55
  -1  -4  -6  139.93    3.78
   1  -4   6  138.38    3.47
  -1  -4   6  134.50    3.46
  -1   4  -6  140.08    3.46
  -1   4  -6  137.49    3.45
  -1  -4   6  141.32    3.24
   1   4   6  138.92    2.94
   1   4   6  129.57    3.52
   1  -4  -6  136.13    3.69
   1  -4  -6  135.86    3.40
   1   4   6  134.74    3.49
   2   4  -6   46.20    1.67
   2  -4   6   44.85    1.49
  -2  -4  -6   45.22    1.69
   2  -4   6   45.48    1.50
  -2   4   6   45.67    1.41
   2   4  -6   44.32    1.47
  -2   4   6   44.83    1.52
  -2  -4   6   44.17    1.53
   2  -4  -6   46.30    1.40
  -2   4  -6   45.38    1.54
  -2  -4   6   45.02    1.25
   2   4   6   44.35    1.54
  -2   4  -6   45.00    1.48
   2   4   6   44.29    1.61
   2  -4  -6   47.27    1.68
   3   4  -6    9.95    0.76
   3  -4   6    9.86    0.64
   3  -4   6    8.72    0.65
  -3   4   6    9.06    0.64
   3   4  -6    9.81    0.64
  -3  -4  -6    9.86    0.77
  -3   4   6    9.38    0.64
  -3  -4   6    9.97    0.69
  -3  -4   6    9.88    0.47
  -3   4  -6   10.00    0.70
  -3   4  -6   10.91    0.67
   3   4   6   10.86    0.72
   3  -4  -6    9.39    0.56
   3   4   6   10.67    0.77
   3  -4  -6   11.12    0.78
   4   4  -6   38.23    1.50
  -4   4   6   38.65    1.45
   4  -4   6   41.24    1.56
   4  -4   6   40.65    1.37
  -4   4   6   39.82    1.39
  -4  -4  -6   39.21    1.64
   4   4  -6   39.78    1.61
  -4   4  -6   34.92    1.37
   4   4   6   34.49    1.52
  -4  -4   6   34.33    1.33
  -4  -4   6   34.10    1.07
   4   4   6   36.38    1.35
  -4   4  -6   34.66    1.37
   4  -4  -6   33.78    1.20
   4  -4  -6   34.02    1.46
   5   4  -6   94.67    2.53
   5  -4   6   99.83    2.63
  -5  -4  -6   95.34    3.06
  -5   4   6   98.55    2.82
   5  -4   6   97.61    2.98
   5   4  -6   98.83    2.97
   5   4  -6   97.71    2.94
  -5   4   6   94.03    2.60
   5  -4  -6   93.93    2.62
  -5  -4   6   96.21    2.68
  -5   4  -6   96.71    2.85
   5  -4  -6   97.26    3.00
   5   4   6   92.61    2.62
  -5   4  -6   93.75    2.77
   5   4   6   91.04    3.03
   6   4  -6    1.00    0.29
  -6   4   6    1.41    0.34
   6  -4   6    1.42    0.45
   6   4  -6    1.33    0.43
  -6   4   6    1.99    0.48
   6   4  -6    1.82    0.45
  -6  -4  -6    1.23    0.44
   6   4   6    2.11    0.59
  -6   4  -6    0.86    0.37
   6  -4  -6    1.21    0.35
   6  -4  -6    2.27    0.54
  -6  -4   6    1.84    0.40
   6   4   6    2.67    0.46
  -6   4  -6    2.10    0.48
   7  -4   6   73.50    2.75
  -7  -4  -6   81.24    2.89
   7   4  -6   74.91    2.69
  -7   4   6   79.61    2.61
  -7  -4   6   78.74    2.38
   7  -4  -6   78.85    2.81
   7  -4  -6   73.57    2.43
   7   4   6   79.46    2.97
  -7   4  -6   74.84    2.57
  -7   4  -6   80.35    2.73
   7   4   6   78.32    2.33
   8   4  -6   17.34    1.28
  -8   4   6   16.49    1.19
  -8  -4  -6   17.69    1.35
   8  -4   6   19.37    1.37
  -8   4  -6   17.74    1.20
   8  -4  -6   16.33    1.29
  -8  -4   6   17.30    1.17
   8   4   6   16.61    1.38
  -8   4  -6   17.56    1.25
  -9  -4  -6   15.06    1.49
   9  -4   6   15.34    1.50
  -9   4   6   16.79    1.28
   9   4  -6   15.42    1.30
   9   4   6   17.56    1.52
   9  -4  -6   16.25    1.35
  -9   4  -6   13.59    1.34
  -9  -4   6   15.28    1.21
  -9   4  -6   15.81    1.18
  10   4  -6    1.94    0.67
 -10  -4  -6    3.91    0.85
  10  -4   6    3.27    0.84
 -10   4   6    2.77    0.74
 -10   4  -6    4.55    0.85
 -10  -4   6    3.76    0.74
  10  -4  -6    4.67    0.98
  10   4   6    4.10    0.99
 -10   4  -6    4.67    0.92
  11   4  -6    7.44    1.17
  11  -4   6    8.47    1.31
 -11   4   6    8.15    1.12
 -11  -4  -6   10.36    1.41
  11  -4  -6    7.82    1.21
 -11   4  -6    7.97    1.21
 -11  -4   6    8.48    1.10
 -11   4  -6    7.83    1.10
  11   4   6    8.12    1.35
 -12  -4  -6    4.28    1.07
  12  -4   6    3.05    0.95
  12   4  -6    4.01    0.99
 -12   4   6    3.33    0.87
  12   4   6    4.01    1.07
 -12   4  -6    5.06    1.09
 -12  -4   6    4.29    0.89
  12  -4  -6    4.07    1.01
   0  -5   6  196.30    4.58
   0   5   6  198.95    4.23
   0   5  -6  194.46    4.52
   0   5  -6  193.85    4.69
   0   5   6  191.16    4.69
   0  -5  -6  177.93    4.88
   0  -5  -6  193.34    4.76
   0  -5   6  193.04    4.67
  -1   5   6   17.10    0.88
   1   5  -6   18.12    0.76
  -1   5   6   17.39    0.72
   1   5  -6   16.68    0.93
   1  -5   6   16.70    0.85
   1  -5   6   16.52    0.79
  -1  -5  -6   16.56    0.99
   1  -5  -6   15.87    0.78
   1   5   6   15.61    0.50
  -1  -5   6   16.34    0.69
  -1   5  -6   15.22    0.72
   1   5   6   15.15    0.84
  -1   5  -6   16.01    0.86
   1  -5  -6   14.46    0.90
  -1  -5   6   15.05    0.83
  -2   5   6   10.42    0.62
   2  -5   6   10.95    0.68
  -2  -5  -6   10.68    0.78
   2   5  -6   10.36    0.78
  -2   5   6   11.36    0.70
   2   5  -6    9.65    0.60
   2  -5   6    9.21    0.65
   2  -5  -6   12.39    0.68
  -2  -5   6   12.07    0.57
  -2   5  -6   11.89    0.66
   2   5   6   11.94    0.77
  -2  -5   6   11.28    0.74
  -2   5  -6   11.25    0.74
   2  -5  -6   11.35    0.79
   2   5   6   13.17    0.81
   3  -5   6    9.73    0.65
  -3   5   6   10.03    0.66
  -3  -5  -6   10.93    0.80
   3   5  -6    9.62    0.65
   3   5  -6    9.67    0.78
   3  -5   6    8.86    0.68
  -3   5   6   10.96    0.68
  -3   5  -6    9.33    0.70
  -3   5  -6    9.34    0.63
  -3  -5   6   10.20    0.72
   3  -5  -6    9.00    0.60
   3  -5  -6    8.30    0.72
  -3  -5   6    9.60    0.51
   3   5   6   11.48    0.81
   3   5   6    9.76    0.72
   4   5  -6   12.99    0.94
  -4  -5  -6   13.80    0.95
   4  -5   6   14.71    0.77
  -4   5   6   14.36    0.85
   4  -5   6   14.54    0.91
  -4   5   6   12.22    0.74
   4   5  -6   14.21    0.85
  -4  -5   6   12.95    0.62
   4   5   6   13.57    0.95
   4  -5  -6   13.80    0.91
   4   5   6   12.43    0.80
  -4   5  -6   13.14    0.78
  -4   5  -6   12.25    0.83
  -4  -5   6   13.66    0.84
   4  -5  -6   10.83    0.68
   5   5  -6    7.70    0.85
  -5  -5  -6    5.90    0.76
  -5   5   6    5.64    0.57
   5   5  -6    7.48    0.79
   5  -5   6    5.68    0.70
   5  -5   6    7.13    0.63
  -5   5   6    5.62    0.67
  -5   5  -6    7.44    0.79
   5  -5  -6    7.45    0.69
   5  -5  -6    7.48    0.84
  -5  -5   6    7.08    0.69
   5   5   6    7.72    0.73
  -5  -5   6    6.79    0.50
  -5   5  -6    6.87    0.71
   5   5   6    6.76    0.81
  -6   5   6  140.22    3.86
   6   5  -6  141.11    3.99
   6  -5   6  138.51    4.06
  -6   5   6  139.36    3.49
  -6  -5  -6  138.75    4.14
   6   5  -6  136.05    3.96
  -6   5  -6  136.91    3.88
   6  -5  -6  142.35    4.09
  -6  -5   6  135.85    3.67
   6   5   6  139.16    3.66
   6  -5  -6  139.13    3.76
  -6   5  -6  138.89    3.84
   6   5   6  133.38    4.18
   7  -5   6   28.51    1.60
   7   5  -6   29.65    1.55
  -7   5   6   30.23    1.53
   7   5  -6   29.88    1.55
  -7  -5  -6   27.73    1.63
   7   5   6   32.53    1.38
  -7  -5   6   31.78    1.39
   7  -5  -6   34.34    1.70
   7   5   6   32.33    1.76
  -7   5  -6   35.16    1.62
  -7   5  -6   28.59    1.53
   7  -5  -6   29.84    1.41
   8  -5   6    4.82    0.84
  -8  -5  -6    3.61    0.80
  -8   5   6    3.73    0.70
   8   5  -6    4.10    0.78
   8  -5  -6    4.47    0.83
  -8  -5   6    4.60    0.74
  -8   5  -6    3.81    0.71
  -8  -5   6    5.13    0.67
   8   5   6    5.21    0.86
  -8   5  -6    4.39    0.77
  -9   5   6    3.18    0.74
   9   5  -6    3.51    0.76
  -9  -5  -6    2.22    0.68
   9  -5   6    3.37    0.73
   9  -5  -6    1.48    0.59
  -9  -5   6    2.21    0.58
   9   5   6    2.60    0.77
  -9   5  -6    1.84    0.57
  -9   5  -6    2.82    0.70
  10   5  -6    2.70    0.82
 -10  -5  -6    4.25    0.95
 -10   5   6    3.49    0.77
  10  -5   6    3.16    0.86
 -10   5  -6    4.93    0.94
 -10   5  -6    4.07    0.82
 -10  -5   6    2.58    0.67
  10  -5  -6    3.20    0.86
  10   5   6    0.70    0.65
  11  -5   6    1.21    0.73
 -11   5   6    0.62    0.60
  11   5  -6    1.24    0.68
 -11  -5  -6    0.83    0.67
 -11   5  -6   -0.46    0.46
  11   5   6    0.64    0.65
  11  -5  -6    1.44    0.72
 -11   5  -6    0.48    0.64
 -11  -5   6    0.74    0.56
  12   5  -6   15.70    1.73
 -12   5   6   13.26    1.51
  12  -5   6   10.33    1.51
 -12  -5  -6   17.24    1.91
  12  -5  -6   15.46    1.73
  12   5   6   12.33    1.60
 -12   5  -6   13.94    1.52
 -12  -5   6   16.24    1.58
 -12   5  -6   14.00    1.63
   0   6   6   20.50    1.00
   0  -6  -6   20.16    1.10
   0  -6   6   20.29    0.98
   0   6   6   20.91    0.75
   0  -6   6   20.80    0.90
   0  -6  -6   19.15    0.97
   0   6  -6   19.44    0.76
   0   6  -6   19.34    1.02
   1   6  -6   95.15    2.46
   1  -6   6   95.70    2.66
   1   6  -6   93.25    2.80
  -1   6   6   97.30    2.45
   1  -6   6   97.41    2.68
  -1   6   6   97.50    2.71
  -1  -6  -6   98.70    2.97
  -1  -6  -6   97.42    2.84
   1  -6  -6   85.20    2.65
   1   6   6   87.17    2.52
   1  -6  -6   89.15    2.50
  -1   6  -6   87.06    2.54
   1   6   6   83.30    1.97
  -1   6  -6   87.06    2.25
  -1  -6   6   83.65    2.49
  -1  -6   6   88.04    2.33
  -2   6   6    4.65    0.49
  -2  -6  -6    4.62    0.63
   2   6  -6    4.52    0.45
   2   6  -6    3.98    0.59
   2  -6   6    3.60    0.47
  -2   6   6    3.93    0.52
   2  -6   6    4.20    0.51
   2   6   6    3.37    0.54
   2  -6  -6    3.75    0.53
  -2  -6   6    3.40    0.49
  -2  -6   6    3.34    0.38
  -2   6  -6    3.10    0.40
   2  -6  -6    3.73    0.47
   2   6   6    3.08    0.48
  -2   6  -6    2.05    0.42
   3  -6   6    0.56    0.27
   3   6  -6    0.35    0.31
   3   6  -6    0.43    0.22
   3  -6   6    0.26    0.29
  -3   6   6    0.39    0.25
  -3   6   6    0.26    0.25
  -3  -6  -6    0.23    0.30
   3  -6  -6   -0.12    0.25
  -3   6  -6    0.20    0.20
  -3  -6   6    0.08    0.17
  -3  -6   6    0.18    0.27
   3   6   6    0.05    0.28
   3  -6  -6    0.44    0.25
  -3   6  -6    0.79    0.33
   3   6   6    0.71    0.32
  -4   6   6    1.32    0.38
   4  -6   6    1.58    0.43
  -4  -6  -6    0.85    0.37
  -4   6   6    1.02    0.31
   4   6  -6    1.32    0.35
   4  -6   6    2.18    0.39
   4   6  -6    1.48    0.45
  -4  -6   6    0.95    0.35
  -4  -6   6    1.11    0.26
   4   6   6    0.88    0.36
  -4   6  -6    0.78    0.35
   4  -6  -6    0.59    0.29
  -4   6  -6    0.53    0.27
   4  -6  -6    0.59    0.33
   4   6   6    0.56    0.33
  -5   6   6  117.35    3.03
  -5  -6  -6  107.41    3.46
   5   6  -6  115.31    3.29
   5  -6   6  120.45    3.03
  -5   6   6  110.11    3.22
   5  -6   6  113.12    3.42
   5   6  -6  112.26    3.41
   5   6   6  112.85    3.58
  -5   6  -6  116.88    3.35
  -5   6  -6  113.62    3.21
   5  -6  -6  116.62    3.45
  -5  -6   6  111.24    2.99
   5  -6  -6  112.40    3.21
   5   6   6  111.16    3.16
  -5  -6   6  115.86    3.22
   6   6  -6    9.24    0.97
   6  -6   6   10.80    1.05
  -6   6   6    8.20    0.85
   6   6  -6    9.82    0.94
  -6  -6  -6    8.47    0.96
  -6  -6   6   11.56    0.88
   6   6   6   12.71    1.25
  -6   6  -6   12.57    0.91
   6  -6  -6   11.69    0.99
  -6   6  -6    9.95    0.97
   6   6   6   11.48    0.87
   6  -6  -6   12.37    0.86
  -7   6   6   16.41    1.16
   7   6  -6   17.93    1.24
  -7  -6  -6   17.30    1.30
   7   6  -6   15.66    1.16
   7  -6   6   15.54    1.23
   7   6   6   16.50    1.30
   7  -6  -6   16.80    1.23
  -7  -6   6   17.61    1.06
   7   6   6   16.04    1.05
   7  -6  -6   16.03    1.04
  -7   6  -6   16.25    1.17
  -7   6  -6   17.35    1.15
  -8   6   6    7.52    0.97
   8   6  -6    8.89    1.02
  -8  -6  -6    8.06    1.13
   8  -6   6    9.11    1.10
   8   6   6    7.59    1.04
  -8   6  -6    9.62    1.06
   8  -6  -6    7.41    0.89
   8  -6  -6    8.77    1.04
  -8   6  -6    7.79    0.96
  -8  -6   6   10.16    0.91
  -9   6   6    0.95    0.53
  -9  -6  -6    0.71    0.53
   9  -6   6    0.71    0.58
   9   6  -6    0.57    0.50
   9  -6  -6    2.18    0.71
  -9  -6   6    2.37    0.61
  -9   6  -6    0.97    0.56
   9   6   6    0.92    0.56
  -9   6  -6    1.09    0.58
  10  -6   6    0.73    0.65
 -10   6   6   -0.49    0.45
  10   6  -6    0.04    0.48
 -10  -6  -6    0.39    0.58
 -10   6  -6    1.11    0.63
  10  -6  -6    0.69    0.62
  10   6   6    1.08    0.68
 -10   6  -6    0.74    0.55
 -10  -6   6    0.12    0.45
 -11   6   6   17.54    1.69
  11  -6   6   15.16    1.69
 -11  -6  -6   19.41    1.90
  11   6  -6   18.19    1.80
 -11   6  -6   16.99    1.62
 -11   6  -6   19.42    1.63
 -11  -6   6   19.12    1.46
  11   6   6   14.39    1.68
  11  -6  -6   19.44    1.86
 -12   6   6    1.01    0.71
  12   6  -6    0.43    0.67
 -12  -6  -6    0.48    0.65
  12  -6   6   -0.04    0.71
 -12   6  -6    0.33    0.64
 -12   6  -6    0.14    0.62
  12   6   6    1.20    0.73
 -12  -6   6    0.69    0.60
  12  -6  -6    0.87    0.70
   0  -7  -6  156.10    4.18
   0   7  -6  158.20    3.66
   0   7   6  153.16    3.60
   0   7   6  159.82    4.07
   0  -7   6  156.83    4.04
   0  -7   6  160.52    4.01
   0  -7  -6  155.22    4.24
   0   7  -6  157.86    4.13
   1  -7   6   15.15    0.89
  -1   7   6   15.15    0.90
   1  -7   6   16.83    0.89
  -1   7   6   14.91    0.75
  -1  -7  -6   18.07    1.10
   1   7  -6   15.17    0.96
   1   7  -6   15.27    0.66
  -1  -7  -6   17.31    0.99
  -1  -7   6   14.62    0.89
   1  -7  -6   14.35    0.87
   1   7   6   15.72    0.91
   1  -7  -6   16.13    0.98
  -1   7  -6   14.83    0.63
   1   7   6   14.81    0.57
  -1   7  -6   14.55    0.91
  -1  -7   6   14.58    0.77
   2   7  -6   17.41    0.79
  -2   7   6   19.29    0.98
  -2  -7  -6   20.76    1.13
   2  -7   6   19.63    1.01
   2   7  -6   17.26    1.06
   2  -7   6   18.79    0.96
  -2   7   6   18.45    0.91
  -2   7  -6   17.45    0.78
   2  -7  -6   19.55    1.07
  -2   7  -6   19.08    1.05
   2   7   6   18.07    1.01
   2  -7  -6   19.75    0.99
  -2  -7   6   16.99    0.83
  -2  -7   6   16.61    0.96
   3   7  -6    9.60    0.63
   3  -7   6   10.06    0.78
  -3   7   6    8.54    0.67
   3  -7   6    9.46    0.69
  -3   7   6    8.91    0.69
  -3  -7  -6    9.39    0.80
   3   7  -6    9.93    0.81
   3  -7  -6    7.03    0.68
  -3  -7   6    6.94    0.71
  -3   7  -6    8.18    0.55
   3   7   6    8.86    0.91
  -3  -7   6    8.21    0.58
   3  -7  -6    8.02    0.79
   3   7   6    8.58    0.81
  -3   7  -6    7.19    0.75
   4   7  -6   14.45    0.86
   4  -7   6   13.93    0.82
   4   7  -6   13.73    1.02
   4  -7   6   15.20    1.01
  -4   7   6   16.37    0.98
  -4   7   6   14.74    0.84
  -4  -7  -6   14.58    1.03
   4   7   6   13.04    1.01
   4  -7  -6   13.81    0.88
  -4   7  -6   13.64    0.78
   4   7   6   14.41    0.94
   4  -7  -6   14.11    0.96
  -4  -7   6   14.68    0.93
  -4   7  -6   14.20    0.97
  -4  -7   6   13.37    0.75
   5   7  -6   20.58    1.27
   5  -7   6   22.31    1.04
   5   7  -6   22.47    1.17
  -5   7   6   21.31    1.02
  -5  -7  -6   23.51    1.35
   5  -7   6   22.61    1.30
  -5   7   6   20.72    1.19
   5   7   6   18.70    1.28
  -5  -7   6   19.76    1.14
  -5   7  -6   18.86    1.17
   5   7   6   21.57    1.14
  -5   7  -6   21.32    1.05
   5  -7  -6   17.49    1.16
  -5  -7   6   20.14    0.95
   5  -7  -6   19.99    1.09
   6   7  -6   75.07    2.58
  -6  -7  -6   77.28    2.80
  -6   7   6   76.64    2.63
   6  -7   6   75.77    2.73
   6   7  -6   79.23    2.76
  -6  -7   6   73.25    2.45
  -6   7  -6   76.31    2.65
   6  -7  -6   74.34    2.49
   6   7   6   75.58    2.46
   6   7   6   75.67    2.85
   6  -7  -6   74.23    2.66
  -6   7  -6   76.10    2.47
   7   7  -6    9.00    1.04
   7  -7   6    7.21    0.93
  -7  -7  -6    9.19    1.11
  -7   7   6    7.69    0.92
   7   7  -6    9.32    1.00
  -7   7  -6    9.89    1.04
   7   7   6    5.19    0.86
  -7   7  -6    8.29    0.91
   7   7   6   10.46    0.96
  -7  -7   6    9.22    0.90
   7  -7  -6    7.04    0.83
   7  -7  -6    7.14    0.93
   8   7  -6    7.51    0.95
   8   7  -6    7.09    0.95
  -8   7   6    7.90    1.04
   8  -7   6    5.98    0.98
  -8  -7  -6   10.00    1.25
  -8  -7   6    9.64    0.92
   8  -7  -6    9.33    1.10
  -8   7  -6    9.31    1.08
   8  -7  -6    9.34    1.00
  -8   7  -6    8.67    1.00
   8   7   6    7.96    1.08
   9   7  -6    1.12    0.54
  -9  -7  -6    1.05    0.61
  -9   7   6    1.15    0.56
   9  -7   6    1.31    0.69
  -9   7  -6    1.76    0.68
  -9  -7   6    2.38    0.64
   9  -7  -6    2.02    0.69
   9   7   6    2.16    0.80
 -10  -7  -6    5.40    1.06
  10   7  -6    4.34    0.87
 -10   7   6    3.84    0.89
  10  -7   6    4.79    1.05
  10   7   6    2.67    0.83
 -10   7  -6    5.47    0.97
 -10  -7   6    4.99    0.87
  10  -7  -6    3.83    0.89
 -11  -7  -6    2.19    0.87
 -11   7   6    0.93    0.65
  11  -7   6    2.28    0.87
  11   7  -6    2.16    0.78
 -11  -7   6    1.78    0.63
  11  -7  -6    2.90    0.89
 -11   7  -6    1.25    0.70
  11   7   6    2.10    0.84
 -12   7   6   18.26    1.84
  12   7  -6   13.65    1.64
 -12  -7  -6   15.46    1.84
  12  -7   6   16.92    1.88
 -12   7  -6   17.64    1.77
  12   7   6   15.40    1.87
 -12  -7   6   17.78    1.70
  12  -7  -6   13.26    1.61
   0  -8  -6   -0.12    0.24
   0   8   6   -0.16    0.20
   0  -8   6    0.25    0.27
   0  -8   6    0.18    0.29
   0   8  -6   -0.07    0.26
   0  -8  -6   -0.02    0.26
   0   8   6    0.32    0.32
   1  -8   6   77.00    2.33
   1   8  -6   70.86    2.42
  -1   8   6   75.46    2.10
  -1  -8  -6   74.21    2.51
  -1   8   6   73.33    2.32
   1  -8   6   72.29    2.29
  -1  -8  -6   70.79    2.45
  -1  -8   6   71.16    2.28
   1  -8  -6   72.57    2.39
   1   8   6   70.01    2.28
  -1   8  -6   72.23    2.36
  -1  -8   6   69.50    2.14
   1  -8  -6   71.06    2.32
   2  -8   6   17.58    1.01
  -2  -8  -6   18.26    1.10
   2   8  -6   16.21    0.75
   2   8  -6   17.50    1.10
   2  -8   6   18.82    0.99
  -2   8   6   18.28    0.99
  -2   8   6   18.20    0.94
  -2  -8  -6   16.85    1.11
  -2   8  -6   16.89    1.04
   2  -8  -6   19.06    1.03
  -2  -8   6   18.54    0.91
   2  -8  -6   18.91    1.05
   2   8   6   15.50    0.98
  -2  -8   6   17.50    1.03
  -3   8   6   16.67    0.97
   3  -8   6   17.06    0.94
  -3  -8  -6   17.76    1.11
   3   8  -6   18.05    1.16
   3  -8   6   16.03    1.03
  -3   8   6   18.26    0.98
   3   8  -6   17.46    0.84
   3   8   6   13.87    0.96
  -3  -8   6   14.14    0.96
  -3   8  -6   12.91    0.96
   3  -8  -6   13.45    0.89
   3   8   6   14.46    1.05
   3  -8  -6   15.16    0.96
  -3  -8   6   13.11    0.78
   4  -8   6    9.30    0.91
   4   8  -6   11.12    0.75
  -4   8   6   10.12    0.91
   4   8  -6    9.51    1.00
  -4  -8  -6   10.92    0.90
  -4   8   6   10.66    0.76
   4  -8   6   10.26    0.76
  -4  -8   6   12.14    0.92
   4   8   6   11.63    0.98
   4   8   6   12.77    0.96
   4  -8  -6   13.22    0.92
   4  -8  -6   11.77    0.89
  -4  -8   6   11.62    0.75
  -4   8  -6   10.01    0.96
   5   8  -6   29.15    1.35
   5   8  -6   26.58    1.51
  -5  -8  -6   29.93    1.55
  -5   8   6   30.66    1.27
   5  -8   6   29.70    1.55
  -5   8   6   28.73    1.45
   5  -8   6   30.10    1.26
  -5   8  -6   30.15    1.52
  -5  -8   6   30.52    1.43
   5  -8  -6   28.82    1.46
   5   8   6   29.01    1.43
   5   8   6   27.41    1.58
   5  -8  -6   28.23    1.39
  -5  -8   6   29.96    1.26
   6  -8   6    6.59    0.90
   6   8  -6    9.04    0.92
   6   8  -6    8.25    1.00
  -6   8   6    6.36    0.86
  -6  -8  -6    8.39    1.01
   6   8   6    7.45    0.84
   6  -8  -6    6.78    0.81
   6  -8  -6    6.30    0.82
   6   8   6    8.05    1.08
  -6   8  -6    8.08    1.00
  -6  -8   6    7.11    0.85
  -7   8   6   33.30    1.70
   7   8  -6   28.51    1.64
   7   8  -6   29.68    1.56
  -7  -8  -6   25.63    1.62
   7  -8   6   27.03    1.65
   7  -8  -6   30.74    1.65
   7   8   6   31.05    1.53
  -7   8  -6   31.37    1.70
  -7  -8   6   31.76    1.54
   7   8   6   25.51    1.71
   7  -8  -6   31.24    1.57
   8   8  -6    2.92    0.70
   8  -8   6    1.64    0.67
   8   8  -6    3.13    0.71
  -8  -8  -6    4.60    0.86
  -8   8   6    5.00    0.83
   8   8   6    3.47    0.81
   8   8   6    4.66    0.72
   8  -8  -6    4.26    0.84
  -8  -8   6    3.79    0.67
  -8   8  -6    3.65    0.76
   8  -8  -6    5.23    0.82
  -9   8   6    1.68    0.66
  -9  -8  -6    0.04    0.49
   9   8  -6    0.98    0.57
   9  -8   6    1.76    0.70
  -9   8  -6    0.96    0.57
   9   8   6    0.50    0.59
  -9  -8   6    0.99    0.51
   9  -8  -6    0.50    0.56
 -10  -8  -6   13.56    1.55
  10   8  -6    9.96    1.27
  10  -8   6    9.73    1.35
 -10   8   6    9.34    1.26
 -10   8  -6    9.36    1.25
  10   8   6    9.85    1.39
 -10  -8   6   10.79    1.26
  10  -8  -6   10.16    1.30
 -11   8   6    6.97    1.17
  11  -8   6    6.00    1.22
  11   8  -6    5.47    1.06
 -11  -8  -6    4.09    1.02
 -11  -8   6    6.58    1.06
  11  -8  -6    5.56    1.12
 -11   8  -6    7.02    1.19
  11   8   6    3.78    1.05
   0  -9  -6   72.27    2.45
   0  -9  -6   72.50    2.43
   0   9   6   69.49    2.04
   0  -9   6   67.14    2.30
   0  -9   6   73.12    2.30
   0   9   6   72.15    2.35
   0   9  -6   70.34    2.43
  -1   9   6   37.05    1.37
   1   9  -6   38.93    1.69
   1  -9   6   36.16    1.53
  -1  -9  -6   37.91    1.67
  -1   9   6   35.77    1.52
  -1  -9  -6   41.39    1.74
   1  -9   6   41.73    1.61
  -1   9  -6   34.25    1.55
   1  -9  -6   34.54    1.52
  -1  -9   6   36.03    1.42
  -1  -9   6   33.92    1.50
   1  -9  -6   32.51    1.50
   1   9   6   36.30    1.55
   2   9  -6   17.63    1.16
  -2   9   6   17.67    0.98
  -2   9   6   18.86    1.04
  -2  -9  -6   20.56    1.21
  -2  -9  -6   18.36    1.17
   2  -9   6   19.40    1.06
   2  -9   6   18.48    1.08
   2  -9  -6   15.55    1.01
  -2  -9   6   15.63    1.02
   2  -9  -6   15.78    1.00
  -2   9  -6   15.64    1.05
  -2  -9   6   15.99    0.91
   2   9   6   14.93    1.04
  -3  -9  -6    2.99    0.62
  -3   9   6    5.45    0.69
  -3   9   6    5.53    0.65
   3  -9   6    5.64    0.66
   3  -9   6    6.10    0.75
   3   9  -6    3.75    0.68
  -3  -9  -6    3.13    0.60
   3  -9  -6    4.41    0.63
  -3  -9   6    4.36    0.67
  -3  -9   6    4.45    0.56
   3  -9  -6    5.68    0.72
   3   9   6    3.86    0.67
  -3   9  -6    5.20    0.75
  -4   9   6   24.92    1.18
  -4   9   6   24.57    1.33
  -4  -9  -6   25.15    1.36
   4  -9   6   23.19    1.36
   4  -9   6   22.56    1.15
   4   9  -6   22.64    1.39
   4  -9  -6   22.97    1.27
  -4  -9   6   21.56    1.08
  -4  -9   6   22.77    1.27
   4  -9  -6   22.17    1.24
  -4   9  -6   22.15    1.31
   4   9   6   23.10    1.29
   4   9   6   22.79    1.42
   5  -9   6    3.26    0.55
  -5   9   6    5.25    0.74
  -5  -9  -6    2.47    0.60
   5  -9   6    2.96    0.66
   5   9  -6    3.93    0.75
  -5   9   6    3.28    0.54
  -5  -9   6    4.43    0.72
   5  -9  -6    3.16    0.61
   5  -9  -6    4.91    0.74
  -5  -9   6    3.90    0.56
  -5   9  -6    2.44    0.59
   5   9   6    2.64    0.61
   5   9   6    3.68    0.73
  -6  -9  -6   16.27    1.25
   6   9  -6   16.99    1.25
  -6   9   6   16.56    1.23
   6  -9   6   17.00    1.29
   6   9   6   15.98    1.31
  -6  -9   6   19.68    1.22
  -6   9  -6   19.29    1.32
   6   9   6   16.65    1.15
   6  -9  -6   16.39    1.19
   6  -9  -6   17.81    1.20
   7   9  -6   31.81    1.74
  -7  -9  -6   32.15    1.83
   7   9  -6   32.09    1.62
   7  -9   6   34.17    1.88
  -7   9   6   32.00    1.76
   7   9   6   29.58    1.86
  -7   9  -6   34.73    1.84
   7  -9  -6   34.71    1.79
   7  -9  -6   33.41    1.71
   7   9   6   33.48    1.65
  -7  -9   6   32.65    1.65
   8   9  -6   15.58    1.44
  -8   9   6   15.25    1.43
   8   9  -6   15.14    1.23
  -8  -9  -6   14.46    1.49
   8  -9   6   14.16    1.43
  -8   9  -6   17.90    1.41
   8  -9  -6   16.34    1.29
  -8  -9   6   16.24    1.23
   8   9   6   12.16    1.39
   8   9   6   18.34    1.24
   8  -9  -6   15.38    1.32
   9  -9   6   -0.09    0.56
  -9   9   6    0.20    0.55
  -9  -9  -6    0.55    0.52
   9   9  -6   -0.55    0.42
  -9   9  -6   -0.71    0.44
   9  -9  -6   -0.12    0.49
   9   9   6   -0.65    0.52
 -10   9   6   13.76    1.55
  10  -9   6   11.27    1.44
  10   9  -6   15.30    1.60
 -10  -9  -6   12.25    1.49
  10  -9  -6    9.30    1.28
 -10   9  -6   12.55    1.48
 -10  -9   6   11.94    1.28
  10   9   6    9.07    1.39
  11   9  -6    5.15    1.04
 -11   9   6    4.66    1.09
 -11  -9  -6    5.46    1.19
  11  -9   6    5.01    1.21
  11  -9  -6    5.95    1.15
 -11   9  -6    5.06    1.06
  11   9   6    4.85    1.20
 -11  -9   6    6.13    1.00
   0  10  -6   53.20    2.11
   0 -10   6   52.69    1.99
   0 -10  -6   56.73    2.07
   0  10   6   52.45    2.01
   0 -10  -6   53.86    2.12
   0 -10   6   55.41    1.99
   1  10  -6   25.41    1.38
  -1 -10  -6   26.73    1.41
  -1  10   6   24.51    1.30
  -1 -10  -6   24.82    1.40
   1 -10   6   28.11    1.36
   1 -10   6   24.97    1.30
  -1  10   6   26.23    1.17
   1  10   6   26.71    1.37
   1 -10  -6   23.39    1.26
  -1 -10   6   24.47    1.21
  -1  10  -6   25.98    1.38
   1 -10  -6   25.56    1.36
  -2  10   6   55.30    1.87
  -2 -10  -6   47.84    2.08
   2 -10   6   48.20    1.94
   2 -10   6   47.98    1.85
   2  10  -6   47.99    2.05
  -2 -10  -6   51.25    2.07
  -2  10   6   48.69    1.89
   2 -10  -6   49.98    1.98
  -2  10  -6   47.26    1.97
  -2 -10   6   54.48    1.88
   2  10   6   47.78    1.95
   2 -10  -6   51.20    1.93
   3  10  -6   45.43    2.04
  -3 -10  -6   47.17    1.98
  -3  10   6   53.44    1.94
  -3 -10  -6   44.74    2.04
   3 -10   6   48.14    1.82
   3 -10   6   46.27    1.96
  -3  10   6   47.25    1.82
   3 -10  -6   48.23    1.88
  -3  10  -6   42.19    1.90
   3  10   6   48.33    1.97
   3 -10  -6   47.16    1.93
  -3 -10   6   49.37    1.79
   4  10  -6    1.24    0.47
  -4  10   6    0.71    0.38
   4 -10   6    0.97    0.50
   4 -10   6    1.11    0.41
  -4  10   6    1.21    0.49
  -4 -10  -6    0.45    0.39
  -4  10  -6    1.25    0.49
   4 -10  -6    0.80    0.41
   4  10   6    1.79    0.57
  -4 -10   6    1.77    0.50
  -4 -10   6    1.57    0.44
   4 -10  -6    1.88    0.55
   5 -10   6    1.33    0.56
   5  10  -6    2.25    0.66
  -5  10   6    1.77    0.56
  -5  10   6    1.89    0.48
  -5 -10  -6    1.90    0.53
  -5 -10   6    2.37    0.49
   5  10   6    1.56    0.60
  -5  10  -6    1.39    0.52
   5 -10  -6    1.49    0.48
   5  10   6    1.90    0.58
   5 -10  -6    1.71    0.57
  -5 -10   6    2.06    0.58
  -6  10   6    1.86    0.61
  -6 -10  -6    2.00    0.59
   6 -10   6    2.03    0.66
   6  10  -6    3.26    0.73
   6  10   6    3.26    0.82
  -6 -10   6    2.68    0.67
   6  10   6    1.81    0.61
  -6  10  -6    2.38    0.65
   6 -10  -6    2.62    0.64
   6 -10  -6    2.72    0.65
   7  10  -6   17.67    1.39
  -7 -10  -6   16.14    1.34
  -7  10   6   18.51    1.42
   7 -10   6   17.13    1.46
   7  10   6   14.93    1.53
  -7 -10   6   19.20    1.32
   7 -10  -6   14.65    1.24
   7 -10  -6   16.50    1.26
   7  10   6   17.96    1.30
  -7  10  -6   18.07    1.40
   8 -10   6    5.10    1.00
  -8  10   6    5.49    0.97
   8  10  -6    6.99    1.01
  -8 -10  -6    5.52    0.97
   8  10   6    6.37    0.89
   8 -10  -6    7.69    1.07
   8 -10  -6    4.67    0.89
  -8  10  -6    6.12    1.03
   8  10   6    5.59    1.09
  -8 -10   6    6.05    0.92
   9  10  -6   22.95    1.64
   9 -10   6   20.66    1.76
  -9 -10  -6   21.71    1.70
  -9  10   6   21.48    1.69
   9 -10  -6   23.56    1.65
   9  10   6   21.28    1.82
  -9  10  -6   23.42    1.74
  10 -10   6    6.47    1.20
 -10 -10  -6    7.28    1.20
 -10  10   6    5.94    1.10
  10  10   6    7.60    1.29
 -10  10  -6    5.77    1.14
 -10 -10   6    5.91    0.98
  10 -10  -6    5.15    1.05
 -11 -10  -6    0.52    0.69
  11 -10   6    0.15    0.86
 -11  10   6    0.25    0.72
  11  10   6    0.60    0.76
 -11  10  -6   -1.06    0.57
   0 -11  -6   -0.03    0.30
   0  11  -6   -0.28    0.32
   0  11   6    0.16    0.40
   0 -11   6    0.01    0.33
   0 -11  -6   -0.18    0.33
  -1  11   6   19.72    1.22
   1 -11   6   17.56    1.17
  -1 -11  -6   17.44    1.18
  -1 -11  -6   16.50    1.21
   1  11  -6   18.36    1.24
   1 -11   6   17.65    1.16
   1  11   6   20.16    1.28
  -1  11  -6   16.58    1.18
  -1 -11   6   18.37    1.12
   1 -11  -6   20.51    1.30
   1 -11  -6   20.04    1.17
  -2 -11  -6   53.91    2.22
  -2  11   6   51.74    1.95
  -2  11   6   55.76    2.09
   2 -11   6   57.53    2.20
  -2 -11  -6   52.53    2.25
   2  11  -6   54.44    2.25
   2 -11   6   52.92    2.04
   2  11   6   55.91    2.21
  -2  11  -6   50.07    2.14
   2 -11  -6   56.09    2.07
   2 -11  -6   55.06    2.19
  -2 -11   6   54.36    2.01
  -3 -11  -6    0.26    0.43
   3 -11   6    0.48    0.42
   3 -11   6   -0.42    0.35
  -3  11   6    0.50    0.39
  -3 -11  -6   -0.17    0.30
  -3  11   6    0.81    0.44
   3  11  -6    0.73    0.43
   3  11   6    0.41    0.43
  -3  11  -6   -0.14    0.36
  -3 -11   6    0.38    0.34
   3 -11  -6   -0.54    0.30
   3 -11  -6    0.03    0.33
   4 -11   6   50.87    2.19
  -4  11   6   52.65    2.13
   4  11  -6   48.25    2.19
  -4 -11  -6   46.79    2.06
  -4  11   6   49.87    1.94
   4 -11   6   52.61    1.95
  -4 -11  -6   44.86    2.22
   4 -11  -6   50.78    2.00
  -4  11  -6   48.81    2.13
   4  11   6   51.69    2.13
   4 -11  -6   49.83    2.12
  -4 -11   6   50.23    1.92
  -5  11   6    2.66    0.58
  -5 -11  -6    2.15    0.62
   5 -11   6    3.62    0.75
  -5  11   6    2.91    0.72
   5  11  -6    2.59    0.67
   5 -11  -6    2.12    0.56
  -5  11  -6    3.14    0.68
   5  11   6    0.42    0.49
   5 -11  -6    1.80    0.60
  -5 -11   6    0.94    0.53
  -5 -11   6    1.48    0.50
  -6 -11  -6   -0.06    0.38
   6 -11   6    0.15    0.55
   6  11  -6   -0.21    0.40
  -6  11   6   -0.09    0.45
  -6  11  -6   -0.40    0.44
  -6 -11   6    0.11    0.49
   6  11   6    0.11    0.44
   6  11   6   -0.45    0.41
   6 -11  -6   -0.08    0.40
   6 -11  -6    0.08    0.41
  -7 -11  -6    4.10    0.81
  -7  11   6    3.91    0.83
   7 -11   6    3.42    0.83
   7  11  -6    3.69    0.82
  -7 -11   6    3.58    0.76
   7  11   6    2.30    0.77
   7  11   6    3.83    0.74
  -7  11  -6    4.91    0.93
   7 -11  -6    3.50    0.79
   8  11  -6   18.89    1.50
  -8 -11  -6   16.45    1.44
   8 -11   6   14.69    1.53
  -8  11   6   16.50    1.62
  -8  11  -6   14.93    1.54
   8  11   6   16.63    1.37
   8  11   6   18.20    1.87
   8 -11  -6   19.10    1.48
  -8 -11   6   18.63    1.44
   9 -11   6    3.49    0.93
   9  11  -6    2.02    0.70
  -9 -11  -6    2.01    0.81
  -9  11   6    1.49    0.75
  -9  11  -6    0.76    0.69
   9  11   6    2.44    0.91
  10 -11   6    8.02    1.37
 -10  11   6    8.76    1.32
 -10 -11  -6    8.61    1.32
 -10  11  -6    9.40    1.36
  10  11   6    8.64    1.45
   0  12  -6   22.16    1.40
   0 -12   6   22.15    1.34
   0 -12  -6   24.59    1.48
   0  12   6   22.31    1.37
  -1 -12  -6   16.53    1.19
   1  12  -6   15.10    1.12
  -1  12   6   14.94    1.17
   1  12  -6   16.44    1.22
   1 -12   6   14.00    1.12
   1 -12   6   13.83    1.10
  -1 -12  -6   14.03    1.16
  -1  12  -6   13.62    1.12
   1  12   6   14.11    1.17
  -1 -12   6   18.17    1.15
   1 -12  -6   14.72    1.20
  -2 -12  -6   -0.24    0.35
   2  12  -6    0.23    0.40
   2 -12   6    0.04    0.40
  -2  12   6    0.33    0.43
   2  12  -6    0.22    0.38
  -2 -12  -6    0.28    0.43
   2 -12   6   -0.09    0.43
  -2 -12   6    0.30    0.40
   2 -12  -6    0.01    0.41
  -2  12  -6    0.18    0.41
   2  12   6   -0.11    0.38
  -3 -12  -6   83.64    3.13
  -3  12   6   77.53    2.71
  -3 -12  -6   77.63    2.86
   3 -12   6   83.36    2.71
   3 -12   6   79.64    2.92
   3  12  -6   83.41    3.05
  -3  12   6   87.49    2.84
   3  12  -6   76.20    2.80
  -3  12  -6   80.89    2.92
   3  12   6   82.30    2.90
   3 -12  -6   75.99    2.84
  -3 -12   6   79.97    2.67
   4 -12   6    2.53    0.64
  -4  12   6    2.68    0.61
   4 -12   6    2.37    0.69
  -4 -12  -6    2.77    0.62
  -4  12   6    2.51    0.65
  -4 -12  -6    3.08    0.77
   4  12  -6    1.77    0.61
  -4 -12   6    3.07    0.57
   4  12   6    2.47    0.65
   4 -12  -6    2.98    0.69
  -4  12  -6    0.47    0.47
  -5  12   6    9.67    1.13
  -5 -12  -6    9.06    1.21
   5  12  -6   10.32    1.20
   5 -12   6   10.10    1.18
  -5 -12  -6    8.54    1.05
  -5  12  -6    9.82    1.14
   5  12   6    9.39    1.09
   5 -12  -6    9.22    1.15
  -6  12   6    4.15    0.87
   6  12  -6    5.62    0.95
  -6 -12  -6    4.31    0.80
   6 -12   6    5.59    1.00
  -6 -12   6    3.33    0.76
  -6  12  -6    4.38    0.90
   6 -12  -6    2.82    0.72
   6  12   6    3.14    0.74
   7  12  -6    0.95    0.64
   7 -12   6    1.08    0.69
  -7 -12  -6    0.34    0.52
  -7  12   6    0.03    0.56
  -7 -12   6    0.74    0.64
  -7  12  -6   -0.09    0.53
   7  12   6    0.89    0.63
   7 -12  -6    1.48    0.65
   7  12   6    0.76    0.67
   8  12  -6    1.49    0.69
   8 -12   6   -0.03    0.70
  -8  12   6    1.51    0.75
  -8 -12  -6    0.69    0.60
   8  12   6    0.26    0.58
  -8  12  -6    2.83    0.81
   8 -12  -6    1.67    0.69
  -8 -12   6    1.98    0.73
   8  12   6    1.70    0.84
  -9  12   6   16.30    1.74
   9 -12   6   16.05    1.72
  -9 -12  -6   20.89    1.70
   9  12   6   20.35    2.09
  -9  12  -6   18.56    1.87
 -10  12   6    0.26    0.75
 -10 -12  -6    0.77    0.72
  10 -12   6    0.47    0.84
 -10  12  -6    0.25    0.67
  10  12   6    0.89    0.82
   0 -13  -6    3.56    0.77
   0 -13   6    3.09    0.66
   0  13  -6    2.46    0.61
   0  13   6    2.29    0.59
   1 -13   6   26.91    1.56
  -1  13   6   23.86    1.44
  -1 -13  -6   26.62    1.62
   1  13  -6   25.52    1.48
   1  13  -6   26.26    1.59
   1 -13  -6   23.58    1.53
  -1 -13   6   25.31    1.42
  -1  13  -6   23.07    1.48
   1  13   6   24.80    1.53
  -2 -13  -6   23.89    1.60
   2 -13   6   23.25    1.41
  -2  13   6   24.58    1.44
   2  13  -6   25.37    1.50
   2  13  -6   25.12    1.59
   2 -13   6   25.52    1.54
   2 -13  -6   23.97    1.52
  -2  13  -6   21.37    1.44
   2  13   6   22.23    1.49
  -2 -13   6   21.86    1.36
  -3 -13  -6    3.83    0.81
   3 -13   6    2.99    0.72
   3  13  -6    3.48    0.76
   3 -13   6    4.92    0.80
   3  13  -6    3.62    0.76
  -3  13   6    4.97    0.79
  -3 -13   6    4.71    0.73
   3 -13  -6    5.07    0.82
  -3  13  -6    4.26    0.83
   3  13   6    4.81    0.87
   4 -13   6   38.44    1.80
  -4  13   6   37.53    1.79
  -4  13   6   40.19    2.00
  -4 -13  -6   38.27    2.16
   4  13  -6   42.09    2.11
   4  13  -6   41.54    1.99
   4 -13   6   43.88    2.12
  -4  13  -6   36.73    1.97
   4 -13  -6   39.07    2.01
  -4 -13   6   39.97    1.82
   4  13   6   39.79    2.02
  -5 -13  -6    0.83    0.58
   5  13  -6    0.33    0.50
   5 -13   6    1.81    0.70
  -5  13   6    1.82    0.65
  -5  13  -6    0.59    0.57
   5  13   6    1.71    0.63
   5 -13  -6    0.00    0.50
  -6 -13  -6    0.51    0.56
  -6  13   6   -0.26    0.56
   6  13  -6   -0.31    0.43
   6 -13   6   -0.26    0.62
  -6 -13   6   -0.08    0.53
   6  13   6    0.65    0.55
  -6  13  -6   -0.09    0.50
   6 -13  -6    0.37    0.56
  -7 -13  -6    8.17    1.28
   7  13  -6   12.45    1.46
   7 -13   6    9.51    1.30
  -7  13   6    8.24    1.21
  -7  13  -6   10.19    1.35
   7 -13  -6    8.91    1.21
  -7 -13   6    8.45    1.15
   7  13   6   10.74    1.28
   8 -13   6   14.63    1.69
  -8  13   6   13.49    1.58
  -8 -13   6   18.44    1.63
  -8  13  -6   13.15    1.52
   8 -13  -6   12.58    1.46
   8  13   6   12.13    1.37
  -9  13   6    3.17    1.02
   9 -13   6    3.43    1.03
   9  13   6    1.96    0.88
  -9 -13   6    2.86    0.94
  -9  13  -6    3.54    0.97
   0  14   6   -0.49    0.38
   0 -14   6   -0.09    0.44
   0 -14  -6    0.71    0.52
   0  14  -6   -0.13    0.36
   0  14  -6   -0.05    0.40
   1 -14   6    6.52    0.95
   1  14  -6    6.92    0.99
   1  14  -6    7.22    1.02
  -1 -14  -6    6.10    1.02
  -1  14   6    6.71    0.96
  -1 -14   6    9.04    1.01
   1  14   6    8.13    1.07
   1 -14  -6    6.15    0.97
  -1  14  -6    7.08    1.01
  -2 -14  -6   23.91    1.64
   2  14  -6   23.50    1.50
   2 -14   6   21.63    1.44
  -2  14   6   22.46    1.47
   2 -14   6   21.64    1.50
   2  14  -6   22.17    1.56
  -2 -14   6   25.17    1.48
   2  14   6   23.20    1.55
  -2  14  -6   21.86    1.52
   2 -14  -6   23.20    1.59
  -3 -14  -6   34.76    2.03
   3 -14   6   37.58    1.86
   3  14  -6   34.64    2.00
  -3  14   6   38.36    1.87
   3  14  -6   36.70    1.94
   3 -14   6   37.72    2.02
  -3 -14   6   31.45    1.70
   3 -14  -6   35.90    1.96
   3  14   6   36.28    1.95
  -3  14  -6   33.79    1.90
   4  14  -6    0.12    0.47
  -4  14   6    0.54    0.44
   4 -14   6    1.00    0.56
  -4 -14  -6   -0.22    0.45
   4  14  -6    0.24    0.47
   4 -14   6    0.95    0.59
   4 -14  -6   -0.02    0.52
  -4 -14   6    0.56    0.44
   4  14   6    0.04    0.51
  -4  14  -6   -0.07    0.47
  -5 -14  -6   11.39    1.47
   5 -14   6   10.30    1.29
  -5  14   6   11.51    1.34
   5  14  -6    8.20    1.18
  -5  14  -6    9.44    1.30
   5 -14  -6   10.74    1.33
   5  14   6   10.03    1.25
  -6  14   6    2.14    0.83
  -6 -14  -6    1.67    0.77
   6  14  -6    2.22    0.75
   6 -14   6    1.66    0.77
   6 -14  -6    1.55    0.73
  -6  14  -6    1.40    0.68
   6  14   6    1.87    0.71
   7  14  -6    3.45    0.93
  -7  14   6    3.67    0.99
   7 -14   6    3.77    1.00
  -7 -14  -6    3.90    0.93
   7 -14  -6    2.94    0.91
   7  14   6    3.22    0.86
  -7 -14   6    2.86    0.88
  -7  14  -6    2.55    0.82
   8 -14   6    7.30    1.28
  -8  14   6    7.38    1.33
  -8 -14  -6    8.39    1.40
   8  14   6    8.88    1.25
   8 -14  -6    8.14    1.28
  -8 -14   6   10.43    1.33
  -8  14  -6    8.60    1.34
   0 -15   6   19.19    1.46
   0  15  -6   21.14    1.53
   0  15   6   20.80    1.50
   0  15  -6   19.82    1.42
   0 -15  -6   19.75    1.60
  -1 -15  -6    2.70    0.84
   1 -15   6    2.08    0.70
   1  15  -6    2.01    0.66
   1  15  -6    3.70    0.84
  -1  15   6    2.24    0.66
  -1 -15   6    1.81    0.61
  -1  15  -6    1.44    0.63
   1  15   6    1.53    0.62
   1 -15  -6    2.44    0.76
  -2  15   6    3.10    0.73
   2  15  -6    3.72    0.90
   2  15  -6    2.57    0.73
   2 -15   6    2.40    0.75
  -2 -15  -6    3.06    0.85
   2 -15   6    4.39    0.87
   2 -15  -6    3.80    0.87
  -2  15  -6    3.72    0.78
  -2 -15   6    5.19    0.86
   2  15   6    3.46    0.82
   3 -15   6    3.83    0.90
   3  15  -6    3.04    0.75
  -3 -15  -6    4.28    0.93
   3 -15   6    2.44    0.77
   3  15  -6    2.94    0.79
  -3  15   6    4.32    0.79
   3  15   6    3.85    0.83
   3 -15  -6    3.88    0.86
  -3 -15   6    2.75    0.71
  -3  15  -6    2.54    0.73
   4 -15   6    7.67    1.16
  -4 -15  -6    8.49    1.33
   4  15  -6    8.34    1.21
  -4  15   6    7.16    0.97
   4  15  -6    6.15    1.01
   4  15   6    5.74    1.07
  -4  15  -6    5.37    0.96
   4 -15  -6    7.40    1.09
   5  15  -6    3.05    0.89
  -5 -15  -6    1.72    0.74
   5 -15   6    2.52    0.87
   5  15   6    3.18    0.86
  -5  15  -6    2.35    0.78
   5 -15  -6    1.63    0.81
   6 -15   6    4.93    1.02
   6  15  -6    6.14    1.13
  -6 -15  -6    4.14    1.00
  -6  15   6    6.28    1.13
   6  15   6    4.25    0.96
   6 -15  -6    5.45    1.09
  -6  15  -6    5.10    1.06
  -7 -15  -6   23.83    1.93
   7 -15   6   26.50    2.13
  -7  15   6   21.65    1.99
   7 -15  -6   21.36    1.89
  -7 -15   6   25.26    1.82
  -7  15  -6   22.30    1.84
   7  15   6   23.79    1.85
   0  16  -6    2.99    0.79
   0 -16  -6    1.99    0.74
   0 -16   6    2.80    0.75
   0  16  -6    4.09    0.85
   0  16   6    0.80    0.65
  -1  16   6   15.40    1.54
  -1 -16  -6   15.39    1.63
   1 -16   6   17.46    1.48
   1  16  -6   16.42    1.38
   1  16  -6   14.37    1.51
  -1  16  -6   14.57    1.47
   1  16   6   17.44    1.48
  -1 -16   6   17.84    1.44
   1 -16  -6   19.74    1.80
  -2  16   6    8.25    1.11
   2 -16   6    8.89    1.17
  -2 -16  -6    7.57    1.27
   2 -16   6    8.73    1.15
   2  16  -6    7.92    1.14
   2  16  -6    7.83    1.20
   2  16   6    8.31    1.24
  -2  16  -6    7.23    1.09
  -2 -16   6    7.31    1.05
   2 -16  -6    8.12    1.19
   3 -16   6    1.38    0.75
  -3  16   6    1.77    0.69
   3  16  -6    1.70    0.75
   3 -16   6    1.05    0.67
   3  16  -6    1.18    0.64
  -3 -16  -6    1.24    0.70
   3  16   6    1.81    0.77
  -3 -16   6    0.56    0.59
   3 -16  -6    2.74    0.86
  -3  16  -6    0.57    0.59
  -4 -16  -6    2.49    0.92
   4 -16   6    0.90    0.79
   4  16  -6    2.73    0.77
   4  16  -6    1.73    0.72
  -4  16   6    1.56    0.66
  -4  16  -6    0.91    0.64
   4  16   6    1.59    0.77
   4 -16  -6    1.75    0.73
   5 -16   6    8.84    1.30
   5  16  -6   11.42    1.48
  -5 -16  -6   10.82    1.48
  -5  16  -6    8.44    1.27
   5 -16  -6   12.17    1.56
   5  16   6    9.40    1.29
  -6 -16  -6    1.58    0.81
   6 -16   6    3.34    0.98
  -6  16  -6    1.54    0.79
   6 -16  -6    1.96    0.90
   6  16   6    2.28    0.87
   0  17  -6   27.98    1.89
   0  17   6   25.01    1.78
   0 -17   6   27.23    1.82
   0 -17  -6   26.54    1.91
   1  17  -6    4.44    0.91
   1 -17   6    4.41    0.96
  -1  17   6    4.59    0.93
  -1 -17  -6    4.09    1.03
   1  17  -6    5.08    1.02
  -1 -17   6    3.10    0.85
  -1  17  -6    3.09    0.86
   1  17   6    2.52    0.84
   1 -17  -6    3.85    0.95
  -2  17   6    2.21    0.73
   2 -17   6    3.15    0.89
   2 -17   6    1.67    0.80
   2  17  -6    4.52    1.01
   2  17  -6    3.58    0.88
  -2 -17  -6    2.28    0.89
   2 -17  -6    4.70    1.04
   2  17   6    1.77    0.78
  -2  17  -6    2.71    0.80
  -2 -17   6    1.98    0.70
  -3 -17  -6    6.47    1.22
   3 -17   6    4.53    1.03
   3 -17   6    2.46    0.87
   3  17  -6    3.23    0.84
   3  17  -6    3.21    0.94
  -3  17   6    4.39    0.93
  -3 -17   6    5.14    0.92
   3  17   6    2.77    0.87
   3 -17  -6    4.20    1.00
  -3  17  -6    2.54    0.79
  -4 -17  -6    3.84    1.05
   4  17  -6    4.39    1.03
   4 -17   6    3.22    1.00
   4  17   6    4.71    1.07
  -4  17  -6    4.41    1.03
   4 -17  -6    1.92    0.87
   5 -17   6    0.99    0.88
  -5 -17  -6    2.91    0.99
   5  17   6    2.22    0.85
  -5  17  -6    1.59    0.80
   5 -17  -6    1.81    0.85
   0 -18  -6    3.01    0.91
   0  18  -6    2.00    0.77
   0  18   6    1.82    0.76
   0 -18   6    2.22    0.83
  -1 -18  -6    9.22    1.38
   1  18  -6   11.36    1.46
  -1  18   6    9.02    1.26
   1 -18   6   10.68    1.39
   1 -18  -6   11.27    1.54
  -1 -18   6    8.90    1.25
   1  18   6    9.88    1.37
  -1  18  -6    8.60    1.26
   2  18  -6    0.24    0.68
  -2 -18  -6    0.79    0.72
   2  18  -6    1.04    0.69
   2 -18   6   -0.15    0.62
  -2  18   6    0.53    0.63
   2 -18   6   -0.11    0.72
   2  18   6   -0.08    0.66
  -2 -18   6    0.55    0.63
  -2  18  -6   -0.22    0.56
   2 -18  -6    0.48    0.70
  -3  18   6   -0.47    0.55
   3  18  -6   -0.34    0.66
   3 -18   6    0.50    0.73
  -3 -18  -6    1.09    0.77
   3 -18   6    0.27    0.70
  -3  18  -6   -0.22    0.55
   3 -18  -6   -0.83    0.58
   3  18   6   -0.11    0.61
   0   0  -7   -0.19    0.16
   0   0  -7   -0.19    0.19
   0   0   7    0.06    0.13
   0   0   7    0.14    0.24
  -1   0  -7    4.12    0.56
   1   0  -7    5.14    0.53
   1   0   7    4.64    0.40
   1   0   7    5.12    0.59
  -1   0  -7    4.38    0.43
  -1   0   7    5.34    0.60
  -1   0   7    4.76    0.23
   1   0  -7    4.58    0.58
  -2   0   7   49.19    1.67
  -2   0  -7   46.60    1.39
   2   0   7   47.23    1.63
   2   0   7   48.33    1.57
   2   0  -7   49.63    1.73
  -2   0  -7   49.60    1.75
   2   0  -7   45.07    1.58
  -3   0  -7    1.48    0.27
   3   0   7    0.99    0.33
  -3   0  -7    0.69    0.32
   3   0  -7    1.12    0.35
   3   0  -7    0.86    0.30
  -3   0   7    0.51    0.30
   3   0   7    1.15    0.33
  -4   0  -7    1.84    0.43
   4   0  -7    0.54    0.28
  -4   0  -7    1.49    0.29
   4   0   7    1.37    0.36
   4   0   7    1.03    0.37
  -4   0   7    1.49    0.37
   4   0  -7    1.21    0.17
   4   0  -7    1.06    0.37
  -5   0  -7    9.02    0.61
   5   0   7    8.88    0.66
   5   0   7   10.10    0.95
  -5   0  -7    9.88    0.83
   5   0  -7   10.01    0.95
  -5   0   7    9.38    0.76
  -5   0   7    8.48    0.69
  -6   0  -7    1.93    0.38
  -6   0  -7    2.03    0.50
  -6   0   7    1.91    0.42
   6   0   7    1.93    0.54
   6   0  -7    1.26    0.47
  -6   0   7    2.19    0.48
   6   0   7    2.37    0.40
  -7   0  -7   62.98    2.49
  -7   0   7   65.18    2.10
  -7   0   7   65.02    2.34
   7   0  -7   65.71    2.53
  -7   0  -7   65.10    2.06
   7   0   7   66.52    2.58
   8   0   7    1.05    0.56
  -8   0   7    0.93    0.47
  -8   0  -7    0.70    0.46
   8   0  -7    1.22    0.53
  -9   0  -7    6.49    1.03
   9   0   7    6.51    1.09
  -9   0   7    5.21    0.80
   9   0  -7    6.44    0.98
  10   0  -7    0.22    0.55
 -10   0  -7    0.37    0.55
 -10   0   7   -0.34    0.41
  10   0   7   -0.68    0.47
 -11   0  -7    0.90    0.66
  11   0  -7    1.31    0.73
 -11   0   7    0.12    0.48
  11   0   7    1.07    0.71
 -12   0  -7   -0.03    0.60
  12   0  -7   -0.35    0.61
 -12   0   7    0.32    0.57
  12   0   7   -0.80    0.61
   0  -1  -7    2.54    0.34
   0   1  -7    2.51    0.42
   0   1   7    3.27    0.47
   0   1   7    2.59    0.29
   0  -1   7    2.96    0.28
   0  -1   7    2.40    0.40
   0   1  -7    3.23    0.42
   0  -1  -7    2.13    0.43
   1  -1   7   18.97    0.96
  -1  -1  -7   19.45    0.78
  -1   1   7   18.27    0.95
   1   1  -7   19.56    0.93
   1  -1   7   21.38    0.81
  -1  -1  -7   20.34    1.07
   1   1  -7   20.67    0.99
  -1   1  -7   19.17    0.84
   1   1   7   20.34    0.84
   1  -1  -7   17.04    0.81
  -1   1  -7   20.24    1.02
   1  -1  -7   18.91    0.62
   1   1   7   19.37    0.96
   1  -1  -7   18.31    0.99
  -1  -1   7   18.89    0.95
   2  -1   7  136.86    3.59
  -2  -1  -7  141.49    3.23
  -2   1   7  139.72    3.62
   2  -1   7  137.26    3.54
   2   1  -7  137.21    3.58
  -2  -1  -7  147.25    3.83
   2   1  -7  137.49    3.70
   2  -1  -7  124.62    3.25
   2   1   7  128.89    3.37
  -2   1  -7  124.59    3.11
  -2   1  -7  129.19    3.49
  -2  -1   7  130.63    3.37
   2  -1  -7  133.23    3.54
   2   1   7  127.88    3.36
   3   1  -7   41.37    1.54
  -3  -1  -7   39.81    1.15
   3  -1   7   36.47    1.42
  -3   1   7   37.36    1.43
   3   1  -7   38.31    1.49
   3  -1   7   39.46    1.42
  -3  -1  -7   39.51    1.57
   3   1   7   42.60    1.50
  -3  -1   7   41.96    1.49
  -3   1  -7   38.79    1.53
   3   1   7   40.62    1.51
  -3   1  -7   39.19    1.31
   3  -1  -7   40.44    1.60
  -4   1   7   39.29    1.47
  -4  -1  -7   40.51    1.22
   4   1  -7   38.34    1.57
   4  -1   7   41.82    1.61
   4   1  -7   39.54    1.60
  -4  -1  -7   41.41    1.67
   4  -1   7   39.65    1.44
  -4   1   7   41.97    1.54
  -4   1  -7   40.35    1.36
   4   1   7   41.88    1.63
  -4  -1   7   39.48    1.46
   4   1   7   40.22    1.46
  -4   1  -7   40.98    1.63
   4  -1  -7   40.95    1.65
   4  -1  -7   40.78    1.13
  -5   1   7    1.97    0.43
   5  -1   7    2.04    0.49
  -5   1   7    2.21    0.40
  -5  -1  -7    2.81    0.37
   5   1  -7    2.08    0.50
  -5  -1  -7    1.76    0.46
   5  -1   7    1.45    0.36
   5  -1  -7    2.07    0.50
  -5   1  -7    2.37    0.40
  -5   1  -7    1.49    0.42
   5   1   7    2.22    0.41
   5   1   7    1.72    0.46
  -5  -1   7    1.94    0.39
   6   1  -7   27.08    1.44
  -6  -1  -7   30.24    1.13
  -6   1   7   29.49    1.25
  -6  -1  -7   29.97    1.53
  -6   1   7   29.87    1.40
   6  -1   7   28.83    1.15
   6  -1   7   27.94    1.49
  -6   1  -7   29.88    1.25
  -6  -1   7   31.17    1.29
  -6   1  -7   28.18    1.47
  -6  -1   7   29.29    1.42
   6  -1  -7   28.08    1.49
   6   1   7   30.23    1.55
   6   1   7   30.95    1.21
   7   1  -7    4.03    0.72
   7  -1   7    2.07    0.56
  -7  -1  -7    3.24    0.67
  -7   1   7    3.59    0.61
   7   1   7    4.61    0.76
  -7   1  -7    4.86    0.76
   7  -1  -7    2.89    0.62
  -7  -1   7    5.15    0.64
  -7  -1   7    3.20    0.60
  -7   1  -7    4.11    0.59
   8   1  -7   14.92    1.24
  -8   1   7   19.16    1.24
   8  -1   7   16.85    1.36
  -8  -1  -7   18.95    1.37
  -8   1  -7   17.45    1.08
  -8   1  -7   17.17    1.29
  -8  -1   7   17.45    1.20
   8  -1  -7   18.12    1.35
   8   1   7   18.84    1.41
   9   1  -7    5.77    0.98
   9  -1   7    5.37    0.97
  -9  -1  -7    4.54    0.90
  -9   1   7    4.58    0.78
  -9  -1   7    5.02    0.82
   9  -1  -7    7.04    1.05
  -9   1  -7    5.49    0.92
   9   1   7    4.94    0.94
  10  -1   7    7.67    1.22
  10   1  -7    7.68    1.18
 -10   1   7    7.49    1.06
 -10  -1  -7    6.21    1.09
  10   1   7    5.10    1.02
 -10   1  -7    5.29    0.97
  10  -1  -7    5.82    1.01
 -10  -1   7    6.26    0.94
 -11  -1  -7    1.13    0.71
  11   1  -7    1.27    0.69
  11  -1   7    2.42    0.86
 -11   1   7    1.51    0.67
  11  -1  -7    1.13    0.71
 -11  -1   7    2.54    0.74
 -11   1  -7    0.14    0.62
  11   1   7    1.73    0.82
 -12  -1  -7    6.26    1.23
  12   1  -7    5.28    1.12
 -12   1   7    6.94    1.18
  12  -1   7    5.29    1.18
  12   1   7    7.34    1.33
  12  -1  -7    4.46    1.02
 -12  -1   7    5.09    0.96
 -12   1  -7    7.44    1.32
   0   2   7    9.91    0.53
   0  -2   7   10.52    0.48
   0  -2  -7   10.81    0.55
   0   2   7    8.07    0.65
   0   2  -7   10.33    0.67
   0   2  -7   10.17    0.65
   0  -2   7   10.08    0.69
   0  -2  -7   11.27    0.79
   1   2  -7   26.47    1.14
  -1   2   7   26.45    1.15
   1  -2   7   26.98    1.13
  -1  -2  -7   28.27    1.30
   1  -2   7   28.23    0.98
  -1  -2  -7   26.98    0.90
   1   2  -7   27.64    1.14
  -1  -2   7   23.80    1.07
   1  -2  -7   22.92    1.15
   1  -2  -7   25.14    0.97
  -1   2  -7   26.49    1.17
  -1  -2   7   26.30    0.72
   1   2   7   26.24    1.01
   1   2   7   27.59    1.16
  -1   2  -7   25.84    1.03
   1  -2  -7   25.82    0.85
   2  -2   7   75.05    2.21
  -2  -2  -7   82.03    1.96
  -2   2   7   79.08    2.20
  -2  -2  -7   81.71    2.52
   2  -2   7   76.67    2.30
   2   2  -7   79.89    2.36
   2   2  -7   79.68    2.39
  -2   2   7   78.99    2.35
   2  -2  -7   90.05    2.65
   2   2   7   84.71    2.46
   2   2   7   84.34    2.46
  -2   2  -7   84.24    2.51
  -2  -2   7   86.04    2.46
   2  -2  -7   85.05    2.07
  -2   2  -7   83.24    2.30
   3   2  -7    7.78    0.77
  -3   2   7    8.23    0.62
  -3   2   7    7.47    0.63
  -3  -2  -7    6.74    0.72
  -3  -2  -7    7.66    0.41
   3   2  -7    7.95    0.67
   3  -2   7    7.98    0.63
   3  -2   7    7.45    0.62
   3  -2  -7    6.59    0.36
   3   2   7    6.54    0.64
  -3   2  -7    6.39    0.53
   3  -2  -7    7.20    0.74
  -3  -2   7    6.70    0.63
  -3   2  -7    6.59    0.66
   3   2   7    7.09    0.69
  -4  -2  -7   22.87    1.22
   4  -2   7   24.42    1.08
  -4   2   7   23.27    1.09
   4   2  -7   25.86    1.23
   4  -2   7   24.42    1.18
   4   2  -7   25.44    1.24
  -4   2   7   24.77    1.14
  -4  -2  -7   25.23    0.81
   4   2   7   24.52    1.23
  -4  -2   7   26.28    1.14
   4  -2  -7   23.11    0.82
   4   2   7   23.84    1.08
  -4   2  -7   22.28    1.00
  -4   2  -7   23.00    1.16
   4  -2  -7   23.79    1.23
   5  -2   7   15.17    0.84
  -5  -2  -7   16.50    0.69
  -5  -2  -7   16.13    1.08
   5  -2   7   15.36    1.01
   5   2  -7   16.67    1.05
  -5   2   7   15.92    0.88
   5   2  -7   14.51    0.99
  -5   2   7   14.78    0.92
  -5   2  -7   15.02    0.85
  -5   2  -7   13.94    0.96
   5   2   7   16.27    0.89
  -5  -2   7   16.61    0.91
   5   2   7   16.50    1.07
   5  -2  -7   15.37    0.70
   5  -2  -7   16.03    1.05
   6   2  -7   15.61    1.07
   6  -2   7   17.39    1.14
  -6   2   7   13.90    0.86
  -6   2   7   15.73    1.04
  -6  -2  -7   15.26    1.11
   6  -2   7   16.12    0.86
   6   2   7   17.62    0.91
  -6   2  -7   14.93    1.07
   6  -2  -7   15.11    1.11
   6   2   7   16.69    1.18
  -6   2  -7   16.82    0.95
  -6  -2   7   19.04    0.99
   7   2  -7   41.81    1.89
  -7  -2  -7   37.71    1.89
   7  -2   7   37.80    1.86
  -7   2   7   40.39    1.75
  -7  -2   7   35.41    1.46
  -7  -2   7   36.76    1.68
   7   2   7   35.87    1.86
  -7   2  -7   38.96    1.57
   7  -2  -7   39.45    1.87
  -7   2  -7   36.23    1.77
   8  -2   7    2.93    0.71
   8   2  -7    3.25    0.72
  -8  -2  -7    3.52    0.71
  -8   2   7    3.46    0.66
   8  -2  -7    2.36    0.66
  -8   2  -7    3.03    0.69
   8   2   7    2.85    0.70
  -8   2  -7    2.67    0.61
  -8  -2   7    3.55    0.67
  -9   2   7   14.59    1.35
   9  -2   7   16.90    1.47
   9   2  -7   17.25    1.39
  -9  -2  -7   16.64    1.41
  -9   2  -7   19.18    1.50
   9  -2  -7   18.28    1.46
  -9  -2   7   21.12    1.37
  -9   2  -7   18.59    1.23
   9   2   7   18.24    1.53
 -10   2   7    2.72    0.71
  10   2  -7    3.17    0.84
  10  -2   7    2.78    0.87
 -10  -2  -7    2.08    0.72
  10   2   7    2.60    0.83
  10  -2  -7    4.30    0.90
 -10   2  -7    4.05    0.91
 -10  -2   7    4.24    0.79
  11  -2   7    1.67    0.79
 -11   2   7    0.93    0.63
 -11  -2  -7    1.48    0.79
  11   2  -7    1.47    0.76
  11   2   7    1.02    0.78
 -11   2  -7    2.44    0.83
  11  -2  -7    1.51    0.74
 -11  -2   7    1.97    0.65
 -12  -2  -7    4.51    1.12
 -12   2   7    3.78    0.92
  12   2  -7    4.92    1.08
  12  -2   7    3.30    1.02
  12   2   7    4.26    1.13
  12  -2  -7    4.07    1.07
 -12  -2   7    4.10    0.94
 -12   2  -7    2.38    0.84
   0   3  -7    2.60    0.40
   0   3   7    2.53    0.33
   0  -3  -7    3.18    0.51
   0   3  -7    2.91    0.44
   0   3   7    3.40    0.49
   0  -3   7    3.69    0.46
   0  -3   7    2.75    0.29
  -1   3   7    5.00    0.45
  -1  -3  -7    4.42    0.61
   1  -3   7    5.25    0.43
   1   3  -7    4.36    0.56
  -1   3   7    5.10    0.57
   1  -3   7    4.19    0.50
  -1  -3  -7    4.96    0.33
   1   3  -7    5.38    0.55
  -1  -3   7    4.21    0.52
  -1   3  -7    4.72    0.57
  -1   3  -7    4.03    0.48
   1  -3  -7    4.50    0.61
   1   3   7    4.61    0.49
   1   3   7    4.64    0.55
   1  -3  -7    4.03    0.40
  -1  -3   7    4.36    0.30
   2  -3   7   11.73    0.75
  -2  -3  -7   12.36    0.86
  -2   3   7   10.63    0.75
   2   3  -7   11.52    0.81
   2   3  -7   10.94    0.71
   2  -3   7   12.73    0.71
  -2  -3  -7   12.50    0.46
  -2   3   7   13.25    0.71
  -2   3  -7   10.47    0.66
  -2  -3   7   11.04    0.76
   2   3   7   10.05    0.69
   2  -3  -7   10.07    0.51
   2   3   7   10.64    0.74
  -2   3  -7   11.52    0.74
  -2  -3   7   10.44    0.39
   2  -3  -7   10.55    0.79
   3  -3   7   50.25    1.71
  -3   3   7   47.30    1.69
   3   3  -7   49.55    1.84
  -3   3   7   52.71    1.68
  -3  -3  -7   52.15    1.26
   3   3  -7   52.44    1.77
  -3  -3  -7   48.64    1.87
   3  -3   7   53.27    1.71
   3   3   7   51.99    1.82
   3  -3  -7   53.48    1.90
  -3  -3   7   53.46    1.24
  -3  -3   7   50.46    1.72
  -3   3  -7   47.59    1.71
  -3   3  -7   48.22    1.64
   3  -3  -7   48.18    1.42
   3   3   7   49.99    1.71
   4  -3   7    6.92    0.70
  -4  -3  -7    7.24    0.78
  -4   3   7    7.08    0.69
  -4   3   7    7.21    0.70
   4   3  -7    8.96    0.71
   4  -3   7    7.15    0.68
  -4  -3  -7    7.88    0.36
   4   3  -7    7.32    0.79
   4  -3  -7    6.07    0.43
  -4  -3   7    8.18    0.69
   4  -3  -7    5.37    0.68
  -4   3  -7    6.52    0.70
   4   3   7    8.10    0.67
   4   3   7    7.62    0.78
  -4   3  -7    7.92    0.64
  -4  -3   7    7.93    0.37
   5   3  -7    2.81    0.55
   5  -3   7    2.92    0.45
  -5   3   7    2.89    0.52
  -5   3   7    2.29    0.43
   5   3  -7    2.70    0.55
   5  -3   7    2.62    0.53
  -5  -3  -7    3.12    0.56
  -5  -3   7    3.78    0.54
  -5   3  -7    3.15    0.50
   5  -3  -7    3.31    0.41
   5   3   7    4.24    0.54
   5   3   7    3.68    0.63
   5  -3  -7    2.99    0.57
  -5   3  -7    2.75    0.51
  -6  -3  -7   21.76    1.33
   6   3  -7   19.59    1.22
  -6   3   7   20.82    1.19
   6  -3   7   23.35    1.31
   6   3  -7   21.36    1.24
  -6   3   7   21.63    1.05
   6  -3  -7   21.00    1.31
   6   3   7   22.51    1.37
  -6   3  -7   22.29    1.16
  -6   3  -7   20.99    1.24
  -6  -3   7   22.33    1.10
   6   3   7   22.51    1.07
   7   3  -7   19.53    1.30
  -7  -3  -7   20.53    1.39
   7  -3   7   21.42    1.39
  -7   3   7   23.00    1.28
  -7   3  -7   17.89    1.24
   7   3   7   21.33    1.43
  -7  -3   7   19.16    1.06
   7  -3  -7   20.26    1.36
   7   3   7   21.13    1.05
  -7  -3   7   18.83    1.22
  -7   3  -7   20.47    1.17
   8  -3   7    2.36    0.66
   8   3  -7    1.58    0.54
  -8   3   7    0.93    0.47
  -8  -3  -7    1.75    0.59
  -8   3  -7    2.04    0.59
   8   3   7    1.46    0.57
  -8   3  -7    3.16    0.61
  -8  -3   7    3.10    0.63
   8  -3  -7    3.47    0.78
  -9   3   7   15.74    1.24
   9  -3   7   13.52    1.40
  -9  -3  -7   16.79    1.42
   9   3  -7   16.99    1.38
  -9   3  -7   15.43    1.20
  -9   3  -7   15.17    1.46
   9  -3  -7   17.21    1.43
   9   3   7   17.94    1.53
  -9  -3   7   16.56    1.25
  10  -3   7    7.93    1.15
  10   3  -7   12.38    1.40
 -10  -3  -7   11.89    1.38
 -10   3   7   11.96    1.29
 -10   3  -7   13.03    1.45
  10   3   7    9.05    1.30
 -10   3  -7   12.63    1.28
 -10  -3   7   12.56    1.26
  10  -3  -7   10.90    1.35
  11  -3   7    2.88    0.90
 -11  -3  -7    4.33    0.99
 -11   3   7    3.09    0.79
  11   3  -7    3.16    0.88
  11   3   7    2.89    0.94
 -11   3  -7    3.35    0.92
  11  -3  -7    3.96    1.02
 -11  -3   7    2.82    0.75
  12  -3   7    4.12    1.12
 -12   3   7    4.29    0.99
 -12  -3  -7    5.23    1.18
  12   3  -7    4.54    1.07
  12   3   7    4.16    1.14
  12  -3  -7    3.41    0.97
 -12   3  -7    5.08    1.10
 -12  -3   7    5.18    0.97
   0  -4  -7    2.47    0.38
   0  -4   7    2.72    0.32
   0  -4   7    2.39    0.43
   0  -4  -7    2.53    0.50
   0   4   7    2.01    0.27
   0   4  -7    1.89    0.37
   0   4   7    2.08    0.42
   0   4  -7    2.82    0.42
  -1   4   7   18.00    0.75
  -1   4   7   14.57    0.86
   1  -4   7   15.81    0.74
   1   4  -7   15.13    0.90
   1   4  -7   15.15    0.79
  -1  -4  -7   13.76    0.95
   1  -4   7   16.16    0.87
  -1  -4   7   14.26    0.83
   1  -4  -7   12.69    0.67
   1  -4  -7   13.08    0.90
   1   4   7   12.87    0.81
  -1  -4   7   13.81    0.58
  -1   4  -7   15.16    0.84
  -1   4  -7   14.28    0.78
   1   4   7   14.60    0.51
   1   4   7   12.02    0.74
   2  -4   7   20.98    0.99
  -2   4   7   20.10    0.99
  -2  -4  -7   21.13    1.14
   2  -4   7   18.00    0.89
   2   4  -7   19.52    0.93
   2   4  -7   20.06    1.07
  -2   4   7   20.80    0.90
  -2  -4   7   18.50    0.65
   2  -4  -7   17.97    1.04
  -2  -4   7   19.58    0.97
  -2   4  -7   17.70    0.91
   2   4   7   17.32    0.94
   2   4   7   18.16    0.96
   2  -4  -7   17.78    0.77
  -2   4  -7   18.57    0.93
  -3   4   7   24.53    1.10
   3   4  -7   22.94    1.22
  -3   4   7   25.69    1.08
   3  -4   7   25.21    1.10
   3   4  -7   26.72    1.15
  -3  -4  -7   23.75    1.25
   3  -4   7   24.23    1.10
  -3   4  -7   24.76    1.12
  -3   4  -7   23.85    1.09
  -3  -4   7   23.09    0.75
  -3  -4   7   23.72    1.10
   3   4   7   25.91    1.22
   3  -4  -7   23.38    0.91
   3  -4  -7   23.82    1.21
   3   4   7   23.82    1.12
  -4   4   7    8.78    0.66
   4  -4   7    8.35    0.74
   4   4  -7    9.13    0.71
   4  -4   7    7.65    0.65
  -4   4   7    8.16    0.67
  -4  -4  -7    6.85    0.83
   4   4  -7    7.88    0.83
  -4   4  -7    8.46    0.70
  -4   4  -7    8.24    0.69
  -4  -4   7    8.95    0.70
   4  -4  -7    7.42    0.52
   4   4   7    7.63    0.81
   4  -4  -7    7.22    0.82
   4   4   7    7.79    0.73
  -4  -4   7    7.64    0.42
  -5  -4  -7   25.97    1.39
   5  -4   7   23.42    1.09
   5   4  -7   24.45    1.25
   5   4  -7   24.04    1.31
  -5   4   7   23.32    1.20
   5  -4   7   26.55    1.32
  -5   4   7   25.14    1.12
  -5   4  -7   26.15    1.25
  -5  -4   7   21.98    1.11
   5   4   7   20.59    1.26
   5  -4  -7   20.67    0.95
  -5   4  -7   22.29    1.14
   5  -4  -7   22.13    1.26
   5   4   7   22.78    1.10
   6   4  -7   29.36    1.52
  -6   4   7   28.58    1.39
  -6  -4  -7   29.46    1.58
   6  -4   7   29.30    1.52
  -6   4   7   28.39    1.22
   6   4  -7   29.82    1.49
  -6   4  -7   29.97    1.40
  -6  -4   7   28.92    1.30
   6   4   7   26.38    1.22
   6  -4  -7   28.35    1.27
   6  -4  -7   26.72    1.49
  -6   4  -7   26.51    1.40
   6   4   7   28.27    1.57
  -7   4   7   18.06    1.19
   7  -4   7   19.37    1.31
  -7  -4  -7   20.18    1.37
   7   4  -7   18.12    1.27
  -7   4  -7   18.97    1.17
  -7  -4   7   19.27    1.09
   7   4   7   21.67    1.07
  -7   4  -7   17.85    1.21
   7   4   7   20.46    1.43
   7  -4  -7   18.19    1.31
  -8   4   7   24.58    1.46
   8  -4   7   24.44    1.60
  -8  -4  -7   26.83    1.69
   8   4  -7   28.05    1.61
   8  -4  -7   27.32    1.66
  -8  -4   7   26.55    1.50
  -8   4  -7   26.71    1.46
   8   4   7   28.34    1.78
  -8   4  -7   23.50    1.49
  -9   4   7    5.34    0.87
  -9  -4  -7    4.82    0.95
   9   4  -7    5.38    0.94
   9  -4   7    6.87    1.06
  -9  -4   7    6.93    0.97
  -9   4  -7    6.48    0.89
  -9   4  -7    5.83    0.94
   9  -4  -7    7.29    1.10
   9   4   7    8.38    1.25
 -10   4   7   -0.09    0.49
 -10  -4  -7    0.31    0.55
  10  -4   7   -0.36    0.56
  10   4  -7    0.47    0.53
  10   4   7    0.11    0.57
  10  -4  -7    0.04    0.51
 -10  -4   7   -0.27    0.37
 -10   4  -7    0.45    0.49
 -10   4  -7   -0.25    0.47
 -11  -4  -7   14.11    1.69
 -11   4   7   12.39    1.36
  11  -4   7   13.25    1.52
  11   4  -7   12.46    1.45
  11   4   7   13.93    1.73
 -11   4  -7   17.18    1.73
 -11  -4   7   16.71    1.60
  11  -4  -7   17.44    1.80
 -12   4   7    4.26    1.03
  12  -4   7    1.83    0.89
 -12  -4  -7    4.40    1.09
  12   4  -7    2.85    0.89
 -12  -4   7    2.23    0.74
  12  -4  -7    3.40    0.99
  12   4   7    2.67    1.02
 -12   4  -7    2.05    0.83
   0   5  -7    0.32    0.28
   0   5  -7    0.53    0.22
   0  -5  -7    1.26    0.39
   0  -5   7    0.37    0.28
   0  -5  -7    0.46    0.25
   0   5   7    0.58    0.19
   0   5   7    0.65    0.31
   0  -5   7    0.67    0.22
   1   5  -7   12.19    0.82
  -1  -5  -7   11.74    0.90
   1  -5   7   13.01    0.70
   1  -5   7   12.57    0.79
   1   5  -7   12.07    0.67
  -1   5   7   11.70    0.61
  -1   5   7   11.25    0.76
   1   5   7   12.45    0.47
   1  -5  -7   12.93    0.90
   1   5   7   13.84    0.85
  -1   5  -7   11.93    0.79
   1  -5  -7   12.60    0.72
   1   5   7   11.65    0.76
  -1  -5   7   13.58    0.62
  -1   5  -7   11.86    0.69
  -1  -5   7   13.75    0.84
  -2  -5  -7   41.35    1.70
  -2   5   7   39.47    1.49
   2  -5   7   40.30    1.45
   2  -5   7   40.93    1.50
   2   5  -7   40.66    1.66
  -2   5   7   41.10    1.37
   2   5  -7   42.68    1.44
  -2  -5   7   38.20    1.46
   2   5   7   34.46    1.42
  -2   5  -7   36.48    1.43
   2   5   7   37.18    1.48
   2  -5  -7   30.60    1.46
   2  -5  -7   36.19    1.28
  -2   5  -7   37.01    1.36
  -2  -5   7   38.57    1.14
   3  -5   7    3.23    0.48
  -3   5   7    2.64    0.44
  -3   5   7    2.31    0.40
   3   5  -7    2.56    0.42
   3   5  -7    2.83    0.52
   3  -5   7    2.03    0.42
  -3  -5  -7    2.01    0.45
   3  -5  -7    1.50    0.31
  -3   5  -7    1.88    0.38
  -3   5  -7    1.48    0.39
   3   5   7    1.12    0.35
  -3  -5   7    1.32    0.24
   3   5   7    1.47    0.41
  -3  -5   7    1.20    0.37
   3  -5  -7    1.35    0.41
   4   5  -7   39.48    1.72
   4  -5   7   40.56    1.61
   4  -5   7   40.48    1.46
  -4   5   7   39.14    1.51
  -4   5   7   37.80    1.45
  -4  -5  -7   38.10    1.70
   4   5  -7   40.94    1.57
  -4   5  -7   41.92    1.62
   4   5   7   40.51    1.74
  -4  -5   7   42.00    1.27
  -4   5  -7   42.40    1.57
   4  -5  -7   40.81    1.73
  -4  -5   7   41.60    1.60
   4   5   7   43.28    1.60
   4  -5  -7   40.58    1.42
  -5   5   7    4.89    0.65
  -5   5   7    5.35    0.60
   5  -5   7    4.70    0.57
   5   5  -7    4.81    0.70
   5   5  -7    5.60    0.71
  -5  -5  -7    4.61    0.72
   5  -5   7    4.81    0.69
   5   5   7    3.28    0.61
  -5   5  -7    4.22    0.61
  -5  -5   7    4.99    0.65
   5  -5  -7    5.20    0.57
   5   5   7    4.60    0.61
   5  -5  -7    4.45    0.67
  -5   5  -7    4.35    0.61
  -6   5   7   13.01    0.99
   6   5  -7   14.87    1.04
   6  -5   7   14.19    1.10
  -6   5   7   13.93    0.82
   6   5  -7   12.69    1.06
  -6  -5  -7   11.17    1.11
  -6   5  -7   12.30    0.98
   6  -5  -7   11.04    0.80
   6  -5  -7   12.50    1.05
   6   5   7   13.57    1.10
  -6  -5   7   11.29    0.87
  -6   5  -7   11.16    0.93
   6   5   7   11.83    0.87
  -7  -5  -7    0.77    0.50
   7   5  -7    0.21    0.38
  -7   5   7    0.96    0.50
   7   5  -7    0.62    0.45
   7  -5   7    1.15    0.50
  -7   5  -7    0.26    0.38
  -7   5  -7    0.14    0.39
   7  -5  -7    0.96    0.49
   7   5   7    0.62    0.41
  -7  -5   7    0.93    0.41
   7   5   7    0.22    0.42
  -8  -5  -7    1.55    0.62
   8  -5   7    2.23    0.65
  -8   5   7    1.34    0.53
   8   5  -7    2.76    0.69
  -8   5  -7    2.42    0.61
   8   5   7    1.91    0.60
  -8  -5   7    2.81    0.64
  -8   5  -7    1.94    0.58
  -8  -5   7    2.34    0.54
   8  -5  -7    1.75    0.62
   9  -5   7    6.41    1.02
   9   5  -7    6.86    1.03
  -9  -5  -7    8.63    1.24
  -9   5   7    6.28    0.95
   9  -5  -7    5.38    0.97
  -9   5  -7    5.26    0.86
  -9  -5   7    4.94    0.86
  -9   5  -7    5.18    0.90
   9   5   7    5.99    1.04
  10  -5   7   29.09    1.98
  10   5  -7   26.25    1.79
 -10  -5  -7   30.68    2.04
 -10   5   7   28.27    1.78
  10   5   7   29.22    2.02
 -10  -5   7   24.64    1.61
 -10   5  -7   27.94    1.70
  10  -5  -7   31.43    1.98
 -10   5  -7   30.75    1.89
 -11  -5  -7    0.69    0.66
 -11   5   7    0.09    0.57
  11   5  -7    0.06    0.57
  11  -5   7    0.04    0.66
  11  -5  -7    0.03    0.57
  11   5   7    0.59    0.68
 -11   5  -7   -0.04    0.59
 -11   5  -7   -0.25    0.54
 -11  -5   7    0.16    0.48
 -12   5   7    3.28    0.92
  12   5  -7    3.98    1.02
 -12  -5  -7    3.10    1.02
  12  -5   7    2.44    0.96
 -12   5  -7    4.16    1.06
  12   5   7    5.02    1.20
  12  -5  -7    4.46    1.07
 -12  -5   7    2.40    0.73
   0   6   7    5.07    0.60
   0   6   7    6.14    0.43
   0  -6   7    4.70    0.57
   0  -6  -7    6.02    0.64
   0   6  -7    5.13    0.45
   0   6  -7    5.94    0.67
   0  -6  -7    6.72    0.76
   0  -6   7    6.65    0.53
  -1   6   7   21.64    1.08
  -1   6   7   21.22    0.86
   1  -6   7   19.87    1.02
   1   6  -7   20.10    0.86
   1  -6   7   20.09    0.94
  -1  -6  -7   19.00    1.04
  -1  -6  -7   21.86    1.23
   1   6  -7   21.19    1.13
  -1  -6   7   16.83    0.76
  -1   6  -7   14.37    0.72
   1   6   7   14.98    0.92
  -1  -6   7   13.94    0.91
   1  -6  -7   15.40    0.85
  -1   6  -7   15.06    0.92
   1  -6  -7   14.78    1.00
   1   6   7   15.04    0.54
   2  -6   7   12.42    0.79
   2   6  -7   11.39    0.89
  -2   6   7   13.61    0.76
  -2  -6  -7   12.72    0.97
   2  -6   7   13.92    0.83
   2   6  -7   12.69    0.71
  -2   6   7   13.39    0.84
   2  -6  -7    9.62    0.82
  -2   6  -7   12.68    0.74
  -2   6  -7   12.37    0.84
  -2  -6   7   11.66    0.62
   2   6   7   12.20    0.85
   2   6   7   12.89    0.88
   2  -6  -7   14.51    0.78
  -2  -6   7   11.08    0.81
   3   6  -7    7.38    0.86
   3   6  -7    7.12    0.59
  -3   6   7    7.14    0.66
  -3   6   7    5.64    0.63
   3  -6   7    5.92    0.66
   3  -6   7    6.02    0.63
  -3  -6  -7    6.07    0.74
   3  -6  -7    8.23    0.62
  -3  -6   7    7.14    0.48
  -3  -6   7    6.35    0.67
  -3   6  -7    6.34    0.71
   3  -6  -7    7.03    0.78
  -3   6  -7    7.06    0.59
   3   6   7    9.33    0.85
   3   6   7    8.14    0.86
   4  -6   7    8.27    0.80
   4  -6   7    6.52    0.64
   4   6  -7    7.19    0.82
   4   6  -7    6.55    0.70
  -4  -6  -7    7.03    0.85
  -4   6   7    6.95    0.69
  -4   6   7    7.16    0.73
   4   6   7    5.83    0.68
  -4  -6   7    6.52    0.72
   4   6   7    3.98    0.64
  -4   6  -7    6.35    0.65
  -4   6  -7    6.71    0.73
   4  -6  -7    6.58    0.79
   4  -6  -7    5.94    0.63
  -4  -6   7    5.96    0.47
  -5  -6  -7   25.33    1.46
   5   6  -7   26.50    1.33
   5  -6   7   30.51    1.48
  -5   6   7   31.82    1.43
  -5   6   7   28.30    1.22
   5   6  -7   27.78    1.49
   5  -6   7   28.62    1.23
  -5   6  -7   28.22    1.28
   5   6   7   23.32    1.42
   5   6   7   25.94    1.29
  -5   6  -7   26.63    1.35
   5  -6  -7   25.90    1.19
   5  -6  -7   26.67    1.42
  -5  -6   7   26.56    1.30
   6  -6   7    8.47    0.94
  -6   6   7    7.87    0.92
  -6  -6  -7    9.24    1.08
   6   6  -7    8.09    0.89
  -6   6   7    8.29    0.76
   6   6  -7    9.41    1.00
   6  -6  -7    7.31    0.76
   6   6   7    7.53    0.80
  -6   6  -7    7.33    0.81
  -6  -6   7    9.06    0.88
  -6   6  -7    7.25    0.89
   6   6   7    6.54    0.88
   6  -6  -7    7.97    0.93
   7   6  -7   15.86    1.22
  -7   6   7   13.36    1.11
  -7  -6  -7   14.34    1.41
   7  -6   7   13.31    1.16
   7   6  -7   12.98    1.08
   7   6   7   11.84    0.93
  -7  -6   7   13.59    1.00
  -7   6  -7   12.84    1.06
   7  -6  -7   11.85    1.22
   7   6   7   14.68    1.25
  -7   6  -7   12.06    1.15
  -8  -6  -7    4.56    0.87
   8   6  -7    4.97    0.83
   8  -6   7    4.73    0.87
  -8   6   7    5.83    0.89
  -8   6  -7    5.47    0.85
  -8   6  -7    5.74    0.85
   8  -6  -7    6.42    0.98
  -8  -6   7    6.13    0.79
   8   6   7    5.85    1.00
  -9   6   7   14.18    1.38
   9  -6   7   10.95    1.31
   9   6  -7   14.19    1.42
  -9  -6  -7   12.82    1.47
   9   6   7   14.00    1.49
  -9   6  -7   11.31    1.22
  -9  -6   7   13.50    1.30
   9  -6  -7   12.38    1.37
  -9   6  -7   12.57    1.30
 -10   6   7    0.62    0.57
  10   6  -7    0.75    0.60
 -10  -6  -7    0.70    0.62
  10  -6   7    1.13    0.79
  10   6   7    0.74    0.64
  10  -6  -7    0.56    0.63
 -10   6  -7    1.29    0.63
 -10   6  -7   -0.14    0.52
 -10  -6   7    0.04    0.47
 -11   6   7   22.12    1.74
  11  -6   7   21.80    1.85
 -11  -6  -7   23.85    1.94
  11   6  -7   24.36    1.83
 -11  -6   7   22.12    1.59
  11  -6  -7   22.82    1.86
 -11   6  -7   22.26    1.71
 -11   6  -7   23.13    1.81
  11   6   7   22.93    1.94
  12   6  -7    0.18    0.66
 -12  -6  -7    0.61    0.78
 -12   6   7    0.01    0.61
  12  -6   7    0.23    0.81
  12  -6  -7    1.40    0.82
 -12  -6   7    0.59    0.60
 -12   6  -7    0.41    0.62
  12   6   7    1.84    0.93
   0  -7  -7    0.48    0.30
   0   7  -7    0.14    0.30
   0   7   7    0.35    0.21
   0   7   7    0.41    0.33
   0   7  -7    0.59    0.20
   0  -7  -7    0.09    0.27
   0  -7   7    0.61    0.26
   0  -7   7    0.63    0.34
   1   7  -7   30.85    1.45
  -1  -7  -7   32.39    1.55
  -1   7   7   31.01    1.37
  -1   7   7   30.10    1.12
   1  -7   7   30.36    1.27
  -1  -7  -7   30.39    1.38
   1  -7   7   30.93    1.35
   1   7  -7   31.41    1.09
  -1  -7   7   27.93    1.11
   1  -7  -7   26.12    1.21
   1   7   7   26.77    1.27
  -1   7  -7   28.72    1.03
  -1  -7   7   28.35    1.29
   1  -7  -7   26.83    1.36
  -1   7  -7   28.05    1.32
   2  -7   7   10.42    0.78
   2   7  -7    9.35    0.61
   2  -7   7   10.02    0.76
  -2   7   7    9.49    0.74
   2   7  -7    9.99    0.99
  -2  -7  -7   10.74    0.88
  -2   7   7   10.18    0.69
  -2   7  -7    8.90    0.85
   2   7   7    9.40    0.85
   2   7   7    9.17    0.78
  -2  -7   7    8.22    0.78
   2  -7  -7    8.66    0.68
  -2  -7   7    8.75    0.60
   2  -7  -7    9.15    0.91
  -2   7  -7    8.16    0.58
   3   7  -7    9.03    0.93
   3   7  -7   11.76    0.73
  -3  -7  -7   11.14    0.92
   3  -7   7   11.01    0.83
  -3   7   7   11.53    0.79
  -3   7   7   10.47    0.78
   3  -7   7    9.28    0.75
   3  -7  -7   11.16    0.77
   3   7   7   10.97    0.86
   3   7   7   10.63    0.88
  -3   7  -7   10.43    0.85
  -3  -7   7   10.06    0.62
  -3  -7   7   10.44    0.83
  -3   7  -7   12.02    0.71
   3  -7  -7    9.74    0.84
  -4   7   7   21.39    1.16
  -4  -7  -7   22.32    1.31
   4   7  -7   23.33    1.12
   4   7  -7   23.16    1.35
   4  -7   7   23.64    1.26
   4  -7   7   21.45    1.09
  -4   7   7   23.03    1.12
   4  -7  -7   23.27    1.28
   4  -7  -7   23.12    1.14
   4   7   7   24.61    1.38
  -4  -7   7   21.07    0.97
  -4   7  -7   21.83    1.23
  -4   7  -7   20.14    1.01
  -4  -7   7   24.87    1.25
   4   7   7   22.93    1.21
  -5   7   7    6.00    0.67
   5  -7   7    5.03    0.62
  -5   7   7    5.45    0.72
   5  -7   7    6.20    0.84
   5   7  -7    4.95    0.68
  -5  -7  -7    5.56    0.85
   5   7  -7    5.47    0.82
   5   7   7    4.96    0.68
   5  -7  -7    4.39    0.60
  -5   7  -7    4.63    0.61
   5  -7  -7    3.53    0.65
  -5   7  -7    3.65    0.63
   5   7   7    4.53    0.79
  -5  -7   7    5.69    0.75
  -6   7   7    5.04    0.78
   6  -7   7    4.15    0.76
   6   7  -7    5.86    0.80
   6   7  -7    3.69    0.74
  -6  -7  -7    4.07    0.75
   6  -7  -7    4.88    0.69
  -6   7  -7    4.71    0.67
   6   7   7    4.18    0.76
   6  -7  -7    5.23    0.79
  -6   7  -7    4.86    0.75
  -6  -7   7    5.15    0.74
   6   7   7    3.46    0.63
  -7  -7  -7    7.79    1.02
   7   7  -7   10.26    1.07
   7  -7   7    7.11    0.97
   7   7  -7    9.24    1.09
  -7   7   7    8.92    1.00
  -7  -7   7    9.51    0.97
   7   7   7   10.64    1.21
   7   7   7   10.63    1.00
  -7   7  -7    8.94    1.06
   7  -7  -7    9.56    1.12
  -8  -7  -7    3.73    0.84
   8  -7   7    3.84    0.80
   8   7  -7    4.13    0.77
  -8   7   7    3.40    0.73
   8   7  -7    2.31    0.67
   8  -7  -7    4.83    0.88
  -8  -7   7    3.41    0.67
   8   7   7    5.14    0.96
  -8   7  -7    4.11    0.82
  -9  -7  -7    1.31    0.64
   9  -7   7    0.48    0.62
   9   7  -7    0.80    0.52
  -9   7   7    0.39    0.53
   9   7   7    0.89    0.60
  -9   7  -7    0.07    0.48
   9  -7  -7    0.45    0.53
  -9  -7   7    0.26    0.45
  10  -7   7   23.27    1.82
 -10   7   7   22.92    1.74
 -10  -7  -7   22.78    1.80
  10   7  -7   22.99    1.67
  10   7   7   24.23    1.93
 -10  -7   7   24.64    1.61
  10  -7  -7   24.84    1.85
 -10   7  -7   25.94    1.75
 -11  -7  -7    3.15    0.92
 -11   7   7    3.89    0.98
  11  -7   7    4.22    1.09
  11   7  -7    2.36    0.83
 -11   7  -7    2.21    0.76
  11  -7  -7    3.14    0.95
 -11  -7   7    2.45    0.79
  11   7   7    2.29    0.95
   0  -8  -7   88.03    2.92
   0  -8   7   96.29    2.68
   0   8  -7   88.95    2.83
   0  -8   7   87.87    2.75
   0   8   7   92.76    2.78
   0  -8  -7   90.96    2.84
  -1  -8  -7   11.89    0.94
   1  -8   7   13.68    0.93
  -1   8   7   13.69    0.94
  -1  -8  -7   13.65    1.02
   1  -8   7   12.45    0.84
  -1   8   7   14.09    0.77
   1   8  -7   13.84    0.98
  -1  -8   7   12.40    0.78
   1  -8  -7   12.82    0.95
  -1   8  -7   13.59    0.95
   1  -8  -7   12.60    0.89
   1   8   7   13.65    0.97
  -1  -8   7   13.08    0.93
   2   8  -7    3.15    0.60
  -2   8   7    3.53    0.49
  -2   8   7    3.14    0.56
  -2  -8  -7    2.97    0.61
   2  -8   7    3.27    0.54
  -2  -8  -7    2.88    0.57
   2  -8   7    2.62    0.50
   2   8   7    2.60    0.53
  -2   8  -7    2.34    0.54
   2  -8  -7    3.79    0.56
   2  -8  -7    3.35    0.58
  -2  -8   7    2.48    0.40
  -2  -8   7    2.39    0.50
   3  -8   7    2.58    0.52
   3   8  -7    2.24    0.58
  -3   8   7    2.43    0.49
  -3   8   7    2.80    0.51
  -3  -8  -7    2.33    0.55
   3   8  -7    2.27    0.39
   3  -8   7    1.76    0.45
  -3   8  -7    2.05    0.52
   3   8   7    3.24    0.61
  -3  -8   7    1.93    0.48
   3   8   7    3.05    0.60
   3  -8  -7    2.08    0.45
  -3  -8   7    3.43    0.45
   3  -8  -7    2.98    0.55
  -4  -8  -7    0.70    0.43
  -4   8   7    0.80    0.36
   4  -8   7    0.93    0.38
   4   8  -7    1.16    0.47
  -4   8   7    0.78    0.39
   4   8  -7    1.04    0.36
   4  -8   7    1.10    0.47
   4   8   7    0.65    0.41
  -4  -8   7    1.02    0.43
   4  -8  -7    1.27    0.47
   4  -8  -7    0.75    0.38
  -4   8  -7    1.13    0.46
   4   8   7    0.40    0.41
   5   8  -7   15.05    1.17
   5  -8   7   12.06    0.90
  -5   8   7   15.80    0.94
   5   8  -7   14.39    0.97
  -5   8   7   13.08    1.01
  -5  -8  -7   13.55    1.10
   5  -8   7   14.66    1.13
   5  -8  -7   18.45    1.22
  -5  -8   7   15.86    1.10
   5   8   7   14.88    1.11
  -5   8  -7   17.09    1.17
   5  -8  -7   15.40    1.03
   5   8   7   14.78    1.20
  -6  -8  -7   16.83    1.31
   6  -8   7   16.47    1.29
   6   8  -7   19.83    1.20
   6   8  -7   18.32    1.33
  -6   8   7   19.01    1.27
  -6   8  -7   13.81    1.15
  -6  -8   7   18.36    1.20
   6   8   7   18.75    1.38
   6  -8  -7   15.47    1.08
   6  -8  -7   13.43    1.17
   6   8   7   15.87    1.15
   7   8  -7    3.57    0.68
   7   8  -7    2.18    0.64
   7  -8   7    2.85    0.69
  -7  -8  -7    1.97    0.65
  -7   8   7    3.04    0.68
   7  -8  -7    2.52    0.66
  -7  -8   7    2.32    0.57
   7   8   7    3.00    0.78
  -7   8  -7    2.69    0.67
   7   8   7    2.24    0.61
   8   8  -7    5.21    0.89
   8  -8   7    5.27    0.95
  -8  -8  -7    5.40    0.94
  -8   8   7    6.25    0.94
   8   8  -7    6.44    0.93
  -8   8  -7    4.78    0.90
  -8  -8   7    5.98    0.85
   8   8   7    6.95    1.11
   8  -8  -7    6.27    0.96
   8   8   7    6.49    0.87
   9   8  -7    6.09    0.98
  -9  -8  -7    3.80    0.91
   9  -8   7    3.98    0.90
  -9   8   7    4.18    0.89
   9   8   7    4.17    1.01
   9  -8  -7    4.32    0.88
  -9   8  -7    3.78    0.82
 -10   8   7   -0.55    0.53
  10   8  -7   -0.03    0.51
  10  -8   7    0.14    0.70
 -10  -8  -7    0.28    0.60
  10   8   7   -0.17    0.63
 -10   8  -7    0.78    0.59
 -10  -8   7   -0.30    0.41
  10  -8  -7    1.06    0.68
 -11   8   7    8.30    1.28
  11  -8   7    6.94    1.25
 -11  -8  -7   10.26    1.49
  11   8  -7    7.55    1.21
  11  -8  -7    9.52    1.33
 -11  -8   7    7.31    1.10
  11   8   7    7.89    1.40
 -11   8  -7    7.37    1.23
   0  -9   7    1.83    0.44
   0   9   7    1.53    0.48
   0  -9  -7    1.87    0.50
   0  -9   7    2.31    0.54
   0   9  -7    2.45    0.52
   0  -9  -7    2.34    0.53
  -1   9   7   29.93    1.41
  -1   9   7   30.17    1.21
  -1  -9  -7   31.07    1.56
   1  -9   7   29.85    1.40
   1  -9   7   29.11    1.35
   1   9  -7   28.04    1.49
  -1  -9  -7   29.72    1.48
   1  -9  -7   30.71    1.47
   1  -9  -7   28.23    1.45
  -1  -9   7   29.45    1.29
   1   9   7   28.36    1.41
  -1   9  -7   31.31    1.50
  -1  -9   7   30.13    1.44
  -2  -9  -7    0.94    0.48
  -2   9   7    1.06    0.40
   2  -9   7    1.54    0.45
  -2  -9  -7    1.90    0.52
  -2   9   7    1.48    0.41
   2   9  -7    1.13    0.46
   2  -9   7    1.99    0.50
   2   9   7    1.83    0.49
  -2  -9   7    1.31    0.43
   2  -9  -7    1.41    0.43
  -2   9  -7    1.49    0.48
  -2  -9   7    0.76    0.35
   2  -9  -7    1.66    0.47
  -3   9   7   10.10    0.92
   3   9  -7    9.38    1.09
  -3  -9  -7    9.67    1.05
  -3   9   7    9.10    0.86
   3  -9   7   10.09    0.96
   3  -9   7    8.86    0.85
  -3  -9   7   11.92    0.79
  -3  -9   7    8.83    0.88
   3  -9  -7   10.48    0.98
   3   9   7   10.99    1.01
  -3   9  -7   10.55    1.03
   3  -9  -7   11.40    0.90
   4   9  -7    0.92    0.44
   4  -9   7    0.28    0.42
   4  -9   7    0.87    0.39
  -4   9   7    0.45    0.35
  -4  -9  -7    0.63    0.44
  -4   9   7    1.07    0.43
   4  -9  -7    0.39    0.34
   4   9   7    0.11    0.38
   4  -9  -7    0.34    0.38
   4   9   7    0.29    0.38
  -4  -9   7    0.52    0.43
  -4   9  -7    0.35    0.39
  -5   9   7   10.45    0.84
   5   9  -7   10.33    1.12
   5  -9   7   10.48    0.96
  -5   9   7   11.27    1.07
   5  -9   7   11.40    1.10
  -5  -9  -7    8.37    1.00
  -5   9  -7   11.63    1.15
   5   9   7   15.05    1.12
   5   9   7   14.52    1.21
  -5  -9   7   13.74    1.11
   5  -9  -7   13.21    1.09
   5  -9  -7   13.09    1.01
  -6   9   7    6.25    0.89
   6  -9   7    6.81    0.96
  -6  -9  -7    5.15    0.86
   6   9  -7    8.12    1.07
  -6  -9   7    4.76    0.79
   6   9   7    4.76    0.90
  -6   9  -7    6.14    0.86
   6  -9  -7    5.77    0.86
   6   9   7    6.11    0.86
   6  -9  -7    5.30    0.79
   7  -9   7    7.77    1.06
  -7  -9  -7    6.64    1.03
   7   9  -7    5.19    0.91
  -7   9   7    6.81    0.98
   7  -9  -7    8.25    1.04
   7   9   7    7.04    0.94
   7   9   7    6.46    1.03
  -7   9  -7    9.27    1.10
   7  -9  -7    7.82    0.96
  -7  -9   7   10.15    1.07
   8  -9   7   12.20    1.37
   8   9  -7   13.88    1.40
  -8   9   7   13.02    1.38
  -8  -9  -7   11.60    1.32
   8   9   7   12.50    1.21
   8   9   7   11.96    1.40
   8  -9  -7   11.20    1.28
  -8  -9   7   10.58    1.10
  -8   9  -7   11.35    1.29
   9   9  -7    7.78    1.17
  -9  -9  -7    5.06    1.04
  -9   9   7    6.46    1.08
   9  -9   7    7.38    1.19
  -9   9  -7    8.05    1.17
   9   9   7    7.83    1.28
   9  -9  -7    5.88    1.06
  10  -9   7    4.41    1.11
 -10   9   7    2.52    0.85
 -10  -9  -7    4.61    1.04
 -10   9  -7    4.64    0.96
  10  -9  -7    4.43    0.99
 -10  -9   7    4.52    0.87
  10   9   7    4.64    1.17
 -11  -9  -7    4.85    1.17
 -11   9   7    5.77    1.13
  11  -9   7    4.07    1.10
 -11   9  -7    4.47    1.01
  11   9   7    5.78    1.36
  11  -9  -7    2.86    0.90
 -11  -9   7    4.54    0.92
   0  10  -7   86.16    2.86
   0  10   7   86.44    2.78
   0 -10   7   80.08    2.69
   0 -10  -7   81.39    2.79
   0 -10  -7   76.20    2.75
   0 -10   7   86.63    2.68
   1  10  -7   26.88    1.51
  -1  10   7   26.80    1.39
  -1 -10  -7   26.53    1.49
   1 -10   7   31.33    1.44
  -1 -10  -7   30.33    1.56
   1 -10   7   28.73    1.44
   1 -10  -7   27.18    1.44
  -1 -10   7   26.67    1.43
  -1 -10   7   30.72    1.38
  -1  10  -7   32.24    1.56
   1 -10  -7   31.90    1.54
   1  10   7   29.99    1.51
  -2  10   7    2.71    0.57
  -2 -10  -7    2.29    0.61
   2 -10   7    1.95    0.52
  -2 -10  -7    1.60    0.53
  -2  10   7    1.79    0.47
   2  10  -7    1.97    0.59
   2 -10   7    2.06    0.51
  -2  10  -7    1.40    0.49
   2 -10  -7    1.28    0.47
   2 -10  -7    1.50    0.48
   2  10   7    1.58    0.53
  -2 -10   7    1.80    0.54
  -2 -10   7    1.44    0.42
   3 -10   7    1.94    0.57
  -3 -10  -7    3.04    0.65
   3  10  -7    1.75    0.57
  -3 -10  -7    1.85    0.53
  -3  10   7    2.16    0.52
  -3  10   7    0.68    0.40
   3 -10   7    1.59    0.48
  -3  10  -7    1.34    0.52
  -3 -10   7    1.36    0.49
   3 -10  -7    1.59    0.49
   3 -10  -7    1.56    0.49
  -3 -10   7    1.17    0.40
   3  10   7    0.73    0.45
   4  10  -7    0.62    0.50
   4 -10   7    0.75    0.48
   4 -10   7    0.76    0.44
  -4 -10  -7    0.18    0.39
  -4  10   7    0.92    0.48
  -4  10   7    0.96    0.43
   4 -10  -7    1.05    0.45
  -4 -10   7    0.06    0.42
   4  10   7    0.62    0.47
   4 -10  -7    0.53    0.39
  -4  10  -7    1.01    0.47
   5  10  -7    0.92    0.52
  -5  10   7    0.35    0.49
  -5  10   7    0.30    0.39
   5 -10   7    0.37    0.52
  -5 -10  -7    1.07    0.50
  -5 -10   7    0.50    0.49
   5  10   7    0.94    0.52
  -5  10  -7    0.59    0.46
   5 -10  -7    1.05    0.49
   5 -10  -7    0.47    0.43
   5  10   7   -0.02    0.43
  -6  10   7   13.75    1.33
   6 -10   7   13.38    1.35
  -6 -10  -7   13.54    1.36
   6  10  -7   14.75    1.47
  -6 -10   7   11.79    1.17
   6  10   7   13.49    1.42
   6 -10  -7   13.76    1.15
  -6  10  -7   15.01    1.38
   6  10   7   12.74    1.17
   6 -10  -7   13.68    1.27
  -7  10   7   20.69    1.49
   7  10  -7   21.28    1.52
   7 -10   7   18.86    1.54
  -7 -10  -7   19.71    1.46
   7  10   7   19.90    1.63
   7  10   7   21.83    1.47
   7 -10  -7   19.16    1.40
  -7 -10   7   21.03    1.44
   7 -10  -7   17.07    1.38
  -7  10  -7   22.13    1.54
   8 -10   7    0.81    0.63
  -8 -10  -7   -0.23    0.46
   8  10  -7   -0.51    0.41
  -8  10   7   -0.24    0.50
   8 -10  -7   -0.14    0.48
  -8 -10   7    0.59    0.59
  -8  10  -7   -0.20    0.47
   8  10   7    0.44    0.52
   8  10   7    0.23    0.57
  -9 -10  -7    2.19    0.79
   9  10  -7    3.25    0.82
   9 -10   7    2.57    0.87
  -9  10   7    3.03    0.88
   9 -10  -7    2.82    0.83
  -9  10  -7    2.64    0.81
   9  10   7    1.98    0.85
 -10  10   7   -0.01    0.71
 -10 -10  -7    0.02    0.63
  10 -10   7    0.20    0.73
 -10  10  -7    1.38    0.74
  10 -10  -7    0.39    0.65
  10  10   7    0.53    0.76
 -10 -10   7    1.47    0.63
   0 -11   7    0.16    0.37
   0  11   7   -0.16    0.36
   0  11  -7    0.83    0.44
   0 -11  -7    0.17    0.39
   0 -11  -7   -0.18    0.32
   0 -11   7    0.02    0.38
   1 -11   7   11.59    1.09
  -1 -11  -7   10.92    1.15
  -1 -11  -7   12.65    1.21
  -1  11   7   12.29    1.02
   1 -11   7   10.16    0.97
   1  11  -7   11.08    1.16
  -1 -11   7   11.22    1.07
   1  11   7   10.54    1.05
   1 -11  -7   11.46    1.06
  -1  11  -7   12.17    1.14
   1 -11  -7   11.53    1.01
  -1 -11   7   10.69    0.96
  -2 -11  -7   19.60    1.37
  -2 -11  -7   21.40    1.39
   2  11  -7   17.88    1.33
   2 -11   7   23.00    1.33
   2 -11   7   19.58    1.24
  -2  11   7   21.49    1.29
   2  11   7   20.63    1.32
   2 -11  -7   20.39    1.26
  -2 -11   7   18.74    1.28
  -2 -11   7   20.21    1.17
  -2  11  -7   19.24    1.30
   2 -11  -7   21.39    1.33
   3  11  -7    3.06    0.71
  -3 -11  -7    3.40    0.70
  -3  11   7    3.11    0.61
   3 -11   7    3.81    0.70
  -3  11   7    3.46    0.65
  -3 -11  -7    2.82    0.70
   3 -11   7    4.11    0.69
  -3  11  -7    3.19    0.70
  -3 -11   7    3.56    0.59
   3 -11  -7    4.09    0.69
  -3 -11   7    3.53    0.72
   3  11   7    2.82    0.66
   3 -11  -7    3.49    0.69
  -4 -11  -7   21.63    1.52
   4 -11   7   23.74    1.31
   4  11  -7   22.02    1.51
  -4  11   7   23.35    1.42
   4 -11   7   19.95    1.41
  -4  11   7   21.52    1.27
  -4 -11  -7   23.56    1.44
  -4  11  -7   21.76    1.44
   4  11   7   23.01    1.48
  -4 -11   7   24.28    1.46
   4 -11  -7   23.84    1.43
   4 -11  -7   23.69    1.37
   5 -11   7    1.97    0.67
  -5 -11  -7    2.61    0.69
   5  11  -7    1.52    0.59
  -5  11   7    4.07    0.78
  -5  11   7    2.10    0.54
   5  11   7    1.88    0.62
   5 -11  -7    1.54    0.57
  -5 -11   7    3.16    0.69
   5 -11  -7    1.82    0.57
  -5  11  -7    2.26    0.67
  -6  11   7    2.06    0.65
   6  11  -7    1.38    0.60
  -6 -11  -7    1.19    0.55
   6 -11   7    2.33    0.73
   6 -11  -7    0.90    0.53
  -6  11  -7    1.78    0.68
   6 -11  -7    1.30    0.56
   6  11   7    1.50    0.72
   6  11   7    2.38    0.70
  -6 -11   7    2.02    0.64
   7  11  -7    9.18    1.20
  -7  11   7    9.08    1.20
   7 -11   7    7.59    1.13
  -7 -11  -7   13.05    1.40
  -7  11  -7    9.67    1.21
   7  11   7    9.51    1.13
   7 -11  -7    9.83    1.14
  -7 -11   7   10.50    1.23
   7  11   7    8.71    1.25
   7 -11  -7   10.29    1.20
  -8  11   7   25.42    1.79
  -8 -11  -7   22.84    1.72
   8 -11   7   27.39    1.91
   8  11  -7   25.34    1.78
  -8 -11   7   27.74    1.72
  -8  11  -7   26.13    1.81
   8  11   7   29.13    2.03
   8  11   7   27.03    1.68
   9  11  -7    0.25    0.58
  -9  11   7    0.46    0.69
   9 -11   7    0.44    0.71
  -9 -11  -7    0.67    0.70
  -9  11  -7    0.69    0.63
   9  11   7   -0.31    0.62
 -10 -11  -7   -0.94    0.52
  10 -11   7   -0.87    0.68
 -10  11   7   -0.10    0.70
 -10  11  -7   -0.98    0.57
  10  11   7   -1.11    0.68
   0 -12   7    0.40    0.47
   0  12  -7    0.11    0.40
   0 -12  -7   -0.43    0.33
   0 -12  -7    0.12    0.39
   0  12   7   -0.15    0.41
   0 -12   7    0.66    0.45
  -1  12   7   23.21    1.41
   1 -12   7   24.30    1.42
  -1 -12  -7   22.52    1.48
   1  12  -7   25.00    1.54
   1 -12   7   24.50    1.42
  -1 -12  -7   24.04    1.45
   1 -12  -7   22.43    1.47
   1 -12  -7   22.43    1.35
   1  12   7   23.65    1.50
  -1  12  -7   22.44    1.43
  -1 -12   7   23.57    1.33
  -1 -12   7   24.64    1.47
   2 -12   7    4.18    0.74
  -2 -12  -7    3.23    0.77
   2  12  -7    4.19    0.84
  -2 -12  -7    4.38    0.80
  -2  12   7    2.46    0.63
   2 -12   7    3.41    0.70
  -2  12  -7    2.92    0.67
  -2 -12   7    3.16    0.62
   2 -12  -7    2.06    0.62
   2  12   7    2.86    0.71
  -2 -12   7    2.34    0.67
  -3 -12  -7    1.64    0.59
  -3 -12  -7    1.43    0.62
   3  12  -7    0.74    0.57
  -3  12   7    1.30    0.52
   3 -12   7    0.31    0.47
   3 -12   7    0.85    0.54
  -3 -12   7    0.21    0.53
  -3  12  -7    0.86    0.54
   3 -12  -7    0.54    0.45
   3  12   7    0.07    0.45
  -3 -12   7    1.54    0.50
  -4 -12  -7   11.94    1.34
   4  12  -7   13.19    1.35
   4 -12   7   14.23    1.35
  -4  12   7   13.09    1.25
   4 -12   7   12.46    1.06
  -4 -12  -7   12.98    1.34
  -4  12   7   12.93    1.18
   4  12   7    9.92    1.14
  -4 -12   7   16.55    1.30
   4 -12  -7   12.92    1.25
  -4  12  -7   13.09    1.29
   5 -12   7    5.30    0.91
  -5 -12  -7    2.47    0.76
   5  12  -7    3.39    0.78
  -5  12   7    3.02    0.76
  -5 -12  -7    3.61    0.77
  -5 -12   7    4.88    0.87
   5 -12  -7    3.53    0.78
   5  12   7    3.66    0.77
  -5  12  -7    3.58    0.78
  -6 -12  -7    0.47    0.49
   6  12  -7    0.29    0.55
  -6  12   7   -0.15    0.50
   6 -12   7    0.81    0.67
  -6  12  -7    1.15    0.61
  -6 -12   7    0.04    0.53
   6  12   7    0.14    0.51
   6 -12  -7    0.61    0.52
   7 -12   7   36.20    2.16
  -7 -12  -7   32.20    1.93
   7  12  -7   34.73    2.04
  -7  12   7   37.09    2.10
  -7 -12   7   34.41    1.94
   7 -12  -7   35.07    1.98
  -7  12  -7   34.47    2.05
   7  12   7   39.84    2.35
   7  12   7   36.83    1.97
  -8  12   7    4.19    0.99
   8  12  -7    4.97    0.97
  -8 -12  -7    2.87    0.80
   8 -12   7    1.98    0.87
  -8 -12   7    5.24    0.99
  -8  12  -7    3.49    0.88
   8  12   7    3.00    0.80
   8  12   7    3.63    1.00
   9 -12   7    4.06    1.01
  -9  12   7    4.36    1.09
  -9 -12  -7    3.75    0.94
   9  12  -7    5.16    1.03
  -9  12  -7    4.41    1.03
   9  12   7    6.03    1.25
   0  13  -7    0.35    0.47
   0  13   7    0.50    0.50
   0 -13  -7   -0.12    0.44
   0 -13   7    0.01    0.44
   0 -13   7   -0.23    0.46
   1  13  -7    0.83    0.51
   1 -13   7    2.08    0.61
   1 -13   7    1.02    0.57
  -1 -13  -7    2.52    0.68
  -1  13   7    1.14    0.55
  -1 -13   7    2.16    0.59
  -1  13  -7    1.41    0.58
   1 -13  -7    2.25    0.64
  -1 -13   7    0.74    0.57
   1  13   7    0.64    0.52
   2 -13   7   24.46    1.52
   2 -13   7   22.44    1.51
   2  13  -7   22.11    1.57
  -2  13   7   28.33    1.58
  -2 -13  -7   23.80    1.61
   2  13   7   22.63    1.49
  -2 -13   7   18.64    1.25
   2 -13  -7   19.85    1.44
  -2  13  -7   20.46    1.40
  -2 -13   7   20.09    1.45
   3  13  -7   30.84    1.87
   3 -13   7   27.08    1.71
   3 -13   7   26.79    1.56
  -3  13   7   27.36    1.55
  -3 -13  -7   29.75    1.84
   3 -13  -7   30.29    1.71
  -3 -13   7   28.05    1.68
   3  13   7   28.40    1.73
  -3 -13   7   27.81    1.55
  -3  13  -7   25.19    1.64
   4 -13   7    2.90    0.81
   4  13  -7    2.76    0.70
   4 -13   7    2.78    0.71
  -4 -13  -7    2.87    0.80
  -4  13   7    3.94    0.74
  -4 -13   7    2.52    0.76
   4  13   7    4.61    0.86
   4 -13  -7    3.77    0.81
  -4  13  -7    5.74    0.97
   5  13  -7    1.56    0.65
  -5 -13  -7    1.78    0.68
  -5  13   7    0.81    0.61
   5 -13   7    1.54    0.67
   5 -13  -7    0.99    0.62
   5  13   7    1.18    0.62
  -5  13  -7    1.43    0.64
  -5 -13   7    0.73    0.58
   6 -13   7    3.27    0.93
  -6 -13  -7    4.68    0.98
  -6  13   7    2.93    0.82
   6  13  -7    4.03    0.93
  -6 -13   7    5.01    0.95
  -6  13  -7    2.30    0.73
   6  13   7    3.87    0.88
   6 -13  -7    3.68    0.87
  -7  13   7    1.10    0.75
   7 -13   7    1.27    0.79
   7  13  -7    1.84    0.76
  -7 -13  -7    1.32    0.76
  -7  13  -7    1.39    0.65
  -7 -13   7    0.72    0.66
   7 -13  -7    1.31    0.69
   7  13   7    0.68    0.61
   8 -13   7    6.52    1.24
  -8  13   7    7.79    1.25
   8  13  -7    7.39    1.20
   8  13   7    6.86    1.13
  -8  13  -7    8.32    1.25
  -8 -13   7    7.88    1.22
  -9  13   7    7.41    1.32
   9 -13   7    7.99    1.42
  -9  13  -7    8.84    1.35
  -9 -13   7    8.48    1.30
   9  13   7    8.95    1.55
   0  14   7    2.47    0.70
   0  14  -7    1.72    0.65
   0 -14   7    1.27    0.56
   0 -14  -7    2.29    0.71
   0 -14   7    3.45    0.83
  -1  14   7    2.23    0.69
  -1 -14  -7    4.15    0.86
   1  14  -7    3.90    0.81
   1 -14   7    3.95    0.78
   1 -14   7    2.74    0.73
   1 -14  -7    3.80    0.83
  -1 -14   7    4.35    0.76
   1  14   7    2.56    0.72
  -1  14  -7    3.63    0.80
  -1 -14   7    3.75    0.84
   2  14  -7    8.27    1.18
   2 -14   7    6.68    0.96
  -2  14   7    6.90    0.95
   2 -14   7    8.32    1.11
  -2 -14  -7    9.59    1.23
  -2 -14   7    9.16    1.17
  -2 -14   7    7.18    0.91
   2 -14  -7    9.03    1.20
   2  14   7    9.25    1.17
  -2  14  -7    7.39    1.00
  -3  14   7    1.09    0.59
   3  14  -7    1.40    0.65
  -3 -14  -7    2.10    0.78
   3 -14   7    1.45    0.71
   3 -14   7    1.78    0.67
  -3  14  -7    1.41    0.61
   3 -14  -7    1.01    0.56
  -3 -14   7    1.23    0.71
   3  14   7    1.70    0.69
   4  14  -7   20.26    1.59
  -4 -14  -7   16.54    1.67
   4 -14   7   16.99    1.57
  -4  14   7   15.95    1.29
   4 -14   7   18.79    1.44
  -4 -14   7   17.72    1.50
   4 -14  -7   18.11    1.50
  -4  14  -7   14.85    1.47
   4  14   7   19.54    1.53
   5  14  -7    0.25    0.57
  -5 -14  -7    1.11    0.69
   5 -14   7    0.66    0.62
  -5  14  -7    1.58    0.68
  -5 -14   7    0.57    0.65
   5  14   7    1.44    0.67
   5 -14  -7    1.12    0.70
   6 -14   7    3.34    0.96
  -6 -14  -7    4.07    0.96
  -6  14   7    2.11    0.84
   6  14  -7    3.82    0.90
   6 -14  -7    3.04    0.87
   6  14   7    2.40    0.80
  -6 -14   7    3.58    0.92
  -6  14  -7    3.38    0.92
  -7 -14  -7    3.62    1.03
  -7  14   7    2.51    0.95
   7  14  -7    2.74    0.86
   7 -14   7    3.09    0.94
   7  14   7    3.68    0.90
   7 -14  -7    3.35    0.93
  -7 -14   7    2.57    0.84
  -7  14  -7    1.99    0.80
  -8  14   7    6.48    1.26
   8 -14   7    7.52    1.35
  -8 -14  -7    9.06    1.44
  -8 -14   7    9.47    1.37
  -8  14  -7    7.63    1.27
   8  14   7    9.37    1.35
   0  15  -7    0.31    0.48
   0  15   7    0.00    0.48
   0 -15   7    0.34    0.54
   0 -15   7    0.48    0.62
   0 -15  -7    0.72    0.58
   1  15  -7   -0.21    0.45
  -1  15   7   -0.45    0.42
   1 -15   7    0.71    0.66
  -1 -15  -7    0.22    0.59
   1 -15   7   -0.11    0.51
  -1 -15   7    0.51    0.55
  -1 -15   7    0.46    0.68
   1  15   7   -0.35    0.49
   1 -15  -7   -0.11    0.51
  -1  15  -7    0.22    0.46
   2 -15   7    0.13    0.59
   2 -15   7    0.37    0.61
  -2  15   7   -0.26    0.51
  -2 -15  -7   -0.13    0.47
   2  15  -7    0.03    0.53
  -2 -15   7    0.58    0.49
  -2 -15   7   -0.72    0.55
   2  15   7    0.09    0.52
  -2  15  -7    0.07    0.47
   2 -15  -7   -0.62    0.47
  -3 -15  -7   30.32    1.99
   3 -15   7   29.21    1.88
   3  15  -7   29.15    1.99
  -3  15   7   26.29    1.66
   3 -15   7   27.01    1.75
   3  15   7   28.86    1.86
  -3  15  -7   30.90    1.89
  -3 -15   7   33.06    1.94
   3 -15  -7   27.65    1.87
  -4  15   7    0.59    0.48
  -4 -15  -7    1.83    0.78
   4 -15   7    0.42    0.69
   4  15  -7    1.43    0.72
   4 -15  -7    0.93    0.65
   4  15   7    1.50    0.67
  -4 -15   7    0.50    0.70
  -4  15  -7    0.40    0.57
   5  15  -7    0.02    0.59
  -5 -15  -7   -0.06    0.63
   5 -15   7    0.90    0.72
  -5 -15   7    1.69    0.81
   5  15   7    0.10    0.64
  -5  15  -7    0.90    0.65
   5 -15  -7    1.19    0.73
  -6 -15  -7    2.92    0.97
   6  15  -7    1.99    0.75
   6 -15   7    2.83    0.96
  -6 -15   7    4.95    1.06
  -6  15  -7    4.08    0.98
   6  15   7    5.03    1.09
   6 -15  -7    3.94    0.99
  -7  15   7    1.34    0.82
   7 -15   7    0.87    0.81
  -7 -15  -7   -0.10    0.66
  -7 -15   7    1.26    0.79
  -7  15  -7    0.62    0.72
   7 -15  -7   -0.18    0.71
   7  15   7    0.32    0.68
   0 -16   7   -0.63    0.47
   0 -16  -7   -0.22    0.51
   0 -16   7    0.51    0.70
   0  16  -7    0.11    0.50
   0  16   7    0.00    0.52
  -1  16   7    0.88    0.61
  -1 -16  -7    1.89    0.73
   1 -16   7    0.39    0.61
   1 -16   7    1.65    0.77
   1  16  -7    2.63    0.79
   1 -16  -7    1.30    0.74
   1  16   7    0.82    0.64
  -1 -16   7    2.27    0.71
  -1 -16   7    1.64    0.79
  -1  16  -7    2.22    0.75
  -2  16   7   12.18    1.33
   2 -16   7   11.54    1.34
   2 -16   7   14.01    1.41
  -2 -16  -7   11.91    1.51
   2  16  -7   13.00    1.57
   2  16   7    8.51    1.19
  -2  16  -7    8.43    1.20
  -2 -16   7   13.30    1.34
   2 -16  -7   10.64    1.37
  -2 -16   7   13.92    1.47
  -3  16   7    0.76    0.57
  -3 -16  -7   -0.21    0.59
   3  16  -7    1.03    0.71
   3 -16   7   -0.30    0.59
   3 -16   7    0.38    0.67
   3  16   7    0.68    0.60
   3 -16  -7   -0.15    0.52
  -3 -16   7    0.73    0.72
  -3  16  -7    1.21    0.62
   4 -16   7    5.73    1.06
   4  16  -7    6.84    1.21
  -4 -16  -7    4.09    1.04
   4  16   7    4.45    0.97
  -4  16  -7    5.30    1.05
  -4 -16   7    7.12    1.18
   4 -16  -7    6.73    1.13
  -5 -16  -7    2.80    0.95
   5  16  -7    2.53    0.89
   5 -16   7    2.55    0.89
   5  16   7    2.89    0.89
   5 -16  -7    2.33    0.88
  -5  16  -7    2.53    0.84
  -5 -16   7    2.20    0.91
  -6 -16  -7    1.57    0.83
   6 -16   7    2.04    0.90
   6 -16  -7    0.55    0.81
  -6 -16   7    0.49    0.79
  -6  16  -7    1.10    0.74
   6  16   7    0.11    0.66
   0  17  -7    8.22    1.30
   0  17   7   10.56    1.35
   0 -17   7    6.40    1.08
   0 -17  -7   10.39    1.41
   0 -17   7    8.56    1.30
   1 -17   7    2.58    0.87
   1  17  -7    4.74    1.06
   1 -17   7    4.01    0.99
  -1 -17  -7    3.71    0.98
  -1  17   7    2.47    0.81
  -1  17  -7    2.47    0.75
   1  17   7    2.98    0.84
  -1 -17   7    4.92    0.98
  -1 -17   7    3.34    0.94
   1 -17  -7    4.72    0.99
  -2  17   7    5.09    0.96
   2  17  -7    5.13    1.10
  -2 -17  -7    4.00    1.07
   2 -17   7    6.73    1.15
   2 -17   7    5.79    1.06
   2 -17  -7    5.58    1.10
   2  17   7    6.30    1.20
  -2 -17   7    6.59    1.22
  -2  17  -7    4.62    1.01
   3 -17   7    8.22    1.24
  -3 -17  -7    4.98    1.11
   3  17  -7    7.08    1.27
   3 -17   7    6.02    1.14
  -3  17   7    4.24    0.94
  -3  17  -7    4.68    0.98
  -3 -17   7    6.13    1.23
   3  17   7    4.66    1.06
   3 -17  -7    7.14    1.21
  -4 -17  -7    9.55    1.50
   4  17  -7   10.03    1.47
   4 -17   7    6.84    1.19
  -4  17  -7    6.13    1.15
   4  17   7   10.10    1.42
  -4 -17   7   10.04    1.44
   4 -17  -7    8.84    1.34
   0 -18  -7    4.51    1.09
   0  18  -7    2.06    0.83
   0 -18   7    1.29    0.86
   0 -18   7    2.72    0.89
   0  18   7    4.18    1.02
   1  18  -7    2.59    0.89
  -1  18   7    2.00    0.80
   1 -18   7    4.57    1.02
  -1 -18  -7    2.76    0.95
   1 -18   7    2.17    0.82
   1 -18  -7    2.00    0.93
  -1 -18   7    1.82    0.80
   1  18   7    1.62    0.79
  -1 -18   7    3.38    1.05
  -1  18  -7    2.66    0.89
  -2  18   7    3.46    0.94
   2  18  -7    2.24    0.89
   2 -18   7    5.02    1.06
   2 -18   7    5.56    1.08
  -2 -18  -7    4.62    1.14
   2 -18  -7    5.46    1.18
   2  18   7    3.31    1.00
  -2  18  -7    1.83    0.80
  -2 -18   7    4.52    1.11
   0   0   8    1.45    0.24
   0   0  -8    1.44    0.32
   0   0   8    1.45    0.40
   0   0  -8    0.74    0.32
   1   0  -8   25.48    1.21
   1   0  -8   22.68    1.04
  -1   0   8   24.21    1.15
  -1   0   8   23.31    0.67
   1   0   8   24.74    0.94
  -1   0  -8   22.92    0.96
   1   0   8   23.33    1.12
  -2   0  -8    0.26    0.20
   2   0  -8    0.92    0.31
   2   0  -8    0.26    0.26
  -2   0  -8    1.21    0.38
   2   0   8    0.19    0.23
   2   0   8    0.43    0.29
  -2   0   8    0.40    0.33
  -3   0  -8  158.08    3.76
   3   0  -8  158.26    4.12
   3   0   8  163.37    4.14
   3   0   8  157.38    4.18
   3   0  -8  159.65    4.33
  -3   0  -8  162.86    4.34
  -3   0   8  163.01    4.18
  -4   0   8    0.20    0.30
   4   0   8    0.18    0.31
  -4   0  -8    0.81    0.25
  -4   0  -8    0.49    0.35
   4   0  -8    0.57    0.32
   4   0   8    0.15    0.29
   4   0  -8    0.85    0.36
   5   0   8    0.71    0.40
   5   0   8   -0.05    0.27
  -5   0  -8    0.27    0.34
   5   0  -8    0.26    0.34
  -5   0   8   -0.03    0.25
  -5   0   8    0.31    0.33
  -5   0  -8    0.26    0.23
   6   0  -8    8.21    0.92
   6   0   8    9.84    0.75
  -6   0   8    8.80    0.92
   6   0   8    8.17    0.93
  -6   0  -8    9.56    0.68
  -6   0   8    9.69    0.79
  -6   0  -8    8.97    0.98
   7   0   8    0.60    0.48
  -7   0  -8    0.24    0.40
  -7   0   8    0.92    0.45
   7   0  -8    2.10    0.57
  -7   0   8    1.59    0.46
  -8   0  -8    0.60    0.52
   8   0  -8    0.97    0.57
   8   0   8   -0.32    0.44
  -8   0   8    1.35    0.54
  -9   0  -8   96.78    3.63
  -9   0   8   98.67    3.40
   9   0   8  104.61    3.78
   9   0  -8  100.07    3.66
 -10   0   8    0.68    0.52
 -10   0  -8    0.03    0.53
  10   0   8   -0.39    0.53
  10   0  -8    0.20    0.57
  11   0   8   -0.20    0.58
 -11   0  -8    0.71    0.61
 -11   0   8    0.32    0.55
  11   0  -8   -0.95    0.50
 -12   0  -8    2.13    0.88
  12   0  -8    2.37    0.92
  12   0   8    0.99    0.79
 -12   0   8    2.20    0.80
   0   1  -8    8.09    0.62
   0   1   8    8.04    0.46
   0  -1   8    8.49    0.72
   0  -1   8    8.73    0.45
   0   1   8    9.28    0.71
   0  -1  -8    9.25    0.75
   0  -1  -8    8.69    0.58
   0   1  -8    8.16    0.68
   1  -1   8   52.95    1.55
  -1  -1  -8   51.01    1.53
  -1  -1  -8   48.72    1.91
  -1   1   8   50.30    1.78
   1   1  -8   47.40    1.78
   1  -1   8   53.74    1.81
   1   1  -8   50.80    1.72
  -1  -1   8   51.67    1.79
   1   1   8   50.75    1.78
   1  -1  -8   49.73    1.32
   1  -1  -8   47.45    1.60
  -1   1  -8   52.14    1.88
  -1   1  -8   51.37    1.62
   1  -1  -8   48.77    1.85
   1   1   8   51.74    1.59
   2  -1   8  256.86    6.22
   2  -1   8  263.50    6.28
   2   1  -8  261.11    6.18
  -2  -1  -8  265.81    5.80
   2   1  -8  253.81    6.40
  -2  -1  -8  271.00    6.58
  -2   1   8  269.16    6.31
   2   1   8  260.22    6.18
  -2   1  -8  250.23    5.82
   2   1   8  262.96    6.22
  -2   1  -8  269.13    6.43
   2  -1  -8  257.02    5.99
  -2  -1   8  262.52    6.21
   2  -1  -8  249.42    6.38
  -3  -1  -8    1.36    0.26
  -3  -1  -8    1.35    0.42
   3   1  -8    1.02    0.34
   3   1  -8    0.46    0.30
   3  -1   8    1.32    0.39
  -3   1   8    1.70    0.40
   3  -1   8    0.61    0.31
  -3   1  -8    0.74    0.34
  -3  -1   8    1.95    0.44
   3  -1  -8    1.05    0.34
   3  -1  -8    1.45    0.43
  -3   1  -8    1.31    0.29
   3   1   8    0.83    0.33
   3   1   8    1.02    0.37
   4  -1   8   51.78    1.76
  -4   1   8   47.57    1.78
   4  -1   8   52.08    1.88
  -4  -1  -8   49.97    1.95
   4   1  -8   47.83    1.85
  -4   1   8   51.21    1.79
  -4  -1  -8   47.32    1.43
   4   1  -8   50.54    1.92
   4   1   8   46.85    1.79
  -4  -1   8   45.14    1.68
   4  -1  -8   45.41    1.84
  -4   1  -8   45.98    1.82
   4   1   8   43.53    1.63
  -4   1  -8   45.59    1.50
  -5  -1  -8   15.66    0.74
   5   1  -8   13.89    1.02
   5  -1   8   14.99    0.89
   5   1  -8   14.26    0.99
  -5   1   8   16.89    0.98
  -5  -1  -8   15.34    1.08
  -5   1   8   14.36    0.96
   5  -1   8   16.93    1.11
  -5   1  -8   15.21    0.82
   5  -1  -8   13.44    1.02
  -5   1  -8   14.17    1.02
   5   1   8   15.86    1.08
   5   1   8   15.25    0.91
  -5  -1   8   14.31    0.92
  -6   1   8    3.60    0.63
  -6   1   8    4.08    0.61
   6   1  -8    4.18    0.74
   6  -1   8    3.98    0.70
  -6  -1  -8    4.67    0.75
   6  -1   8    3.98    0.55
  -6  -1   8    2.22    0.50
  -6   1  -8    3.21    0.50
  -6  -1   8    4.01    0.59
   6  -1  -8    2.95    0.62
   6   1   8    3.47    0.66
  -6   1  -8    3.26    0.63
   6   1   8    3.14    0.50
  -7   1   8   10.46    1.02
   7   1  -8   12.50    1.22
  -7  -1  -8   10.09    1.10
   7  -1   8    9.83    1.11
  -7  -1   8    8.08    0.95
  -7  -1   8    7.57    0.79
   7  -1  -8    6.79    0.94
   7   1   8    8.92    1.05
  -7   1  -8    4.70    0.78
  -7   1  -8    8.61    0.81
  -8   1   8   34.25    1.74
   8   1  -8   33.92    1.85
  -8  -1  -8   32.86    1.85
   8  -1   8   29.24    1.81
  -8  -1   8   32.82    1.68
  -8   1  -8   30.91    1.78
   8  -1  -8   28.81    1.76
   8   1   8   34.70    1.89
   9  -1   8    1.31    0.70
  -9   1   8    1.81    0.61
  -9  -1  -8    2.38    0.74
   9   1  -8    2.94    0.77
  -9   1  -8    3.20    0.81
  -9  -1   8    2.48    0.69
   9  -1  -8    3.03    0.79
   9   1   8    4.48    0.94
  10   1  -8   53.77    2.61
 -10  -1  -8   48.73    2.55
  10  -1   8   49.35    2.62
 -10   1   8   53.51    2.41
 -10   1  -8   56.69    2.66
 -10  -1   8   55.46    2.46
  10   1   8   53.29    2.73
  10  -1  -8   50.50    2.59
 -11   1   8    7.27    1.08
  11  -1   8    4.78    1.00
 -11  -1  -8    5.48    1.12
  11   1  -8    6.48    1.21
 -11   1  -8    7.86    1.27
 -11  -1   8    7.46    1.15
  11  -1  -8    7.42    1.22
  11   1   8    5.46    1.15
  12  -1   8    0.27    0.70
 -12   1   8   -0.18    0.53
 -12  -1  -8    0.34    0.71
  12   1  -8    0.49    0.65
  12   1   8    1.21    0.84
 -12  -1   8    1.05    0.71
  12  -1  -8    0.59    0.68
 -12   1  -8    0.59    0.72
   0  -2  -8    2.54    0.49
   0  -2   8    2.62    0.44
   0   2  -8    2.58    0.44
   0   2   8    1.84    0.29
   0  -2   8    2.83    0.29
   0   2  -8    1.86    0.40
   0  -2  -8    2.83    0.36
   0   2   8    3.33    0.53
   1   2  -8   16.60    0.91
  -1  -2  -8   15.27    1.02
   1  -2   8   15.18    0.71
  -1   2   8   13.74    0.89
   1   2  -8   14.12    0.86
   1  -2   8   16.04    0.93
  -1  -2  -8   14.47    0.67
   1  -2  -8   17.52    1.05
  -1  -2   8   17.26    0.55
   1  -2  -8   16.97    0.82
   1  -2  -8   17.10    0.68
  -1  -2   8   17.26    0.95
   1   2   8   15.94    0.95
  -1   2  -8   19.02    1.02
   1   2   8   18.12    0.83
  -1   2  -8   18.58    0.89
  -2   2   8   71.93    2.27
  -2  -2  -8   63.79    2.34
  -2  -2  -8   71.68    1.85
   2   2  -8   69.98    2.26
   2   2  -8   74.73    2.31
   2  -2   8   72.60    2.26
   2  -2   8   71.85    2.11
   2  -2  -8   68.95    2.39
   2  -2  -8   75.29    1.83
  -2   2  -8   74.72    2.37
  -2   2  -8   70.20    2.10
   2   2   8   76.12    2.25
   2   2   8   74.19    2.31
  -2  -2   8   73.61    2.29
   3  -2   8   79.34    2.38
   3   2  -8   78.71    2.46
  -3  -2  -8   77.77    1.94
  -3  -2  -8   73.22    2.54
  -3   2   8   75.68    2.29
  -3   2   8   78.79    2.40
   3  -2   8   76.96    2.36
   3   2  -8   76.75    2.46
  -3   2  -8   66.36    2.22
   3   2   8   64.24    2.11
  -3  -2   8   64.42    2.12
   3  -2  -8   63.24    1.64
   3  -2  -8   69.65    2.32
   3   2   8   68.61    2.19
  -3   2  -8   66.88    1.97
  -4   2   8   74.28    2.34
   4   2  -8   73.44    2.48
  -4  -2  -8   76.42    1.90
   4  -2   8   78.32    2.33
  -4   2   8   77.20    2.37
   4   2  -8   74.59    2.48
  -4  -2  -8   73.15    2.57
   4  -2   8   75.45    2.43
   4   2   8   73.63    2.33
  -4   2  -8   71.94    2.20
  -4  -2   8   76.00    2.38
   4  -2  -8   81.26    2.63
  -4   2  -8   76.73    2.50
   4   2   8   79.74    2.57
   5  -2   8   30.35    1.46
   5   2  -8   30.20    1.47
  -5   2   8   27.75    1.36
   5   2  -8   29.05    1.47
  -5   2   8   30.91    1.34
   5  -2   8   31.53    1.30
  -5  -2  -8   28.95    1.51
   5   2   8   28.73    1.47
  -5  -2   8   28.38    1.31
  -5   2  -8   28.62    1.22
   5   2   8   30.60    1.29
   5  -2  -8   28.97    1.48
  -5   2  -8   27.49    1.40
  -6   2   8    0.43    0.34
   6   2  -8    0.33    0.40
   6  -2   8    0.20    0.33
  -6  -2  -8    0.05    0.36
  -6   2   8    0.78    0.42
   6  -2   8   -0.36    0.29
  -6   2  -8    0.30    0.35
  -6   2  -8    0.04    0.29
  -6  -2   8    0.42    0.34
   6   2   8    0.22    0.33
   6  -2  -8   -0.29    0.31
   6   2   8   -0.17    0.36
  -7  -2  -8    0.21    0.42
   7   2  -8    1.36    0.55
   7  -2   8    0.33    0.47
  -7   2   8    0.59    0.42
   7   2   8    1.85    0.60
  -7  -2   8    2.08    0.57
  -7   2  -8    1.69    0.46
   7  -2  -8    0.70    0.51
  -7   2  -8    0.35    0.40
  -7  -2   8    1.98    0.48
  -8  -2  -8   10.37    1.20
   8  -2   8   11.44    1.26
   8   2  -8   11.01    1.18
  -8   2   8   10.24    1.09
   8  -2  -8    9.31    1.11
  -8   2  -8   10.25    1.17
  -8   2  -8    9.84    0.95
   8   2   8   10.66    1.25
  -8  -2   8   11.10    1.18
  -9   2   8   46.03    2.15
  -9  -2  -8   48.30    2.40
   9   2  -8   46.47    2.30
   9  -2   8   43.27    2.32
  -9   2  -8   42.80    2.20
  -9  -2   8   42.41    2.05
   9   2   8   43.82    2.34
   9  -2  -8   44.65    2.29
 -10   2   8   10.18    1.21
  10   2  -8    9.23    1.27
  10  -2   8    7.58    1.20
 -10  -2  -8   11.59    1.51
  10   2   8    9.88    1.29
 -10   2  -8    5.64    0.98
  10  -2  -8   11.75    1.41
 -10  -2   8   11.54    1.32
 -11  -2  -8    1.58    0.81
  11   2  -8    1.61    0.74
  11  -2   8    1.41    0.79
 -11   2   8    1.51    0.62
  11   2   8    1.89    0.85
 -11   2  -8    2.28    0.81
  11  -2  -8    2.03    0.85
 -11  -2   8    1.80    0.66
 -12  -2  -8    7.54    1.36
  12  -2   8    3.73    1.03
  12   2  -8    5.96    1.22
 -12   2   8    5.28    1.08
 -12  -2   8    4.38    0.93
  12   2   8    7.45    1.41
 -12   2  -8    5.60    1.18
  12  -2  -8    5.30    1.15
   0   3  -8   32.87    1.34
   0  -3  -8   35.94    1.55
   0  -3   8   35.86    1.09
   0   3   8   34.02    1.19
   0  -3  -8   35.20    1.14
   0   3  -8   33.77    1.36
   0   3   8   33.22    1.40
   0  -3   8   33.97    1.38
   1  -3   8   48.25    1.48
  -1   3   8   46.02    1.72
   1  -3   8   48.09    1.70
  -1  -3  -8   48.26    1.34
  -1  -3  -8   44.55    1.87
   1   3  -8   50.49    1.72
  -1   3   8   47.92    1.49
   1   3  -8   45.89    1.71
   1  -3  -8   47.14    1.86
   1   3   8   46.89    1.73
  -1   3  -8   50.08    1.76
   1  -3  -8   47.52    1.44
  -1   3  -8   51.43    1.68
  -1  -3   8   45.79    1.69
   1   3   8   46.97    1.59
  -1  -3   8   50.02    1.28
   2   3  -8   63.88    2.02
   2  -3   8   57.50    1.96
  -2   3   8   58.74    1.82
   2   3  -8   62.72    2.10
  -2  -3  -8   59.81    1.54
  -2   3   8   60.64    2.04
   2  -3   8   58.72    1.87
  -2  -3  -8   63.55    2.24
   2  -3  -8   56.96    2.15
  -2  -3   8   61.84    2.04
   2  -3  -8   59.63    1.68
  -2   3  -8   65.17    1.97
   2   3   8   65.79    2.10
   2   3   8   63.32    2.03
  -2   3  -8   63.87    2.10
  -3   3   8   29.61    1.23
   3  -3   8   30.96    1.32
   3   3  -8   30.19    1.42
  -3   3   8   27.49    1.27
   3   3  -8   31.77    1.36
  -3  -3  -8   31.43    0.90
   3  -3   8   31.87    1.31
  -3  -3  -8   31.60    1.48
  -3  -3   8   30.30    1.34
   3  -3  -8   32.22    1.48
   3  -3  -8   30.86    1.00
  -3   3  -8   32.44    1.39
   3   3   8   31.00    1.34
   3   3   8   30.71    1.37
  -3   3  -8   33.27    1.29
   4  -3   8   42.13    1.60
   4  -3   8   43.40    1.69
   4   3  -8   38.24    1.71
  -4   3   8   44.89    1.65
  -4  -3  -8   44.20    1.83
   4   3  -8   43.20    1.71
  -4   3   8   42.67    1.62
   4   3   8   39.33    1.54
  -4   3  -8   40.22    1.62
   4  -3  -8   39.40    1.71
  -4  -3   8   38.50    1.55
  -4   3  -8   39.69    1.48
   4   3   8   39.59    1.68
   5  -3   8   70.96    2.43
  -5  -3  -8   69.15    2.55
   5   3  -8   64.58    2.38
  -5   3   8   71.10    2.26
   5  -3   8   70.64    2.20
   5   3  -8   70.39    2.49
  -5   3   8   73.79    2.38
   5   3   8   68.45    2.18
  -5   3  -8   63.12    2.30
   5  -3  -8   71.15    2.50
  -5  -3   8   63.91    2.16
  -5   3  -8   66.34    2.14
   5   3   8   63.43    2.41
   6   3  -8   34.11    1.68
   6   3  -8   32.67    1.62
  -6   3   8   32.76    1.54
   6  -3   8   35.51    1.71
   6  -3   8   33.76    1.49
  -6  -3  -8   28.37    1.62
  -6   3   8   31.87    1.38
  -6  -3   8   34.95    1.47
   6   3   8   31.71    1.68
   6   3   8   32.10    1.39
  -6   3  -8   33.51    1.63
  -6   3  -8   34.59    1.47
   6  -3  -8   33.16    1.69
  -7   3   8    8.20    0.93
   7  -3   8    8.40    1.02
  -7  -3  -8    9.87    1.16
   7   3  -8   10.34    1.13
  -7   3  -8    8.15    0.87
  -7  -3   8    7.99    0.80
  -7  -3   8    7.02    0.92
   7  -3  -8    7.11    0.96
   7   3   8    7.61    0.75
   7   3   8    5.81    0.86
  -7   3  -8    6.01    0.86
  -8  -3  -8   17.95    1.40
   8  -3   8   16.91    1.39
  -8   3   8   16.86    1.23
   8   3  -8   17.88    1.35
  -8   3  -8   15.24    1.11
   8  -3  -8   15.77    1.34
   8   3   8   17.66    1.44
  -8   3  -8   19.47    1.37
  -8  -3   8   14.63    1.19
   9  -3   8    3.61    0.90
  -9  -3  -8    5.35    0.96
   9   3  -8    5.73    0.94
  -9   3   8    3.47    0.77
   9   3   8    4.17    0.91
   9  -3  -8    3.18    0.78
  -9  -3   8    3.88    0.80
  -9   3  -8    5.38    0.95
  -9   3  -8    6.25    0.87
  10   3  -8   14.88    1.54
  10  -3   8   17.04    1.69
 -10  -3  -8   15.63    1.66
 -10   3   8   17.47    1.42
  10  -3  -8   18.70    1.60
 -10   3  -8   14.96    1.54
 -10  -3   8   19.44    1.45
  10   3   8   15.97    1.67
  11   3  -8    6.46    1.19
  11  -3   8    3.64    1.01
 -11   3   8    6.69    1.13
 -11  -3  -8    6.41    1.20
 -11  -3   8    7.59    1.15
 -11   3  -8    6.99    1.19
  11   3   8    7.05    1.24
  11  -3  -8    6.54    1.18
 -12   3   8    2.24    0.85
  12  -3   8    1.75    0.94
 -12  -3  -8    2.27    0.89
  12   3  -8    3.54    0.99
 -12  -3   8    2.75    0.81
 -12   3  -8    3.94    0.99
  12   3   8    1.38    0.88
  12  -3  -8    1.68    0.84
   0  -4   8  100.59    2.52
   0  -4   8   98.96    2.84
   0   4  -8   97.76    2.79
   0  -4  -8   94.83    3.04
   0   4  -8   95.36    2.81
   0   4   8   96.68    2.87
   0  -4  -8  104.00    2.75
   0   4   8   99.43    2.42
   1  -4   8   43.41    1.63
  -1   4   8   44.97    1.41
   1  -4   8   47.76    1.48
  -1   4   8   47.75    1.71
   1   4  -8   43.40    1.70
  -1  -4  -8   42.57    1.83
   1   4  -8   46.42    1.60
   1  -4  -8   38.49    1.69
   1  -4  -8   41.05    1.37
   1   4   8   39.84    1.58
   1   4   8   43.35    1.16
   1   4   8   44.15    1.53
  -1   4  -8   40.77    1.54
  -1  -4   8   41.22    1.20
  -1   4  -8   42.53    1.55
  -1  -4   8   39.16    1.56
  -2   4   8   68.78    2.23
   2  -4   8   72.29    2.13
   2   4  -8   69.49    2.19
  -2   4   8   71.98    2.05
  -2  -4  -8   65.14    2.40
   2  -4   8   73.61    2.23
   2   4  -8   68.47    2.32
  -2   4  -8   69.99    2.16
  -2  -4   8   70.08    1.73
   2   4   8   66.13    2.21
  -2   4  -8   70.46    2.24
   2  -4  -8   69.05    1.94
  -2  -4   8   69.11    2.24
   2  -4  -8   72.88    2.44
   2   4   8   67.92    2.23
   3   4  -8    3.32    0.51
   3  -4   8    2.08    0.43
  -3   4   8    3.27    0.48
  -3  -4  -8    2.41    0.52
  -3   4   8    3.15    0.53
   3   4  -8    2.40    0.48
   3  -4   8    2.38    0.44
   3   4   8    2.79    0.49
   3  -4  -8    2.64    0.55
  -3   4  -8    2.99    0.49
   3   4   8    3.56    0.55
  -3   4  -8    2.91    0.49
  -3  -4   8    3.80    0.56
   3  -4  -8    4.13    0.41
   4   4  -8   21.72    1.13
   4   4  -8   19.50    1.19
  -4   4   8   21.74    1.10
  -4   4   8   19.81    1.06
  -4  -4  -8   24.00    1.31
   4  -4   8   20.69    1.07
   4  -4   8   18.87    1.10
   4   4   8   18.14    1.04
  -4   4  -8   17.96    1.02
  -4  -4   8   18.23    1.06
   4  -4  -8   17.63    0.79
   4   4   8   18.91    1.13
  -4   4  -8   19.28    1.03
   4  -4  -8   17.04    1.12
  -5   4   8   95.39    2.77
  -5   4   8   93.91    2.85
   5  -4   8   95.99    3.02
  -5  -4  -8   90.61    3.11
   5  -4   8   94.36    2.74
   5   4  -8   90.79    2.95
   5   4  -8   91.54    3.02
   5   4   8   96.61    3.18
  -5  -4   8   92.33    2.87
   5  -4  -8   94.15    3.15
  -5   4  -8  100.47    2.90
  -5   4  -8  100.90    3.04
   5   4   8   96.59    2.86
  -6   4   8    2.30    0.56
  -6   4   8    2.30    0.50
   6  -4   8    3.91    0.71
   6   4  -8    3.16    0.67
   6   4  -8    1.94    0.53
  -6  -4  -8    3.22    0.69
  -6   4  -8    1.98    0.54
   6   4   8    2.32    0.62
   6  -4  -8    1.87    0.56
  -6   4  -8    1.79    0.48
  -6  -4   8    2.17    0.51
   6   4   8    1.76    0.46
  -7   4   8    4.18    0.71
  -7  -4  -8    4.62    0.86
   7  -4   8    5.68    0.86
   7   4  -8    5.83    0.85
   7   4  -8    4.11    0.77
  -7  -4   8    4.22    0.66
   7   4   8    3.52    0.72
  -7   4  -8    3.74    0.70
   7  -4  -8    3.65    0.75
  -7   4  -8    4.23    0.69
   7   4   8    4.91    0.65
  -8   4   8   10.64    1.13
   8  -4   8   10.05    1.19
  -8  -4  -8   11.81    1.33
   8   4  -8    9.95    1.14
  -8   4  -8    9.32    1.00
   8   4   8    7.93    1.10
   8  -4  -8    8.11    1.06
  -8  -4   8    6.87    0.96
  -8   4  -8   10.35    1.15
  -9   4   8    1.54    0.61
  -9  -4  -8    2.12    0.71
   9   4  -8    1.63    0.66
   9  -4   8    2.37    0.75
   9   4   8    1.52    0.68
  -9   4  -8    1.39    0.55
   9  -4  -8    0.86    0.59
  -9  -4   8    1.52    0.58
  -9   4  -8    1.69    0.67
 -10   4   8    4.36    0.94
  10   4  -8    4.47    0.96
 -10  -4  -8    5.26    1.05
  10  -4   8    4.02    1.02
  10   4   8    4.33    1.02
  10  -4  -8    3.62    0.90
 -10  -4   8    3.18    0.77
 -10   4  -8    4.45    0.91
  11  -4   8    7.33    1.29
 -11  -4  -8    8.30    1.32
 -11   4   8    5.80    1.06
  11   4  -8    8.71    1.35
 -11   4  -8    6.07    1.14
  11   4   8    6.40    1.31
  11  -4  -8    6.16    1.18
 -11  -4   8    6.95    1.07
 -12  -4  -8    0.60    0.69
  12   4  -8   -0.21    0.60
  12  -4   8   -0.17    0.79
 -12   4   8    0.09    0.59
  12   4   8    1.42    0.86
 -12  -4   8   -0.29    0.52
  12  -4  -8    0.56    0.70
 -12   4  -8   -0.30    0.64
   0  -5   8  111.24    3.16
   0  -5  -8  113.66    3.11
   0   5   8  112.87    3.20
   0   5  -8  110.93    3.19
   0   5  -8  113.71    3.06
   0   5   8  116.94    2.72
   0  -5  -8  108.87    3.39
   0  -5   8  114.56    2.90
   1  -5   8   79.14    2.39
   1   5  -8   72.87    2.45
  -1   5   8   76.08    2.07
   1  -5   8   75.26    2.18
   1   5  -8   77.68    2.27
  -1   5   8   75.85    2.40
  -1  -5  -8   75.58    2.64
  -1  -5   8   77.27    2.37
  -1  -5   8   75.49    1.99
   1  -5  -8   70.34    2.51
   1   5   8   73.54    2.36
  -1   5  -8   73.24    2.23
   1   5   8   73.89    1.78
   1  -5  -8   73.85    2.18
   1   5   8   73.85    2.30
  -1   5  -8   73.84    2.33
   2  -5   8   25.61    1.13
  -2   5   8   27.78    1.25
  -2   5   8   27.91    1.10
   2  -5   8   24.91    1.18
   2   5  -8   23.29    1.26
  -2  -5  -8   23.35    1.33
   2   5  -8   27.02    1.15
  -2  -5   8   26.03    0.88
   2   5   8   25.86    1.23
  -2  -5   8   24.50    1.21
  -2   5  -8   24.25    1.18
   2   5   8   26.68    1.27
   2  -5  -8   24.91    1.03
   2  -5  -8   25.22    1.33
  -2   5  -8   26.28    1.18
   3   5  -8   10.46    0.75
  -3   5   8    9.97    0.71
   3  -5   8   10.28    0.78
   3   5  -8    9.07    0.90
  -3   5   8   10.80    0.80
  -3  -5  -8    9.07    0.93
   3  -5   8    9.80    0.77
   3   5   8   10.22    0.83
  -3   5  -8    9.13    0.74
   3  -5  -8    8.46    0.89
  -3   5  -8    9.72    0.74
   3  -5  -8    8.30    0.59
  -3  -5   8   10.57    0.81
   3   5   8   10.25    0.84
  -4   5   8   10.57    0.80
  -4   5   8   11.49    0.85
  -4  -5  -8   12.08    0.98
   4   5  -8   11.35    1.09
   4  -5   8   10.54    0.86
   4  -5   8   11.13    0.81
   4   5  -8   11.60    0.85
   4  -5  -8   10.49    0.91
   4   5   8   12.37    0.91
   4   5   8   11.67    0.92
  -4   5  -8   12.07    0.83
  -4   5  -8   11.41    0.85
  -4  -5   8   10.93    0.85
   4  -5  -8   10.45    0.66
   5   5  -8   20.58    1.31
   5  -5   8   25.05    1.36
   5  -5   8   22.54    1.15
  -5   5   8   23.72    1.16
  -5  -5  -8   21.54    1.37
   5   5  -8   21.75    1.23
  -5   5   8   21.73    1.22
   5  -5  -8   21.57    1.32
  -5   5  -8   22.64    1.21
   5   5   8   19.22    1.27
  -5  -5   8   20.59    1.18
  -5   5  -8   22.49    1.21
   5   5   8   21.02    1.18
   6   5  -8  108.14    3.53
   6  -5   8  112.82    3.55
   6   5  -8  112.55    3.50
  -6   5   8  111.03    3.35
  -6  -5  -8  106.20    3.62
  -6   5   8  116.49    3.16
   6   5   8  115.59    3.32
  -6  -5   8  113.20    3.34
   6   5   8  116.23    3.78
   6  -5  -8  109.74    3.67
  -6   5  -8  119.87    3.45
  -6   5  -8  118.88    3.53
   7   5  -8    0.67    0.48
  -7   5   8    0.33    0.39
   7   5  -8    0.22    0.44
   7  -5   8    0.30    0.44
  -7  -5  -8    0.00    0.42
   7   5   8    0.58    0.38
  -7  -5   8   -0.27    0.34
  -7   5  -8    0.22    0.38
  -7   5  -8    0.31    0.40
   7  -5  -8    0.13    0.45
   7   5   8    0.38    0.43
  -8  -5  -8    0.29    0.48
   8   5  -8    1.17    0.51
   8  -5   8    1.61    0.62
  -8   5   8    0.79    0.56
  -8   5  -8    1.15    0.50
   8  -5  -8    0.72    0.54
   8   5   8    0.46    0.52
  -8  -5   8    0.41    0.45
  -8   5  -8   -0.27    0.42
   9   5  -8   -0.06    0.45
   9  -5   8    0.27    0.60
  -9  -5  -8    1.53    0.66
  -9   5   8    0.93    0.62
   9  -5  -8   -0.25    0.44
  -9   5  -8   -0.82    0.42
   9   5   8    0.77    0.62
  -9  -5   8   -0.34    0.37
  -9   5  -8    0.30    0.48
  10  -5   8    1.56    0.75
 -10   5   8    1.41    0.67
  10   5  -8    0.67    0.60
 -10  -5  -8    0.83    0.67
 -10  -5   8    0.84    0.55
 -10   5  -8    2.91    0.82
  10  -5  -8    2.66    0.84
 -10   5  -8    1.45    0.61
  10   5   8    3.08    0.88
 -11  -5  -8    4.00    1.05
 -11   5   8    2.79    0.85
  11  -5   8    2.35    0.92
  11   5  -8    2.99    0.87
  11   5   8    2.04    0.86
  11  -5  -8    3.55    1.01
 -11  -5   8    2.34    0.76
 -11   5  -8    2.97    0.89
  12   5  -8   12.82    1.64
 -12   5   8    7.94    1.31
  12  -5   8    7.01    1.36
 -12  -5  -8    9.98    1.54
  12  -5  -8   10.38    1.58
 -12  -5   8    8.23    1.19
  12   5   8   10.20    1.63
 -12   5  -8    8.74    1.36
   0  -6   8   77.95    2.20
   0  -6   8   74.61    2.42
   0   6   8   77.01    2.47
   0  -6  -8   74.61    2.63
   0  -6  -8   76.88    2.41
   0   6  -8   76.45    2.49
   0   6   8   77.38    1.99
   0   6  -8   80.80    2.26
  -1  -6  -8  108.45    3.43
   1  -6   8  105.73    3.09
  -1  -6  -8  109.50    3.20
  -1   6   8  111.74    2.78
  -1   6   8  109.66    3.15
   1   6  -8  106.49    3.22
   1   6  -8  111.69    2.96
   1  -6   8  111.55    2.98
  -1   6  -8  109.27    2.94
  -1  -6   8  106.15    3.11
  -1  -6   8  110.61    2.82
   1  -6  -8  105.31    3.00
  -1   6  -8  116.12    3.21
   1  -6  -8  104.92    3.33
   1   6   8  107.65    3.15
  -2   6   8    5.22    0.65
  -2   6   8    4.24    0.50
   2   6  -8    5.13    0.72
   2   6  -8    4.73    0.55
   2  -6   8    6.07    0.68
  -2  -6  -8    4.28    0.70
   2  -6   8    4.72    0.55
   2  -6  -8    4.82    0.69
   2   6   8    5.36    0.65
   2  -6  -8    6.37    0.62
  -2   6  -8    5.52    0.67
  -2  -6   8    4.99    0.45
  -2  -6   8    4.09    0.59
   2   6   8    5.69    0.70
  -2   6  -8    6.84    0.67
   3   6  -8    1.17    0.44
  -3   6   8    0.28    0.30
  -3  -6  -8    0.69    0.39
   3   6  -8    1.28    0.36
  -3   6   8    1.31    0.37
   3  -6   8    1.17    0.39
   3  -6   8    1.04    0.38
  -3  -6   8    0.86    0.39
   3   6   8    0.80    0.41
  -3   6  -8    1.48    0.42
  -3   6  -8    1.05    0.33
   3   6   8    0.35    0.32
   3  -6  -8    0.82    0.40
   3  -6  -8    1.27    0.33
  -4  -6  -8    8.50    0.95
   4  -6   8    8.90    0.76
   4   6  -8   10.17    0.79
   4   6  -8    9.70    0.99
  -4   6   8   10.15    0.89
  -4   6   8   10.49    0.80
   4  -6   8    9.77    0.91
   4   6   8    9.32    0.96
  -4   6  -8    8.01    0.78
   4  -6  -8   10.88    1.06
  -4  -6   8    8.59    0.85
   4  -6  -8    7.57    0.66
   4   6   8    8.45    0.83
  -4   6  -8    9.58    0.92
   5  -6   8   90.73    2.97
  -5  -6  -8   88.28    3.08
   5   6  -8   87.21    3.02
  -5   6   8   92.69    2.70
   5  -6   8   87.61    2.65
   5   6  -8   88.74    2.86
  -5   6   8   90.62    2.82
  -5   6  -8   89.43    2.76
   5   6   8   86.39    2.73
   5  -6  -8   86.71    3.00
  -5   6  -8   86.80    2.80
   5   6   8   88.38    3.08
  -5  -6   8   85.47    2.76
  -6   6   8    0.55    0.37
   6   6  -8    0.35    0.42
  -6   6   8    0.74    0.45
  -6  -6  -8    0.54    0.44
   6  -6   8    0.29    0.50
   6   6  -8    0.50    0.41
  -6   6  -8    1.17    0.47
   6   6   8    0.75    0.43
   6  -6  -8    0.57    0.45
  -6   6  -8    1.12    0.49
   6   6   8    0.84    0.47
  -6  -6   8    0.48    0.40
   7   6  -8   21.14    1.46
   7  -6   8   23.29    1.53
   7   6  -8   21.70    1.40
  -7   6   8   24.87    1.46
  -7  -6  -8   22.17    1.52
  -7   6  -8   22.62    1.38
  -7  -6   8   24.48    1.35
   7   6   8   23.18    1.59
   7  -6  -8   27.46    1.63
  -7   6  -8   23.34    1.40
   7   6   8   25.66    1.35
   8  -6   8    0.30    0.58
  -8  -6  -8    1.62    0.67
  -8   6   8    1.27    0.54
   8   6  -8    3.01    0.71
   8   6  -8    0.82    0.51
   8  -6  -8    2.84    0.76
  -8  -6   8    1.33    0.52
  -8   6  -8    0.75    0.50
  -8   6  -8    1.70    0.60
   8   6   8    1.03    0.61
   9   6  -8    1.44    0.62
  -9   6   8    2.29    0.71
   9  -6   8    1.53    0.68
  -9  -6  -8    1.97    0.75
  -9   6  -8    1.19    0.58
  -9  -6   8    2.58    0.71
  -9   6  -8    2.29    0.71
   9   6   8    2.00    0.72
   9  -6  -8    2.62    0.77
 -10   6   8    1.35    0.71
 -10  -6  -8    0.92    0.66
  10   6  -8    0.44    0.60
  10  -6   8    0.63    0.72
 -10   6  -8    1.87    0.74
 -10   6  -8    1.74    0.70
 -10  -6   8    1.08    0.58
  10  -6  -8    1.13    0.74
  10   6   8    0.19    0.57
  11  -6   8    2.00    0.88
 -11   6   8    4.77    1.07
 -11  -6  -8    6.61    1.26
  11   6  -8    2.14    0.87
 -11   6  -8    3.89    0.91
 -11  -6   8    2.94    0.84
  11  -6  -8    3.40    0.99
  11   6   8    3.29    0.94
   0   7  -8  239.70    5.61
   0  -7  -8  244.60    6.25
   0  -7   8  243.17    5.77
   0   7  -8  235.13    5.93
   0  -7   8  235.76    5.89
   0   7   8  236.65    5.93
   0  -7  -8  235.95    5.99
   1  -7   8   11.96    0.81
  -1   7   8   12.22    0.91
  -1  -7  -8   13.44    0.94
   1  -7   8   13.20    0.92
   1   7  -8   13.03    0.72
   1   7  -8   12.00    0.94
  -1   7   8   13.40    0.73
  -1  -7  -8   13.55    1.06
   1   7   8    9.24    0.88
  -1  -7   8    8.55    0.83
  -1   7  -8    9.82    0.82
  -1   7  -8   10.26    0.66
   1  -7  -8    9.61    0.98
   1  -7  -8   11.53    0.79
  -1  -7   8   10.82    0.69
   2   7  -8    4.57    0.53
   2   7  -8    5.04    0.75
   2  -7   8    6.59    0.69
  -2  -7  -8    3.85    0.69
  -2   7   8    4.36    0.62
  -2   7   8    4.24    0.52
   2  -7   8    4.35    0.60
   2   7   8    5.25    0.70
  -2  -7   8    5.40    0.51
  -2   7  -8    4.78    0.55
   2  -7  -8    4.52    0.70
  -2  -7   8    6.04    0.76
   2   7   8    5.60    0.72
  -2   7  -8    6.30    0.76
   2  -7  -8    4.83    0.58
  -3   7   8    8.79    0.84
  -3   7   8    8.63    0.78
  -3  -7  -8    8.89    0.96
   3   7  -8    9.03    1.01
   3  -7   8    9.51    0.80
   3   7  -8    9.49    0.71
   3  -7   8    9.88    0.81
  -3  -7   8    9.02    0.90
   3  -7  -8    8.83    0.95
   3  -7  -8    9.66    0.72
  -3   7  -8    9.38    0.92
   3   7   8    9.98    0.96
   3   7   8    9.87    1.00
  -3   7  -8    8.81    0.86
   4  -7   8    3.91    0.65
   4  -7   8    2.42    0.51
   4   7  -8    3.37    0.72
  -4   7   8    3.98    0.60
  -4   7   8    3.91    0.59
   4   7  -8    3.56    0.55
  -4  -7  -8    2.50    0.61
  -4   7  -8    3.16    0.62
  -4  -7   8    1.86    0.53
   4  -7  -8    3.22    0.51
   4   7   8    3.02    0.62
   4  -7  -8    2.85    0.60
   4   7   8    3.32    0.61
   5  -7   8   26.88    1.30
   5   7  -8   25.24    1.49
  -5   7   8   26.18    1.26
   5  -7   8   27.97    1.52
   5   7  -8   27.64    1.37
  -5  -7  -8   26.91    1.56
  -5   7   8   25.55    1.37
   5   7   8   24.14    1.34
   5   7   8   24.45    1.49
  -5  -7   8   24.27    1.36
   5  -7  -8   24.78    1.48
   5  -7  -8   24.15    1.20
  -5   7  -8   25.61    1.42
   6   7  -8   98.81    3.37
  -6   7   8  100.44    3.18
  -6  -7  -8   93.84    3.39
   6  -7   8  100.90    3.33
   6   7  -8   94.82    3.13
   6   7   8   97.89    3.08
   6  -7  -8  100.66    3.41
   6   7   8   95.76    3.45
  -6  -7   8  101.55    3.13
  -6   7  -8   96.81    3.19
   7   7  -8    0.85    0.54
  -7   7   8    1.18    0.54
   7   7  -8    0.75    0.45
  -7  -7  -8    0.95    0.55
   7  -7   8    0.54    0.51
  -7   7  -8    0.57    0.49
   7   7   8    0.93    0.48
   7  -7  -8    1.19    0.56
  -7  -7   8    0.06    0.45
   7   7   8    0.46    0.52
  -8  -7  -8    3.80    0.90
   8   7  -8    6.09    0.95
   8  -7   8    3.89    0.87
  -8   7   8    5.05    0.90
   8   7  -8    4.81    0.88
  -8   7  -8    5.96    0.92
  -8  -7   8    5.19    0.80
   8  -7  -8    5.38    0.95
   8   7   8    4.00    0.87
   9   7  -8    2.02    0.67
  -9  -7  -8    1.36    0.67
   9  -7   8    1.21    0.77
  -9   7   8    1.44    0.66
   9  -7  -8    1.43    0.69
   9   7   8    1.75    0.72
  -9   7  -8    1.53    0.64
  -9  -7   8    2.94    0.74
 -10  -7  -8    1.56    0.73
  10   7  -8    0.45    0.61
  10  -7   8    1.33    0.77
 -10   7   8    0.06    0.58
 -10  -7   8    1.35    0.62
 -10   7  -8    1.72    0.70
  10  -7  -8    0.67    0.68
  10   7   8    0.78    0.71
  11  -7   8    3.30    1.01
 -11   7   8    1.79    0.82
  11   7  -8    1.38    0.73
 -11  -7  -8    0.94    0.77
 -11   7  -8    2.14    0.81
  11   7   8    0.07    0.67
  11  -7  -8    2.25    0.87
 -11  -7   8    2.19    0.74
   0  -8  -8   11.87    1.01
   0   8   8   11.31    0.93
   0  -8   8    9.62    0.92
   0  -8   8   12.13    0.81
   0  -8  -8   11.36    0.90
   0   8  -8   10.76    1.06
   1  -8   8   66.26    2.13
  -1   8   8   63.71    2.22
   1   8  -8   58.70    2.30
  -1  -8  -8   63.39    2.31
  -1   8   8   63.86    1.93
  -1  -8  -8   63.37    2.44
   1  -8   8   64.42    2.21
  -1   8  -8   62.41    2.25
  -1  -8   8   60.90    1.95
   1  -8  -8   59.31    2.29
   1  -8  -8   60.42    2.13
   1   8   8   62.40    2.21
  -1  -8   8   58.54    2.15
  -2  -8  -8   16.59    1.21
  -2   8   8   18.10    0.98
   2  -8   8   19.11    1.10
   2  -8   8   20.19    1.11
  -2   8   8   16.86    1.06
  -2  -8  -8   17.07    1.18
   2   8  -8   17.18    1.20
  -2  -8   8   15.47    0.86
  -2   8  -8   15.86    1.08
   2   8   8   16.74    1.12
   2  -8  -8   16.50    1.13
   2  -8  -8   17.32    1.00
  -2  -8   8   16.49    1.09
  -3   8   8    9.08    0.88
   3   8  -8    7.57    0.94
   3  -8   8    7.66    0.83
  -3   8   8    8.93    0.82
  -3  -8  -8    9.65    1.05
   3  -8   8    8.42    0.83
   3  -8  -8   10.04    1.02
   3  -8  -8    8.73    0.77
   3   8   8    8.21    0.93
   3   8   8    9.65    1.00
  -3   8  -8    6.88    0.84
  -3  -8   8    9.00    0.90
  -4  -8  -8   28.74    1.60
   4   8  -8   25.96    1.55
   4   8  -8   26.69    1.30
   4  -8   8   29.74    1.50
  -4   8   8   27.73    1.34
  -4   8   8   31.12    1.45
   4  -8   8   29.22    1.38
  -4  -8   8   30.35    1.51
  -4   8  -8   30.19    1.54
   4   8   8   31.85    1.55
   4  -8  -8   30.07    1.40
   4  -8  -8   29.20    1.54
   4   8   8   29.98    1.63
  -5  -8  -8   44.24    2.06
   5   8  -8   43.64    2.08
   5  -8   8   45.86    1.78
   5  -8   8   44.05    2.02
  -5   8   8   45.36    1.77
   5   8  -8   46.59    1.83
  -5   8   8   46.67    1.93
   5   8   8   42.77    2.05
   5  -8  -8   39.90    1.70
   5  -8  -8   40.78    1.92
  -5  -8   8   46.24    1.93
   5   8   8   45.52    1.91
  -5   8  -8   40.84    1.88
   6   8  -8   18.17    1.37
  -6  -8  -8   16.66    1.32
   6  -8   8   19.39    1.38
  -6   8   8   16.72    1.25
   6   8  -8   16.81    1.17
   6  -8  -8   20.28    1.40
   6   8   8   23.33    1.57
   6   8   8   19.56    1.29
  -6  -8   8   19.52    1.30
  -6   8  -8   19.97    1.38
   7   8  -8   30.52    1.64
  -7  -8  -8   29.22    1.79
  -7   8   8   30.20    1.71
   7   8  -8   27.50    1.72
   7  -8   8   29.07    1.81
   7  -8  -8   32.62    1.85
   7   8   8   31.13    1.64
  -7   8  -8   29.43    1.69
   7   8   8   34.10    1.98
  -7  -8   8   31.23    1.62
   8   8  -8    6.27    0.98
   8   8  -8    7.20    0.98
  -8  -8  -8    5.92    1.00
  -8   8   8    5.56    0.96
   8  -8   8    7.49    1.10
   8   8   8    8.84    1.08
  -8  -8   8    8.35    0.99
   8   8   8    6.08    1.07
   8  -8  -8    6.94    1.02
  -8   8  -8    9.96    1.21
   9  -8   8    0.17    0.65
   9   8  -8   -0.54    0.43
  -9  -8  -8   -0.58    0.49
  -9   8   8   -0.71    0.45
   9  -8  -8   -0.20    0.52
   9   8   8   -0.35    0.56
  -9   8  -8    0.24    0.55
 -10  -8  -8    9.83    1.37
  10  -8   8    6.64    1.24
 -10   8   8   10.80    1.41
  10   8  -8   11.09    1.36
  10   8   8   10.72    1.48
 -10  -8   8    9.02    1.24
  10  -8  -8   11.36    1.44
 -10   8  -8    8.63    1.23
 -11  -8  -8    4.57    1.13
  11   8  -8    4.67    1.05
 -11   8   8    4.93    1.09
  11  -8   8    2.91    1.02
 -11   8  -8    3.31    0.96
 -11  -8   8    3.33    0.85
  11   8   8    6.95    1.38
  11  -8  -8    3.21    0.97
   0   9   8   44.71    1.86
   0  -9  -8   43.85    1.87
   0   9  -8   46.95    1.99
   0  -9   8   48.26    1.75
   0  -9  -8   44.22    1.95
   0  -9   8   45.25    1.86
  -1  -9  -8   34.41    1.72
  -1   9   8   33.16    1.55
   1   9  -8   30.64    1.61
   1  -9   8   30.97    1.50
   1  -9   8   33.04    1.46
  -1  -9  -8   33.26    1.60
  -1  -9   8   27.86    1.45
   1   9   8   27.84    1.46
   1  -9  -8   29.82    1.45
  -1   9  -8   29.81    1.52
   1  -9  -8   26.16    1.50
  -1  -9   8   29.59    1.30
   2  -9   8   40.74    1.71
   2  -9   8   40.97    1.70
  -2   9   8   39.85    1.69
   2   9  -8   40.31    1.91
  -2  -9  -8   39.68    1.91
  -2  -9  -8   35.89    1.77
  -2   9   8   37.89    1.53
  -2   9  -8   33.40    1.64
   2  -9  -8   32.64    1.65
  -2  -9   8   36.44    1.42
   2  -9  -8   37.26    1.61
  -2  -9   8   37.10    1.69
   2   9   8   35.56    1.69
  -3   9   8   10.23    0.92
  -3   9   8    8.19    0.87
   3   9  -8    7.30    0.94
  -3  -9  -8    8.74    1.00
   3  -9   8   10.36    0.96
   3  -9   8   10.94    0.92
   3  -9  -8    8.98    0.97
  -3  -9   8    9.48    0.95
   3   9   8    8.06    0.89
  -3   9  -8    9.43    1.01
   3  -9  -8    9.79    0.85
   4  -9   8    8.12    0.85
  -4  -9  -8    6.95    0.93
  -4   9   8    8.60    0.90
   4   9  -8    9.75    1.17
  -4   9   8    8.51    0.89
   4  -9   8    8.56    0.95
   4  -9  -8    7.23    0.82
  -4   9  -8    7.94    0.92
  -4  -9   8    8.08    0.95
   4   9   8    7.31    0.95
   4  -9  -8    9.67    1.03
   4   9   8    6.41    0.86
   5   9  -8   54.96    2.38
  -5   9   8   54.74    2.18
   5  -9   8   51.85    2.22
  -5   9   8   53.01    1.99
  -5  -9  -8   51.78    2.27
  -5  -9   8   56.75    2.26
   5   9   8   54.71    2.45
   5  -9  -8   54.61    2.30
   5   9   8   57.10    2.25
  -5   9  -8   58.76    2.36
   5  -9  -8   57.55    2.18
  -6   9   8   21.86    1.45
  -6  -9  -8   20.44    1.45
   6  -9   8   20.08    1.46
   6   9  -8   20.19    1.47
  -6   9  -8   24.80    1.52
   6   9   8   23.12    1.65
   6  -9  -8   23.11    1.50
   6   9   8   24.51    1.48
  -6  -9   8   22.83    1.44
   7   9  -8   10.95    1.23
  -7   9   8   11.39    1.23
  -7  -9  -8   10.54    1.30
   7  -9   8   10.10    1.19
   7   9   8   15.54    1.62
   7   9   8   16.24    1.29
  -7   9  -8   13.46    1.33
   7  -9  -8   14.37    1.38
  -7  -9   8   15.11    1.25
   8   9  -8    5.80    0.99
   8  -9   8    6.93    1.09
  -8  -9  -8    6.45    1.11
  -8   9   8    5.52    0.92
   8   9   8    6.29    0.92
   8  -9  -8    5.27    0.95
   8   9   8    6.59    1.12
  -8   9  -8    7.41    1.08
  -8  -9   8    4.85    0.87
  -9  -9  -8    2.84    0.84
   9  -9   8    2.46    0.77
  -9   9   8    2.10    0.78
   9   9  -8    2.39    0.80
   9   9   8    4.28    1.02
   9  -9  -8    3.81    0.91
  -9   9  -8    3.03    0.82
  10  -9   8    9.39    1.41
 -10  -9  -8   13.49    1.65
 -10   9   8   12.21    1.53
  10  -9  -8    8.04    1.29
  10   9   8   12.24    1.66
 -10   9  -8   10.82    1.41
 -10  -9   8    9.66    1.26
   0  10  -8    0.75    0.46
   0  10   8    0.45    0.42
   0 -10   8    0.09    0.34
   0 -10  -8    0.32    0.40
   0 -10  -8    0.57    0.42
   0 -10   8    0.22    0.44
   1  10  -8   25.54    1.51
  -1 -10  -8   25.98    1.51
   1 -10   8   25.46    1.40
   1 -10   8   25.57    1.32
  -1  10   8   25.84    1.42
  -1 -10  -8   25.23    1.46
  -1  10  -8   21.88    1.37
   1 -10  -8   23.26    1.34
   1 -10  -8   21.19    1.34
   1  10   8   21.33    1.31
  -1 -10   8   23.47    1.21
  -1 -10   8   22.70    1.35
   2 -10   8    5.74    0.79
  -2  10   8    5.91    0.80
  -2 -10  -8    5.31    0.86
   2 -10   8    5.75    0.76
   2  10  -8    6.88    1.00
  -2 -10  -8    6.09    0.87
   2 -10  -8    6.73    0.83
  -2  10  -8    6.57    0.86
   2 -10  -8    5.57    0.80
   2  10   8    5.25    0.83
  -2 -10   8    6.11    0.87
  -2 -10   8    5.60    0.66
   3 -10   8   37.00    1.68
  -3 -10  -8   34.75    1.82
   3  10  -8   37.58    1.93
  -3  10   8   38.09    1.66
  -3 -10  -8   37.09    1.88
  -3  10   8   38.04    1.68
   3 -10   8   35.20    1.71
  -3  10  -8   38.52    1.83
   3 -10  -8   35.08    1.74
  -3 -10   8   33.72    1.71
   3  10   8   34.48    1.74
   3 -10  -8   37.31    1.69
   4  10  -8   36.42    1.94
  -4 -10  -8   34.71    1.83
  -4  10   8   33.58    1.68
   4 -10   8   37.13    1.85
   4 -10   8   36.49    1.64
  -4  10   8   37.10    1.65
   4  10   8   36.02    1.79
  -4  10  -8   38.06    1.86
  -4 -10   8   38.88    1.85
   4 -10  -8   34.36    1.69
   4 -10  -8   38.05    1.81
  -5 -10  -8    7.43    1.04
  -5  10   8    9.26    1.04
  -5  10   8    7.82    0.85
   5 -10   8    9.00    1.06
   5  10  -8    7.53    1.05
   5 -10  -8    6.55    0.92
   5  10   8    7.90    1.01
  -5 -10   8    7.26    0.98
  -5  10  -8    6.15    0.93
   5  10   8    7.98    1.07
   5 -10  -8    8.59    0.99
   6  10  -8    1.59    0.58
   6 -10   8    1.55    0.69
  -6 -10  -8    2.27    0.70
  -6  10   8    1.09    0.57
   6  10   8    2.36    0.75
   6 -10  -8    1.83    0.62
  -6 -10   8    2.41    0.67
  -6  10  -8    1.21    0.58
   6  10   8    1.16    0.60
   7  10  -8    2.57    0.74
  -7 -10  -8    3.09    0.79
  -7  10   8    2.23    0.71
   7 -10   8    1.30    0.71
   7  10   8    2.16    0.77
  -7  10  -8    2.09    0.68
   7 -10  -8    2.25    0.75
  -7 -10   8    1.79    0.65
   7  10   8    2.41    0.71
  -8  10   8    2.94    0.84
  -8 -10  -8    2.40    0.77
   8  10  -8    1.92    0.71
   8 -10   8    3.16    0.89
   8  10   8    2.60    0.75
  -8  10  -8    2.33    0.75
   8  10   8    2.04    0.79
   8 -10  -8    2.05    0.70
  -8 -10   8    3.50    0.80
   9  10  -8   15.70    1.63
  -9 -10  -8   13.45    1.57
   9 -10   8   11.05    1.43
  -9  10   8   12.11    1.48
   9  10   8   14.99    1.71
  -9  10  -8   13.56    1.53
   9 -10  -8   13.35    1.50
 -10  10   8    9.50    1.35
  10 -10   8    8.70    1.39
 -10 -10  -8   13.90    1.68
  10  10   8   10.07    1.54
  10 -10  -8   10.01    1.40
 -10 -10   8   10.56    1.31
 -10  10  -8    8.54    1.31
   0 -11   8   -0.39    0.33
   0  11  -8   -0.31    0.41
   0 -11   8    0.88    0.53
   0 -11  -8    0.46    0.40
   0 -11  -8   -0.04    0.38
   0  11   8   -0.04    0.40
   1 -11   8    5.08    0.81
   1  11  -8    6.25    0.91
  -1  11   8    5.88    0.86
  -1 -11  -8    7.79    0.99
   1 -11   8    7.20    0.84
  -1 -11  -8    7.24    0.97
   1 -11  -8    5.80    0.82
   1  11   8    6.62    0.93
  -1  11  -8    5.51    0.85
  -1 -11   8    6.49    0.77
   1 -11  -8    6.66    0.87
  -1 -11   8    6.67    0.88
  -2 -11  -8   32.35    1.78
   2  11  -8   32.91    1.81
   2 -11   8   32.41    1.62
  -2  11   8   31.41    1.60
   2 -11   8   33.61    1.68
  -2 -11  -8   31.38    1.74
  -2 -11   8   32.23    1.56
  -2 -11   8   33.18    1.71
   2  11   8   30.46    1.67
   2 -11  -8   33.75    1.68
  -2  11  -8   31.93    1.70
   2 -11  -8   30.61    1.62
   3 -11   8    4.52    0.79
   3 -11   8    4.35    0.73
   3  11  -8    3.74    0.79
  -3 -11  -8    2.76    0.70
  -3  11   8    3.46    0.67
  -3 -11  -8    2.58    0.71
  -3  11  -8    2.60    0.68
   3 -11  -8    4.56    0.76
   3 -11  -8    4.21    0.72
  -3 -11   8    2.92    0.72
   3  11   8    4.32    0.79
  -4  11   8   22.89    1.42
  -4 -11  -8   19.17    1.50
  -4 -11  -8   19.27    1.40
  -4  11   8   19.21    1.26
   4 -11   8   18.37    1.40
   4  11  -8   20.47    1.50
   4 -11   8   19.10    1.26
  -4 -11   8   17.44    1.34
   4  11   8   17.67    1.35
   4 -11  -8   17.27    1.27
  -4  11  -8   21.52    1.44
   4 -11  -8   21.67    1.40
  -5 -11  -8    2.24    0.67
  -5  11   8    2.53    0.66
   5 -11   8    1.37    0.64
  -5  11   8    2.17    0.60
   5  11  -8    3.16    0.76
  -5 -11   8    2.18    0.68
  -5  11  -8    2.33    0.68
   5 -11  -8    3.15    0.72
   5  11   8    3.27    0.78
   5 -11  -8    2.14    0.61
  -6  11   8    1.26    0.65
  -6 -11  -8    0.82    0.57
   6  11  -8    0.57    0.54
   6 -11   8    0.83    0.58
   6 -11  -8    0.93    0.59
   6  11   8    0.34    0.64
  -6 -11   8    1.19    0.65
   6  11   8    0.87    0.60
  -6  11  -8    1.02    0.57
   7 -11   8    1.78    0.76
   7  11  -8    1.57    0.73
  -7 -11  -8    1.02    0.60
  -7  11   8    2.03    0.75
   7  11   8    1.73    0.69
   7 -11  -8    2.63    0.73
  -7  11  -8    1.43    0.65
  -7 -11   8    2.93    0.80
   7  11   8    2.67    0.81
   8 -11   8   19.12    1.66
  -8 -11  -8   17.58    1.72
  -8  11   8   17.67    1.70
   8  11  -8   17.86    1.76
   8 -11  -8   18.44    1.56
  -8  11  -8   20.11    1.63
   8  11   8   21.83    1.83
  -8 -11   8   19.31    1.53
   8  11   8   19.08    1.52
  -9 -11  -8    1.71    0.80
   9 -11   8   -0.59    0.73
   9  11  -8    0.43    0.61
  -9  11   8    1.65    0.82
  -9  11  -8    0.99    0.68
   9  11   8    0.14    0.67
   0  12   8    2.21    0.61
   0  12  -8    1.74    0.61
   0 -12  -8    1.65    0.59
   0 -12  -8    1.48    0.56
   0 -12   8    0.58    0.46
   0 -12   8    1.41    0.63
   1  12  -8    3.82    0.80
   1 -12   8    6.29    0.84
  -1 -12  -8    4.44    0.82
  -1 -12  -8    4.17    0.79
  -1  12   8    6.38    0.89
   1 -12   8    3.99    0.75
   1  12   8    4.89    0.86
  -1  12  -8    4.45    0.81
  -1 -12   8    3.82    0.82
  -1 -12   8    5.23    0.75
   1 -12  -8    3.70    0.75
   1 -12  -8    4.47    0.77
  -2  12   8    0.88    0.52
  -2 -12  -8   -0.02    0.45
  -2 -12  -8   -0.05    0.45
   2 -12   8    0.85    0.51
   2 -12   8    0.33    0.52
   2  12  -8    0.38    0.46
   2  12   8    0.12    0.48
  -2 -12   8   -0.34    0.49
   2 -12  -8    0.19    0.45
  -2  12  -8    0.46    0.45
   2 -12  -8    0.41    0.48
  -3 -12  -8   36.12    2.01
   3 -12   8   36.91    1.88
   3 -12   8   39.14    1.81
  -3 -12  -8   32.88    1.90
   3  12  -8   34.33    1.99
  -3  12   8   34.83    1.74
   3  12   8   37.95    1.96
  -3  12  -8   34.14    1.85
   3 -12  -8   32.87    1.78
  -3 -12   8   36.17    1.89
   3 -12  -8   35.89    1.80
   4  12  -8    3.25    0.83
   4 -12   8    2.72    0.70
  -4 -12  -8    3.41    0.87
  -4  12   8    4.62    0.77
  -4 -12  -8    2.80    0.73
   4 -12   8    3.25    0.77
  -4 -12   8    2.45    0.77
   4 -12  -8    3.28    0.73
  -4  12  -8    3.38    0.76
   4  12   8    3.36    0.82
   5  12  -8    1.17    0.60
   5 -12   8    1.06    0.70
  -5 -12  -8    0.98    0.56
  -5  12   8    0.59    0.56
  -5 -12  -8    0.64    0.52
   5  12   8    0.10    0.56
   5 -12  -8    1.51    0.62
  -5  12  -8    0.92    0.57
  -5 -12   8    0.85    0.64
  -6  12   8    1.18    0.66
   6  12  -8    1.56    0.70
  -6 -12  -8    0.81    0.60
   6 -12   8    0.91    0.67
  -6 -12   8    1.38    0.66
  -6  12  -8    0.84    0.60
   6  12   8    0.87    0.68
   7  12  -8    2.61    0.84
   7 -12   8    2.65    0.84
  -7 -12  -8    1.66    0.68
  -7  12   8    3.88    0.93
  -7 -12   8    3.12    0.83
  -7  12  -8    1.48    0.70
   7  12   8    3.03    0.83
   7  12   8    4.37    1.07
  -8 -12  -8    0.62    0.59
   8 -12   8   -0.18    0.72
  -8  12   8    0.40    0.67
   8  12  -8   -0.10    0.57
  -8  12  -8    0.98    0.68
  -8 -12   8    0.07    0.63
   8  12   8    1.55    0.66
   8  12   8   -0.28    0.64
  -9  12   8   17.24    1.80
   9  12  -8   22.37    1.83
  -9 -12  -8   17.34    1.79
   9 -12   8   19.58    1.94
  -9  12  -8   18.46    1.84
   9  12   8   23.11    2.02
   0  13   8    0.37    0.55
   0 -13   8    0.28    0.48
   0  13  -8    0.24    0.49
   0 -13   8   -0.16    0.55
   0 -13  -8    0.03    0.51
   1  13  -8    4.00    0.87
   1 -13   8    4.68    0.80
  -1 -13  -8    3.95    0.82
  -1  13   8    3.38    0.75
   1 -13   8    3.89    0.84
   1  13   8    3.32    0.80
   1 -13  -8    3.47    0.77
  -1 -13   8    4.00    0.83
  -1 -13   8    4.81    0.77
  -1  13  -8    1.89    0.65
   2 -13   8   13.33    1.28
  -2 -13  -8   11.42    1.31
  -2  13   8   12.69    1.25
   2  13  -8   13.21    1.49
   2 -13   8   13.13    1.28
   2 -13  -8   13.71    1.35
  -2 -13   8   12.21    1.28
  -2  13  -8   10.93    1.21
   2  13   8    9.57    1.15
   3 -13   8    3.71    0.76
  -3 -13  -8    3.24    0.80
  -3  13   8    3.68    0.82
   3 -13   8    3.06    0.75
   3  13  -8    3.70    0.91
  -3  13  -8    2.70    0.69
  -3 -13   8    3.66    0.83
   3  13   8    2.33    0.74
   3 -13  -8    3.46    0.76
   4 -13   8   25.99    1.73
  -4 -13  -8   23.77    1.73
  -4  13   8   22.85    1.49
   4 -13   8   22.37    1.49
   4  13  -8   24.81    1.75
   4 -13  -8   24.72    1.63
   4  13   8   21.49    1.58
  -4 -13   8   21.31    1.56
  -4  13  -8   21.93    1.61
   5 -13   8    3.94    0.89
   5  13  -8    4.08    0.90
  -5 -13  -8    3.23    0.84
  -5  13  -8    4.26    0.94
   5  13   8    3.12    0.81
  -5 -13   8    5.81    1.04
   5 -13  -8    3.07    0.80
  -6  13   8   -0.54    0.56
   6 -13   8    1.26    0.73
   6  13  -8    0.11    0.55
  -6 -13  -8    0.28    0.54
  -6 -13  -8   -0.06    0.57
  -6 -13   8   -0.02    0.66
   6  13   8    0.02    0.59
  -6  13  -8    0.20    0.57
  -7 -13  -8    0.71    0.69
   7 -13   8    1.25    0.81
   7  13  -8    2.71    0.85
  -7 -13  -8    2.54    0.87
  -7  13   8    3.16    0.92
  -7  13  -8    1.94    0.80
  -7 -13   8    2.47    0.85
   7  13   8    1.61    0.73
   8  13  -8   11.81    1.47
   8 -13   8   13.19    1.60
  -8  13   8   12.14    1.54
  -8 -13  -8   12.32    1.63
  -8 -13   8   13.04    1.49
  -8  13  -8   14.14    1.57
   8  13   8   11.08    1.36
   0 -14  -8    0.71    0.53
   0 -14   8    0.82    0.63
   0  14   8    0.92    0.60
   0 -14   8    0.67    0.54
   0  14  -8    0.72    0.59
  -1 -14  -8   -0.01    0.49
   1 -14   8   -0.81    0.56
  -1  14   8    0.39    0.52
   1 -14   8    0.31    0.50
   1  14  -8    0.44    0.52
  -1 -14   8    0.27    0.50
  -1 -14   8    0.14    0.58
  -1  14  -8    0.33    0.51
   1 -14  -8    0.11    0.46
   1  14   8    0.38    0.53
   2 -14   8    3.52    0.84
   2 -14   8    5.64    0.94
  -2 -14  -8    4.68    0.94
  -2  14   8    3.48    0.78
   2  14  -8    4.96    0.99
  -2  14  -8    5.50    0.95
  -2 -14   8    5.86    1.00
   2  14   8    4.49    0.89
   2 -14  -8    3.75    0.82
   3  14  -8   29.86    1.96
  -3 -14  -8   27.93    1.91
   3 -14   8   27.81    1.80
  -3  14   8   25.67    1.60
   3 -14   8   29.18    1.74
  -3 -14   8   26.39    1.79
  -3  14  -8   24.44    1.68
   3 -14  -8   25.52    1.68
   3  14   8   25.16    1.74
  -4 -14  -8   13.18    1.57
   4  14  -8   12.28    1.48
  -4  14   8    8.52    1.08
   4 -14   8   10.12    1.24
  -4 -14   8    9.72    1.26
  -4  14  -8    9.97    1.30
   4  14   8   11.22    1.33
   4 -14  -8   10.64    1.26
   5  14  -8    8.97    1.27
   5 -14   8    5.43    1.04
  -5 -14  -8    9.01    1.35
   5 -14  -8    7.14    1.13
   5  14   8    7.72    1.14
  -5  14  -8    7.32    1.13
  -5 -14   8   11.28    1.38
  -6 -14  -8    1.54    0.79
   6  14  -8    3.01    0.90
   6 -14   8    4.32    1.01
  -6 -14   8    1.59    0.89
   6  14   8    1.26    0.70
  -6  14  -8    1.94    0.73
   7 -14   8    2.32    0.87
  -7  14   8   -0.06    0.72
  -7 -14  -8    1.58    0.76
   7  14  -8    1.97    0.77
  -7  14  -8    1.65    0.78
   7  14   8    1.69    0.83
  -7 -14   8    1.03    0.75
   0 -15  -8    8.13    1.21
   0 -15   8    9.45    1.22
   0  15  -8    7.73    1.18
   0 -15   8    8.54    1.10
   0  15   8    6.13    1.03
  -1 -15  -8    4.49    0.95
   1  15  -8    5.49    1.03
  -1  15   8    2.59    0.79
   1 -15   8    4.11    0.85
   1 -15   8    2.45    0.83
  -1  15  -8    2.20    0.70
   1  15   8    3.35    0.86
  -1 -15   8    4.06    0.93
   1 -15  -8    5.32    0.99
   2  15  -8    5.64    1.09
   2 -15   8    5.20    0.97
  -2 -15  -8    4.88    1.00
   2 -15   8    5.60    0.99
  -2  15   8    5.32    0.96
  -2  15  -8    6.39    1.04
  -2 -15   8    7.36    1.12
   2 -15  -8    6.15    1.06
   2  15   8    5.71    1.07
  -3  15   8    3.08    0.79
   3 -15   8    2.39    0.78
   3 -15   8    2.96    0.84
  -3 -15  -8    3.84    0.94
   3  15  -8    4.46    1.03
  -3  15  -8    1.91    0.72
   3 -15  -8    2.39    0.77
  -3 -15   8    2.17    0.81
   3  15   8    3.33    0.88
   4  15  -8   23.26    1.82
  -4  15   8   19.10    1.49
   4 -15   8   22.13    1.77
  -4 -15  -8   19.93    1.75
   4  15   8   20.51    1.68
  -4  15  -8   22.62    1.74
   4 -15  -8   18.83    1.79
  -4 -15   8   25.52    1.85
  -5 -15  -8    9.88    1.43
   5 -15   8   10.52    1.37
   5  15  -8   12.19    1.54
   5  15   8    8.82    1.21
  -5  15  -8   10.29    1.35
  -5 -15   8   12.06    1.46
   5 -15  -8    9.54    1.34
   6 -15   8    5.28    1.14
   6  15  -8    6.55    1.20
  -6 -15  -8    3.70    1.01
  -6 -15   8    7.22    1.25
   6  15   8    5.49    1.06
  -6  15  -8    4.72    1.04
   0 -16   8    3.42    0.86
   0 -16   8    3.03    0.91
   0  16   8    2.68    0.85
   0 -16  -8    2.13    0.84
   0  16  -8    2.90    0.82
  -1 -16  -8    9.02    1.32
   1  16  -8   11.94    1.50
  -1  16   8    7.94    1.16
   1 -16   8   12.56    1.35
   1 -16   8   13.82    1.51
  -1  16  -8   11.27    1.43
  -1 -16   8   12.24    1.41
   1  16   8    9.44    1.30
   1 -16  -8   10.73    1.39
   2 -16   8    2.71    0.87
   2  16  -8    2.19    0.82
   2 -16   8    3.81    0.91
  -2 -16  -8    3.19    0.93
  -2  16   8    3.35    0.84
  -2 -16   8    4.66    1.02
   2 -16  -8    1.43    0.69
  -2  16  -8    2.67    0.83
   2  16   8    2.89    0.88
   3  16  -8    0.84    0.68
  -3  16   8    2.02    0.72
   3 -16   8    0.40    0.70
  -3 -16  -8    0.51    0.65
   3 -16   8   -0.14    0.64
  -3 -16   8    1.21    0.77
   3 -16  -8    1.01    0.69
  -3  16  -8    2.20    0.81
   3  16   8    0.96    0.72
   4  16  -8    8.36    1.36
  -4 -16  -8    8.30    1.40
   4 -16   8    8.03    1.24
   4 -16  -8    6.54    1.16
  -4 -16   8    7.67    1.19
  -4  16  -8    6.79    1.16
   4  16   8    7.40    1.19
   5  16  -8   18.01    1.97
  -5 -16  -8   19.67    2.08
   5 -16   8   20.31    1.79
  -5  16  -8   16.30    1.77
   5  16   8   16.35    1.69
   5 -16  -8   17.60    1.82
  -5 -16   8   23.70    1.92
   0  17  -8   20.88    1.74
   0 -17  -8   20.33    1.74
   0 -17   8   21.75    1.89
   0  17   8   24.44    1.83
   0 -17   8   20.27    1.71
   1 -17   8    4.33    0.94
   1  17  -8    2.74    0.87
  -1  17   8    2.91    0.85
  -1 -17  -8    3.78    0.98
   1 -17   8    2.52    0.94
  -1 -17   8    4.04    0.96
   1 -17  -8    1.52    0.81
  -1  17  -8    2.86    0.88
   1  17   8    3.24    0.87
   2 -17   8    0.23    0.76
   2 -17   8    0.78    0.71
  -2  17   8    0.43    0.56
   2  17  -8    0.64    0.67
  -2 -17  -8   -0.14    0.68
   2  17   8    0.15    0.61
   2 -17  -8    1.20    0.75
  -2 -17   8    0.07    0.76
  -2  17  -8   -0.53    0.55
  -3  17   8    0.73    0.60
   3  17  -8    0.28    0.73
   3 -17   8    2.00    0.84
   3 -17   8    0.64    0.73
  -3 -17  -8    0.32    0.68
   3 -17  -8    0.98    0.79
  -3  17  -8    1.51    0.68
  -3 -17   8    0.59    0.81
   3  17   8    1.14    0.81
   4 -17   8    6.41    1.23
  -4 -17  -8    5.16    1.20
   4  17  -8    5.05    1.18
   4  17   8    6.59    1.29
  -4 -17   8    5.67    1.19
   4 -17  -8    3.43    0.99
  -4  17  -8    4.71    1.04
   0 -18  -8    2.48    0.93
   0  18  -8    1.66    0.80
   0   0   9    0.22    0.15
   0   0  -9   -0.04    0.25
   0   0  -9    0.08    0.20
   0   0   9    0.45    0.33
   1   0  -9   49.92    1.92
   1   0   9   52.52    1.59
  -1   0   9   49.89    1.87
  -1   0  -9   51.79    1.98
   1   0   9   51.93    1.86
  -1   0  -9   47.53    1.61
   1   0  -9   50.18    1.73
   2   0  -9    9.12    0.79
  -2   0   9   10.03    0.82
  -2   0  -9   10.26    0.86
   2   0   9   11.23    0.85
   2   0  -9    8.05    0.76
  -2   0  -9    8.29    0.59
   2   0   9    9.23    0.65
   3   0  -9    0.32    0.30
   3   0   9   -0.16    0.22
  -3   0  -9    0.26    0.31
  -3   0  -9   -0.03    0.20
   3   0   9    0.53    0.34
   3   0  -9    0.19    0.27
  -3   0   9    0.68    0.34
  -4   0  -9    5.16    0.52
  -4   0   9    7.06    0.78
   4   0   9    6.33    0.71
   4   0  -9    4.98    0.72
   4   0   9    6.71    0.74
  -4   0  -9    5.94    0.78
   4   0  -9    5.43    0.70
   5   0   9    3.56    0.58
   5   0  -9    2.94    0.58
  -5   0   9    2.95    0.56
  -5   0  -9    3.30    0.46
  -5   0  -9    3.12    0.63
  -5   0   9    3.28    0.57
   5   0   9    3.74    0.65
   6   0   9    1.29    0.43
   6   0  -9    1.33    0.54
   6   0   9    1.13    0.50
  -6   0   9    1.11    0.45
  -6   0  -9    1.41    0.53
  -6   0   9    0.66    0.40
  -7   0   9   16.26    1.09
   7   0   9   17.87    1.36
  -7   0  -9   17.49    1.32
  -7   0   9   16.91    1.23
   7   0  -9   18.41    1.35
   8   0  -9    0.27    0.46
   8   0   9    0.61    0.54
  -8   0   9    0.36    0.41
  -8   0  -9    0.38    0.50
  -9   0  -9    0.98    0.61
   9   0   9    0.23    0.56
   9   0  -9    0.15    0.52
  -9   0   9   -0.30    0.41
 -10   0  -9    5.70    1.09
 -10   0   9    4.41    0.90
  10   0   9    4.49    1.01
  10   0  -9    5.79    1.09
  11   0   9    2.10    0.85
 -11   0   9    2.78    0.85
  11   0  -9    1.82    0.85
 -11   0  -9    2.77    0.87
  12   0   9   -0.07    0.77
 -12   0   9    0.86    0.69
 -12   0  -9   -0.33    0.66
  12   0  -9    0.69    0.71
   0   1  -9    0.75    0.28
   0  -1   9    0.76    0.20
   0  -1  -9    0.65    0.25
   0   1  -9    0.39    0.29
   0  -1   9    0.20    0.31
   0   1   9    0.77    0.22
   0  -1  -9    0.66    0.35
   0   1   9    0.84    0.36
   1   1  -9   20.95    1.06
   1  -1   9   20.09    1.12
  -1  -1  -9   21.78    1.23
   1   1  -9   19.29    1.10
  -1  -1  -9   22.73    0.94
   1  -1   9   21.26    0.89
  -1   1   9   20.74    1.13
   1  -1  -9   21.03    1.01
  -1   1  -9   21.03    1.01
  -1  -1   9   22.32    1.17
   1   1   9   23.47    0.95
   1  -1  -9   22.72    0.74
   1   1   9   22.61    1.17
   1  -1  -9   21.96    1.22
  -1   1  -9   23.46    1.23
  -2  -1  -9   14.00    1.03
   2   1  -9   17.66    0.99
  -2  -1  -9   16.59    0.78
   2  -1   9   16.91    1.02
   2   1  -9   15.99    0.99
   2  -1   9   15.96    0.85
  -2   1   9   16.47    1.01
   2   1   9   12.60    0.75
  -2  -1   9   12.51    0.91
  -2   1  -9   10.93    0.87
   2  -1  -9   10.86    0.87
   2  -1  -9   13.08    0.82
  -2   1  -9   11.04    0.69
   2   1   9   12.32    0.89
   3   1  -9   13.73    0.96
   3  -1   9   10.80    0.86
   3  -1   9   13.40    0.85
  -3  -1  -9   11.55    0.63
  -3  -1  -9   13.16    0.98
  -3   1   9   12.45    0.90
   3   1  -9   11.43    0.86
  -3  -1   9   12.27    0.89
   3  -1  -9   11.51    0.91
   3  -1  -9   12.17    0.84
  -3   1  -9   13.27    0.96
   3   1   9   13.41    0.87
  -3   1  -9   12.43    0.73
   3   1   9   13.36    0.91
   4  -1   9   30.35    1.38
  -4   1   9   30.06    1.40
  -4  -1  -9   32.15    1.56
   4   1  -9   31.83    1.49
   4   1  -9   30.79    1.50
  -4  -1  -9   30.56    1.08
  -4   1   9   32.40    1.43
   4  -1   9   31.25    1.45
   4  -1  -9   29.45    1.49
  -4   1  -9   26.34    1.40
  -4   1  -9   27.90    1.14
   4   1   9   30.08    1.42
  -4  -1   9   29.68    1.38
   4   1   9   30.59    1.35
  -5   1   9   11.07    0.89
  -5  -1  -9   11.47    1.14
  -5   1   9   10.53    0.86
   5   1  -9   12.80    1.02
   5  -1   9   11.15    0.84
   5   1  -9    9.10    0.99
   5  -1   9   11.85    0.96
   5  -1  -9   11.76    0.96
   5   1   9   12.14    0.98
  -5  -1   9   12.08    0.92
  -5   1  -9   11.05    0.76
  -5   1  -9   12.10    1.00
   5   1   9   11.02    0.88
   6  -1   9    7.55    0.93
   6   1  -9    8.34    0.99
  -6   1   9    8.26    0.95
  -6   1   9    7.68    0.81
   6  -1   9    9.47    0.85
  -6  -1  -9    8.58    1.01
  -6  -1   9    8.19    0.91
  -6   1  -9    9.25    0.80
   6   1   9    9.00    1.01
   6  -1  -9    9.10    1.02
  -6  -1   9    9.73    0.93
   6   1   9    7.56    0.78
  -6   1  -9    9.40    1.05
   7  -1   9    3.59    0.76
  -7   1   9    3.17    0.67
  -7   1   9    3.42    0.63
  -7  -1  -9    2.62    0.72
   7   1  -9    2.89    0.66
  -7  -1   9    1.80    0.51
  -7  -1   9    2.17    0.59
   7  -1  -9    2.21    0.66
   7   1   9    1.83    0.62
  -7   1  -9    2.24    0.62
  -8   1   9   10.41    1.14
   8   1  -9    9.42    1.16
   8  -1   9   10.67    1.26
  -8  -1  -9   10.19    1.23
   8  -1  -9   10.98    1.28
  -8   1  -9    9.37    1.16
  -8  -1   9   10.22    1.15
   8   1   9    8.92    1.18
   9  -1   9    9.58    1.24
   9   1  -9   13.34    1.45
  -9   1   9    8.81    1.09
  -9  -1  -9   12.43    1.44
   9  -1  -9   10.40    1.34
   9   1   9    9.98    1.27
  -9   1  -9   12.13    1.36
  -9  -1   9   10.48    1.22
 -10  -1  -9    5.90    1.11
 -10   1   9    6.88    1.10
  10  -1   9    5.71    1.09
  10   1  -9    7.34    1.17
 -10  -1   9    8.06    1.15
  10  -1  -9    6.13    1.12
 -10   1  -9    5.01    1.02
  10   1   9    5.86    1.08
 -11  -1  -9    7.56    1.27
  11   1  -9    7.75    1.30
 -11   1   9    7.03    1.14
  11  -1   9    6.80    1.28
  11  -1  -9    7.35    1.29
 -11  -1   9    8.57    1.25
 -11   1  -9    7.62    1.30
  11   1   9    7.95    1.33
  12  -1   9    4.70    1.14
 -12   1   9    6.31    1.16
 -12  -1  -9    4.69    1.19
  12   1  -9    6.05    1.21
  12   1   9    3.52    1.04
 -12   1  -9    5.27    1.17
 -12  -1   9    6.33    1.12
  12  -1  -9    4.96    1.16
   0  -2  -9   33.85    1.57
   0   2  -9   34.35    1.40
   0  -2   9   34.61    1.09
   0   2   9   35.07    1.48
   0   2   9   37.23    1.20
   0  -2  -9   33.15    1.22
   0  -2   9   35.58    1.49
   0   2  -9   35.97    1.50
  -1   2   9   14.77    0.95
  -1  -2  -9   13.17    0.68
   1   2  -9   12.41    0.85
   1   2  -9   13.97    0.89
  -1  -2  -9   12.48    0.98
   1  -2   9   12.96    0.68
   1  -2   9   13.38    0.92
   1   2   9   13.47    0.72
   1   2   9   12.03    0.87
  -1   2  -9   13.78    0.91
  -1  -2   9   11.71    0.44
  -1  -2   9   11.37    0.86
   1  -2  -9   12.48    0.94
  -1   2  -9   12.16    0.78
   1  -2  -9   11.77    0.57
   1  -2  -9   13.11    0.74
  -2   2   9    3.38    0.56
   2   2  -9    2.35    0.49
   2  -2   9    2.69    0.41
   2   2  -9    3.05    0.54
  -2  -2  -9    2.76    0.60
  -2  -2  -9    3.16    0.38
   2  -2   9    1.83    0.46
   2   2   9    3.63    0.58
  -2  -2   9    2.91    0.50
  -2   2  -9    3.68    0.48
   2  -2  -9    3.40    0.49
   2   2   9    3.75    0.48
  -2   2  -9    4.05    0.62
   2  -2  -9    3.02    0.55
  -3   2   9    0.95    0.38
   3  -2   9    0.97    0.38
   3  -2   9    1.22    0.36
   3   2  -9    0.35    0.34
   3   2  -9    0.38    0.30
  -3   2   9    1.16    0.37
  -3  -2  -9    1.84    0.52
  -3  -2  -9    1.45    0.27
  -3  -2   9    0.37    0.33
   3   2   9    0.75    0.35
   3  -2  -9    0.80    0.36
  -3   2  -9    1.07    0.38
   3   2   9    0.97    0.39
  -3   2  -9    0.75    0.28
  -4   2   9   10.94    0.85
   4  -2   9   11.09    0.95
  -4   2   9   10.49    0.82
   4   2  -9   10.86    0.89
   4  -2   9   11.55    0.89
   4   2  -9   10.33    0.99
  -4  -2  -9   10.19    1.03
   4   2   9   10.70    0.84
   4  -2  -9   12.01    0.96
  -4   2  -9   12.16    0.94
  -4  -2   9   11.35    0.87
   4   2   9   11.91    0.91
  -4   2  -9   10.37    0.73
  -5  -2  -9    5.48    0.82
  -5   2   9    5.51    0.71
   5   2  -9    8.39    0.96
   5  -2   9    6.99    0.76
   5   2  -9    4.02    0.67
  -5   2   9    6.01    0.72
   5  -2   9    4.18    0.66
   5   2   9    5.93    0.80
   5   2   9    5.18    0.68
  -5   2  -9    6.74    0.86
   5  -2  -9    5.01    0.79
  -5   2  -9    5.78    0.65
  -5  -2   9    5.59    0.70
  -6   2   9   13.30    1.04
  -6  -2  -9   11.52    1.17
   6   2  -9   10.16    1.05
   6   2  -9   13.11    1.08
   6  -2   9   11.79    0.88
  -6   2   9   12.37    0.94
   6  -2   9   13.64    1.25
   6   2   9   10.65    0.89
  -6  -2   9   11.61    0.93
   6  -2  -9   13.30    1.29
  -6   2  -9   11.68    0.86
  -6   2  -9   12.74    1.05
   6   2   9   12.60    1.10
   7  -2   9    7.55    1.02
   7   2  -9    7.90    1.05
  -7   2   9    8.59    0.98
  -7  -2  -9    6.71    0.97
   7  -2  -9    7.53    1.01
  -7   2  -9    6.88    0.95
  -7  -2   9    8.14    0.86
  -7   2  -9    9.45    0.90
  -7  -2   9    5.97    0.86
   7   2   9    8.92    1.12
   8   2  -9    4.79    0.88
   8  -2   9    4.82    0.90
  -8  -2  -9    4.03    0.82
  -8   2   9    3.96    0.77
  -8   2  -9    4.35    0.82
   8  -2  -9    3.54    0.81
   8   2   9    3.97    0.83
  -8  -2   9    2.92    0.70
  -9   2   9    0.96    0.54
   9  -2   9    0.42    0.61
  -9  -2  -9    0.32    0.58
   9   2  -9    1.23    0.63
   9   2   9    0.64    0.63
  -9  -2   9    0.72    0.54
  -9   2  -9    1.59    0.66
   9  -2  -9    0.27    0.60
  10   2  -9    3.61    0.92
  10  -2   9    3.20    0.95
 -10   2   9    2.29    0.72
 -10  -2  -9    1.73    0.75
  10   2   9    3.14    0.90
 -10  -2   9    2.29    0.72
  10  -2  -9    2.67    0.86
 -10   2  -9    1.53    0.74
 -11   2   9    0.11    0.58
  11  -2   9    0.02    0.69
 -11  -2  -9    0.26    0.68
  11   2  -9    0.43    0.62
  11  -2  -9    1.28    0.74
 -11  -2   9    0.73    0.60
  11   2   9    0.88    0.81
 -11   2  -9    0.68    0.63
 -12   2   9    2.92    0.95
  12  -2   9    3.91    1.10
 -12  -2  -9    2.80    0.99
  12   2  -9    3.76    1.08
  12  -2  -9    2.50    0.97
  12   2   9    3.46    1.04
 -12  -2   9    1.71    0.76
 -12   2  -9    2.25    0.90
   0   3   9    0.92    0.26
   0  -3  -9    0.55    0.33
   0   3  -9    0.97    0.34
   0   3  -9    1.60    0.39
   0   3   9    1.19    0.43
   0  -3   9    1.22    0.25
   0  -3   9    0.78    0.37
   0  -3  -9    1.79    0.32
   1   3  -9    9.92    0.77
   1  -3   9    9.41    0.87
   1   3  -9    8.86    0.73
  -1  -3  -9    9.23    0.53
  -1  -3  -9   10.30    1.02
  -1   3   9    8.48    0.60
   1  -3   9    8.05    0.57
  -1   3   9    9.69    0.91
  -1  -3   9    7.94    0.78
   1  -3  -9    9.28    0.55
   1   3   9    9.45    0.65
  -1   3  -9   10.24    0.74
  -1  -3   9    9.80    0.43
  -1   3  -9    9.08    0.74
   1   3   9    9.33    0.79
   1  -3  -9   11.28    0.90
   2   3  -9    8.66    0.85
   2   3  -9    9.77    0.76
   2  -3   9    9.61    0.68
  -2  -3  -9    9.38    0.97
  -2   3   9    8.99    0.85
  -2  -3  -9    9.56    0.50
  -2   3   9   10.62    0.71
   2  -3   9    8.61    0.81
   2  -3  -9    9.44    0.96
  -2   3  -9    9.36    0.80
   2  -3  -9    9.72    0.51
   2   3   9    8.85    0.85
  -2   3  -9    9.32    0.71
  -2  -3   9   10.68    0.93
   2   3   9    9.24    0.69
   3   3  -9   38.15    1.67
  -3  -3  -9   36.09    1.71
   3  -3   9   39.75    1.51
   3  -3   9   39.93    1.61
  -3   3   9   39.27    1.51
   3   3  -9   39.72    1.63
  -3   3   9   37.06    1.57
   3  -3  -9   38.67    1.76
   3   3   9   44.60    1.68
   3   3   9   41.60    1.66
  -3   3  -9   38.31    1.49
  -3  -3   9   41.22    1.66
  -3   3  -9   41.48    1.68
  -4   3   9   11.62    0.86
  -4   3   9   12.02    0.88
  -4  -3  -9   14.08    1.06
   4   3  -9   13.02    0.94
   4  -3   9   13.92    0.95
   4  -3   9   12.04    0.90
   4   3  -9   12.03    0.98
   4  -3  -9   12.55    1.00
   4   3   9   11.15    0.89
  -4  -3   9   11.89    0.92
   4   3   9   11.83    0.93
  -4   3  -9   12.02    0.91
  -4   3  -9   11.51    0.81
   5  -3   9    6.33    0.73
  -5  -3  -9    4.87    0.76
  -5   3   9    5.53    0.73
   5   3  -9    5.88    0.79
   5   3  -9    6.64    0.83
   5  -3   9    6.04    0.78
  -5   3   9    6.34    0.74
   5  -3  -9    6.06    0.82
  -5   3  -9    6.20    0.80
   5   3   9    6.53    0.84
  -5   3  -9    8.32    0.79
  -5  -3   9    6.40    0.76
   5   3   9    6.85    0.76
   6   3  -9    8.12    1.03
   6   3  -9    7.67    0.92
  -6   3   9   10.12    1.03
   6  -3   9    7.36    0.92
  -6  -3  -9    6.86    0.96
   6  -3   9    8.32    0.89
  -6   3   9    7.62    0.83
   6   3   9    9.72    0.88
   6   3   9    7.21    0.95
  -6   3  -9   11.94    1.14
  -6  -3   9    9.96    0.94
   6  -3  -9    9.51    1.08
  -6   3  -9   10.18    0.92
   7   3  -9    3.22    0.74
  -7   3   9    3.29    0.67
  -7  -3  -9    3.16    0.75
   7  -3   9    2.73    0.71
  -7   3  -9    2.97    0.59
  -7  -3   9    1.73    0.53
  -7   3  -9    2.53    0.64
   7   3   9    2.26    0.53
   7   3   9    2.58    0.69
   7  -3  -9    2.35    0.70
   8  -3   9    3.19    0.82
  -8  -3  -9    5.08    0.93
  -8   3   9    2.96    0.72
   8   3  -9    2.95    0.72
  -8   3  -9    5.47    0.90
  -8  -3   9    6.13    0.91
  -8   3  -9    4.53    0.71
   8  -3  -9    3.72    0.82
   8   3   9    3.71    0.84
   9   3  -9   16.58    1.42
   9  -3   9   11.84    1.40
  -9   3   9   13.67    1.37
  -9  -3  -9   14.26    1.54
  -9   3  -9   13.34    1.41
  -9  -3   9   10.99    1.25
   9  -3  -9   12.92    1.45
   9   3   9   12.93    1.42
  10  -3   9   13.53    1.60
 -10  -3  -9   15.26    1.63
 -10   3   9   11.75    1.33
  10   3  -9   12.87    1.48
  10   3   9   12.13    1.47
 -10   3  -9   12.37    1.42
  10  -3  -9   14.91    1.60
 -10  -3   9   12.89    1.38
 -11   3   9    3.78    0.91
  11  -3   9    1.60    0.88
  11   3  -9    2.91    0.87
 -11  -3  -9    3.34    0.95
 -11  -3   9    4.11    0.95
 -11   3  -9    3.22    0.93
  11   3   9    3.44    1.02
  11  -3  -9    4.63    1.07
  12  -3   9    7.53    1.33
 -12  -3  -9    7.45    1.37
  12   3  -9    9.22    1.49
 -12   3   9    6.77    1.20
  12   3   9    6.33    1.39
 -12   3  -9   11.78    1.59
 -12  -3   9    8.75    1.28
  12  -3  -9    7.95    1.45
   0  -4  -9   19.67    1.19
   0   4  -9   22.25    1.14
   0   4  -9   20.48    1.06
   0   4   9   20.29    0.83
   0  -4  -9   19.56    0.95
   0  -4   9   19.95    0.81
   0   4   9   20.46    1.14
   0  -4   9   20.78    1.12
  -1   4   9    2.31    0.36
  -1  -4  -9    1.87    0.54
   1  -4   9    2.00    0.47
   1   4  -9    2.47    0.46
   1   4  -9    2.15    0.50
  -1   4   9    2.51    0.51
   1  -4   9    2.14    0.36
   1   4   9    0.93    0.39
   1   4   9    2.49    0.29
   1  -4  -9    1.01    0.39
   1   4   9    1.44    0.33
  -1   4  -9    1.34    0.37
  -1  -4   9    1.53    0.25
   1  -4  -9    1.24    0.28
  -1   4  -9    1.55    0.40
  -1  -4   9    1.74    0.45
  -2  -4  -9    8.79    0.96
   2   4  -9    8.83    0.84
   2  -4   9    7.90    0.81
   2  -4   9    7.26    0.63
  -2   4   9    8.30    0.85
  -2   4   9    8.52    0.65
   2   4  -9    8.70    0.89
   2   4   9    9.00    0.87
  -2  -4   9    6.82    0.74
  -2   4  -9    7.41    0.78
   2  -4  -9    7.65    0.52
   2   4   9    8.52    0.71
  -2   4  -9    9.26    0.73
   2  -4  -9    7.35    0.84
   3  -4   9    7.23    0.76
  -3   4   9    8.57    0.76
   3   4  -9    9.17    0.77
   3   4  -9    8.15    0.90
   3  -4   9    8.78    0.74
  -3   4   9    9.92    0.81
  -3  -4  -9    7.39    0.86
  -3  -4   9    7.03    0.75
   3   4   9    7.82    0.79
  -3   4  -9    8.88    0.76
   3  -4  -9    8.98    0.95
   3   4   9    6.64    0.74
  -3   4  -9    8.48    0.70
   4   4  -9   14.15    1.05
  -4   4   9   14.69    0.97
  -4  -4  -9   12.68    1.05
   4   4  -9   12.40    0.93
  -4   4   9   12.09    0.89
   4  -4   9   13.75    0.97
   4  -4   9   13.33    0.96
  -4   4  -9   13.90    0.95
   4   4   9   12.60    0.96
  -4   4  -9   12.21    0.87
  -4  -4   9   10.80    0.93
   4  -4  -9   12.23    1.02
   4   4   9   13.49    0.98
   5  -4   9   18.06    1.09
   5   4  -9   18.40    1.16
   5  -4   9   18.89    1.19
  -5   4   9   15.57    1.07
  -5   4   9   19.67    1.11
  -5  -4  -9   15.26    1.16
   5   4  -9   16.42    1.19
  -5   4  -9   19.54    1.11
  -5   4  -9   20.21    1.20
   5   4   9   18.08    1.22
   5   4   9   19.87    1.16
   5  -4  -9   18.16    1.27
  -5  -4   9   18.72    1.16
   6  -4   9   21.31    1.39
  -6   4   9   24.53    1.38
   6   4  -9   24.14    1.42
   6   4  -9   23.04    1.45
  -6   4   9   24.25    1.26
  -6  -4  -9   22.08    1.48
  -6   4  -9   24.82    1.28
  -6  -4   9   22.95    1.29
  -6   4  -9   23.27    1.38
   6   4   9   22.53    1.27
   6   4   9   24.58    1.50
   6  -4  -9   22.27    1.48
  -7   4   9   -0.23    0.39
  -7  -4  -9    0.63    0.52
   7   4  -9    0.12    0.42
   7   4  -9    0.28    0.42
   7  -4   9    0.08    0.47
   7  -4  -9    0.25    0.46
  -7  -4   9    0.33    0.42
   7   4   9    0.61    0.49
  -7   4  -9   -0.09    0.36
   7   4   9    0.35    0.41
  -7   4  -9    0.23    0.36
  -8   4   9    7.28    1.00
   8  -4   9    6.79    1.02
  -8  -4  -9    4.54    0.90
   8   4  -9    8.13    1.07
   8  -4  -9    4.85    0.92
   8   4   9    5.00    0.94
  -8  -4   9    5.54    0.88
  -8   4  -9    6.69    0.88
  -8   4  -9    5.11    0.86
  -9   4   9    7.59    1.07
  -9  -4  -9    9.14    1.32
   9  -4   9    4.16    0.92
   9   4  -9    8.65    1.24
  -9   4  -9    5.50    0.93
   9   4   9    7.58    1.23
  -9  -4   9    6.45    0.96
   9  -4  -9    5.68    1.08
  -9   4  -9    5.74    0.89
 -10  -4  -9    0.38    0.57
 -10   4   9    0.25    0.56
  10   4  -9    0.70    0.59
  10  -4   9    1.46    0.81
  10   4   9   -0.17    0.63
 -10  -4   9    0.33    0.49
  10  -4  -9    1.47    0.75
 -10   4  -9    0.31    0.57
  11  -4   9    9.64    1.42
 -11  -4  -9   10.84    1.56
 -11   4   9   10.95    1.41
  11   4  -9   16.35    1.79
  11   4   9   15.02    1.74
  11  -4  -9   14.65    1.70
 -11  -4   9   13.78    1.54
 -11   4  -9   13.56    1.57
   0  -5   9    0.02    0.32
   0   5   9   -0.09    0.18
   0  -5   9    0.21    0.22
   0   5   9   -0.12    0.29
   0  -5  -9   -0.23    0.26
   0   5  -9   -0.13    0.21
   0   5  -9    0.09    0.20
   0  -5  -9   -0.13    0.21
  -1  -5  -9    3.39    0.65
   1  -5   9    2.75    0.53
  -1   5   9    0.95    0.41
   1  -5   9    2.34    0.40
  -1   5   9    1.94    0.35
   1   5  -9    2.28    0.48
   1   5  -9    2.88    0.48
  -1   5  -9    1.56    0.43
   1  -5  -9    1.97    0.51
  -1  -5   9    2.25    0.53
   1   5   9    1.87    0.46
  -1  -5   9    2.66    0.33
   1  -5  -9    2.50    0.40
   1   5   9    2.35    0.44
  -1   5  -9    2.56    0.44
  -2   5   9    2.11    0.49
   2  -5   9    1.94    0.45
   2   5  -9    1.37    0.46
  -2  -5  -9    1.78    0.52
  -2   5   9    2.29    0.39
   2  -5   9    1.40    0.38
   2   5  -9    2.04    0.41
  -2   5  -9    0.89    0.35
  -2  -5   9    0.00    0.35
   2   5   9    0.78    0.34
  -2   5  -9    0.74    0.35
   2  -5  -9    0.83    0.29
   2   5   9    0.32    0.34
   2  -5  -9    1.28    0.44
   3  -5   9    9.76    0.89
  -3  -5  -9    9.09    1.00
   3   5  -9    9.92    1.00
   3  -5   9    9.75    0.81
  -3   5   9   10.15    0.84
  -3   5   9   11.33    0.79
   3   5  -9   10.11    0.79
   3   5   9    8.92    0.87
   3  -5  -9   12.01    0.98
  -3   5  -9   12.05    0.87
   3   5   9   11.98    0.92
  -3   5  -9    9.96    0.81
   3  -5  -9   10.13    0.65
  -3  -5   9    9.12    0.86
  -4   5   9   63.03    2.15
   4   5  -9   65.06    2.26
  -4   5   9   65.92    2.22
   4  -5   9   62.96    2.24
   4   5  -9   60.33    2.38
   4  -5   9   64.58    2.18
  -4  -5  -9   62.96    2.47
  -4   5  -9   64.47    2.21
  -4  -5   9   63.80    2.27
   4   5   9   65.41    2.26
  -4   5  -9   65.49    2.25
   4   5   9   62.67    2.35
   4  -5  -9   59.10    2.39
   5   5  -9    8.97    0.94
   5  -5   9    8.88    0.95
   5  -5   9   10.61    0.97
  -5   5   9    7.88    0.82
   5   5  -9    7.16    0.92
  -5   5   9    9.25    0.94
  -5  -5  -9    8.47    1.02
  -5  -5   9    8.93    0.94
   5  -5  -9    8.09    0.97
  -5   5  -9    9.67    0.94
   5   5   9    8.49    0.89
  -5   5  -9    9.07    0.93
   5   5   9    9.13    1.01
   6   5  -9    5.11    0.80
  -6   5   9    4.54    0.67
   6  -5   9    4.45    0.77
   6   5  -9    3.09    0.71
  -6   5   9    5.20    0.76
  -6  -5  -9    5.74    0.92
   6  -5  -9    5.06    0.87
  -6   5  -9    4.51    0.70
  -6   5  -9    3.92    0.71
   6   5   9    4.62    0.82
  -6  -5   9    3.40    0.67
   6   5   9    3.79    0.66
   7   5  -9    1.58    0.61
   7  -5   9    1.95    0.64
   7   5  -9    1.57    0.55
  -7  -5  -9    2.08    0.65
  -7   5   9    2.09    0.61
   7   5   9    1.34    0.54
   7  -5  -9    2.09    0.65
  -7  -5   9    2.45    0.60
  -7   5  -9    1.74    0.52
  -7   5  -9    2.16    0.59
   7   5   9    0.71    0.46
   8   5  -9    0.87    0.53
  -8   5   9    0.38    0.48
   8  -5   9    0.31    0.59
  -8  -5  -9    0.58    0.53
   8   5   9    0.78    0.53
  -8  -5   9    0.85    0.50
   8  -5  -9    0.59    0.56
  -8   5  -9    0.07    0.40
  -8   5  -9    0.53    0.44
  -9   5   9    5.61    0.95
   9   5  -9    5.22    0.94
   9  -5   9    5.09    0.96
  -9  -5  -9    4.26    0.98
  -9   5  -9    7.20    0.99
  -9   5  -9    6.97    1.04
   9  -5  -9    4.03    0.92
   9   5   9    6.19    1.05
  -9  -5   9    5.42    0.90
 -10   5   9   27.06    1.85
  10  -5   9   29.18    2.10
 -10  -5  -9   28.63    2.04
  10   5  -9   30.48    2.01
 -10  -5   9   29.52    1.86
  10   5   9   29.92    2.15
 -10   5  -9   25.62    1.84
  10  -5  -9   29.45    2.10
  11   5  -9    2.00    0.81
 -11  -5  -9    4.39    1.07
  11  -5   9    0.63    0.86
 -11   5   9    1.85    0.77
  11   5   9    3.39    1.02
 -11   5  -9    2.91    0.90
  11  -5  -9    3.89    0.99
 -11  -5   9    3.54    0.91
   0   6  -9   10.57    0.73
   0   6  -9   10.17    0.97
   0  -6  -9   11.30    1.12
   0   6   9   10.05    0.98
   0  -6  -9    9.23    0.75
   0  -6   9    9.43    0.64
   0  -6   9    9.68    0.91
   1   6  -9   15.12    1.06
  -1   6   9   13.73    0.98
   1   6  -9   14.82    0.85
  -1   6   9   13.64    0.74
  -1  -6  -9   13.03    0.92
   1  -6   9   15.52    1.03
   1  -6   9   15.92    0.86
  -1  -6  -9   15.05    1.14
   1  -6  -9   13.62    1.05
  -1  -6   9   14.33    0.73
   1   6   9   12.92    0.98
  -1   6  -9   14.12    0.98
  -1   6  -9   13.11    0.82
   1  -6  -9   14.06    0.84
  -1  -6   9   12.71    0.98
  -2  -6  -9    5.40    0.80
   2  -6   9    5.67    0.65
  -2   6   9    6.23    0.60
  -2   6   9    6.29    0.75
   2  -6   9    5.94    0.72
   2   6  -9    6.40    0.67
   2   6  -9    4.76    0.70
   2  -6  -9    6.42    0.63
   2  -6  -9    6.20    0.82
  -2  -6   9    5.56    0.75
   2   6   9    4.83    0.69
  -2   6  -9    6.33    0.70
  -2   6  -9    5.78    0.71
   2   6   9    5.22    0.69
   3   6  -9    0.34    0.28
   3  -6   9    0.25    0.35
   3   6  -9   -0.03    0.30
  -3   6   9    0.25    0.31
  -3   6   9    0.19    0.31
   3  -6   9    0.19    0.34
  -3  -6  -9    0.76    0.42
   3  -6  -9    0.87    0.41
  -3   6  -9    0.23    0.31
   3  -6  -9    0.54    0.27
   3   6   9    0.42    0.35
   3   6   9   -0.17    0.36
  -3  -6   9    0.15    0.35
  -3   6  -9    0.46    0.32
   4   6  -9    3.28    0.57
   4   6  -9    2.66    0.64
  -4   6   9    2.01    0.49
   4  -6   9    2.34    0.54
   4  -6   9    3.97    0.65
  -4   6   9    2.55    0.52
  -4  -6  -9    2.34    0.59
  -4   6  -9    3.58    0.63
   4   6   9    3.04    0.61
  -4  -6   9    2.57    0.57
  -4   6  -9    3.57    0.58
   4  -6  -9    3.31    0.67
   4   6   9    2.15    0.57
  -5  -6  -9   76.44    2.91
   5  -6   9   81.74    2.81
   5   6  -9   77.39    2.67
  -5   6   9   79.59    2.56
   5  -6   9   81.57    2.58
  -5   6   9   80.31    2.64
   5   6  -9   81.81    2.92
   5  -6  -9   73.37    2.77
  -5   6  -9   72.74    2.54
   5   6   9   77.11    2.81
   5   6   9   75.31    2.56
  -5   6  -9   74.56    2.52
  -5  -6   9   74.07    2.58
  -6   6   9    1.39    0.46
   6   6  -9    1.49    0.51
  -6  -6  -9    1.56    0.58
  -6   6   9    1.91    0.58
   6  -6   9    2.37    0.60
   6   6  -9    2.24    0.68
  -6   6  -9    1.60    0.52
   6   6   9    1.18    0.53
  -6   6  -9    1.15    0.44
   6  -6  -9    1.50    0.57
   6   6   9    1.23    0.54
  -6  -6   9    0.93    0.51
  -7   6   9    1.08    0.53
   7   6  -9    0.93    0.50
  -7  -6  -9    0.74    0.54
   7   6  -9    0.82    0.50
   7  -6   9    1.69    0.64
   7  -6  -9   -0.07    0.44
   7   6   9    0.53    0.43
  -7  -6   9    0.41    0.48
  -7   6  -9    0.20    0.42
   7   6   9    0.88    0.55
  -7   6  -9    0.60    0.49
   8   6  -9   13.17    1.31
  -8  -6  -9   16.30    1.64
  -8   6   9   11.65    1.24
   8   6  -9   12.54    1.34
   8  -6   9   11.33    1.28
   8   6   9   12.63    1.41
  -8   6  -9   13.19    1.28
   8  -6  -9   15.45    1.53
  -8  -6   9   12.74    1.22
  -8   6  -9   13.00    1.29
  -9   6   9    5.29    0.99
   9   6  -9    3.01    0.82
  -9  -6  -9    3.72    0.92
   9  -6   9    2.82    0.83
  -9  -6   9    2.88    0.74
   9  -6  -9    4.90    1.00
   9   6   9    3.73    0.92
  -9   6  -9    3.86    0.80
 -10   6   9    1.07    0.70
 -10  -6  -9    0.76    0.69
  10  -6   9    2.32    0.86
  10   6  -9    1.44    0.70
  10   6   9    1.83    0.77
 -10  -6   9    1.04    0.59
  10  -6  -9    0.41    0.66
 -10   6  -9    1.07    0.63
 -11   6   9   10.89    1.41
 -11  -6  -9   15.30    1.79
  11  -6   9   11.93    1.53
  11   6  -9   10.83    1.48
  11  -6  -9   16.18    1.82
 -11  -6   9   12.60    1.45
  11   6   9   11.56    1.58
   0  -7   9    4.88    0.72
   0   7  -9    4.59    0.72
   0  -7   9    4.95    0.55
   0  -7  -9    3.80    0.59
   0   7   9    5.02    0.73
   0   7  -9    5.76    0.62
   0  -7  -9    5.38    0.81
  -1  -7  -9   31.39    1.47
   1  -7   9   32.18    1.32
  -1   7   9   30.10    1.27
   1   7  -9   30.98    1.25
   1  -7   9   30.79    1.47
   1   7  -9   33.45    1.61
  -1   7   9   30.67    1.50
  -1  -7  -9   33.57    1.70
  -1   7  -9   32.59    1.54
  -1  -7   9   33.21    1.25
   1  -7  -9   31.11    1.38
  -1  -7   9   32.01    1.51
   1   7   9   32.15    1.53
   1  -7  -9   30.91    1.63
  -2   7   9    3.06    0.49
  -2  -7  -9    1.94    0.55
   2   7  -9    3.28    0.49
   2  -7   9    2.87    0.51
   2   7  -9    2.17    0.56
   2  -7   9    2.92    0.58
  -2   7   9    2.26    0.51
  -2   7  -9    0.88    0.43
  -2  -7   9    1.45    0.47
   2  -7  -9    1.32    0.37
   2   7   9    1.81    0.46
   2  -7  -9    1.64    0.52
   2   7   9    0.97    0.46
  -3   7   9    7.14    0.74
  -3  -7  -9    2.56    0.62
  -3   7   9    6.49    0.79
   3  -7   9    6.42    0.75
   3   7  -9    5.82    0.69
   3   7  -9    5.16    0.80
   3  -7   9    5.80    0.72
   3  -7  -9    5.54    0.64
   3  -7  -9    6.38    0.88
  -3   7  -9    5.07    0.70
   3   7   9    5.60    0.79
  -3  -7   9    5.63    0.77
   3   7   9    6.79    0.82
   4  -7   9   28.82    1.48
  -4  -7  -9   26.92    1.59
   4  -7   9   26.74    1.36
   4   7  -9   24.43    1.49
   4   7  -9   29.90    1.38
  -4   7   9   29.18    1.41
  -4   7   9   26.42    1.36
   4   7   9   26.10    1.42
   4   7   9   26.58    1.51
  -4  -7   9   27.53    1.46
   4  -7  -9   27.36    1.57
  -4   7  -9   25.87    1.41
  -5  -7  -9    3.04    0.72
   5   7  -9    3.36    0.71
  -5   7   9    3.17    0.60
   5  -7   9    2.50    0.56
  -5   7   9    3.23    0.63
   5   7  -9    3.34    0.64
   5  -7   9    3.56    0.71
   5  -7  -9    4.99    0.84
   5   7   9    3.67    0.76
  -5  -7   9    4.85    0.78
   5   7   9    3.98    0.69
  -5   7  -9    3.24    0.64
  -6   7   9   11.33    1.12
   6   7  -9    9.79    1.14
   6  -7   9   11.08    1.16
   6   7  -9    9.97    1.04
  -6  -7  -9   10.37    1.20
   6   7   9    8.72    1.09
  -6   7  -9   11.37    1.13
   6   7   9    9.35    0.99
   6  -7  -9   11.22    1.20
  -6  -7   9    8.25    0.98
   7   7  -9   10.38    1.21
  -7   7   9   12.05    1.22
  -7  -7  -9    8.98    1.17
   7   7  -9   13.48    1.29
   7  -7   9   10.51    1.17
  -7   7  -9   12.09    1.22
   7   7   9   12.14    1.16
  -7  -7   9   13.25    1.21
   7  -7  -9   11.57    1.28
   7   7   9   10.15    1.23
   8   7  -9    0.61    0.50
   8   7  -9    0.25    0.50
  -8  -7  -9   -0.03    0.53
  -8   7   9    0.38    0.55
   8  -7   9    0.98    0.69
   8   7   9    0.35    0.59
   8  -7  -9    0.07    0.53
  -8   7  -9    0.27    0.48
  -8  -7   9    0.65    0.56
  -9   7   9    2.36    0.79
  -9  -7  -9    1.49    0.72
   9  -7   9    2.53    0.83
   9   7  -9    1.82    0.69
   9   7   9    2.67    0.83
   9  -7  -9    1.50    0.74
  -9   7  -9    1.97    0.71
  10  -7   9   16.39    1.72
 -10   7   9   20.26    1.94
  10   7  -9   18.69    1.77
 -10  -7  -9   22.11    1.84
 -10   7  -9   18.96    1.58
  10  -7  -9   20.82    2.01
 -10  -7   9   21.10    1.59
  10   7   9   21.23    1.85
 -11   7   9    4.10    1.01
 -11  -7  -9    3.88    1.12
  11  -7   9    3.10    1.02
  11   7  -9    3.98    1.07
 -11  -7   9    3.18    0.92
  11  -7  -9    4.53    1.17
 -11   7  -9    3.14    0.90
  11   7   9    2.36    0.92
   0  -8  -9  124.94    3.91
   0  -8   9  133.62    3.49
   0  -8  -9  122.93    3.68
   0   8  -9  129.50    3.80
   0  -8   9  123.22    3.66
   0   8   9  124.03    3.71
   1   8  -9    2.86    0.61
   1  -8   9    5.04    0.64
   1  -8   9    4.03    0.68
  -1   8   9    4.64    0.70
  -1  -8  -9    4.90    0.80
  -1  -8  -9    4.65    0.71
  -1  -8   9    3.30    0.65
   1  -8  -9    4.79    0.67
   1  -8  -9    3.42    0.69
  -1   8  -9    3.97    0.65
   1   8   9    5.69    0.79
  -2   8   9    6.25    0.80
  -2  -8  -9    5.16    0.77
   2   8  -9    5.46    0.81
   2  -8   9    5.54    0.73
  -2  -8  -9    5.84    0.88
  -2   8   9    6.19    0.66
   2  -8   9    6.45    0.73
   2   8   9    3.93    0.69
  -2   8  -9    6.27    0.80
   2  -8  -9    6.02    0.84
   2  -8  -9    5.15    0.67
  -2  -8   9    5.78    0.76
   3  -8   9    0.32    0.40
   3  -8   9    0.07    0.36
   3   8  -9    0.20    0.39
  -3   8   9    0.40    0.36
  -3  -8  -9   -0.07    0.36
  -3   8   9    0.20    0.37
   3  -8  -9    0.41    0.34
  -3   8  -9    0.22    0.32
   3   8   9   -0.09    0.39
  -3  -8   9    0.31    0.45
   3  -8  -9   -0.13    0.33
   3   8   9    0.63    0.44
  -4   8   9   12.52    1.00
   4  -8   9   12.00    1.10
  -4   8   9   12.76    1.00
   4   8  -9   12.53    1.33
   4  -8   9   11.71    0.99
  -4  -8  -9   12.71    1.24
   4   8   9   11.64    1.10
   4   8   9   12.03    1.21
  -4   8  -9   12.84    1.17
   4  -8  -9   11.56    1.17
  -4  -8   9   11.24    1.07
  -5   8   9    6.11    0.80
  -5   8   9    6.68    0.86
   5  -8   9    5.75    0.85
   5   8  -9    5.38    0.91
   5  -8   9    5.24    0.73
  -5  -8  -9    4.90    0.88
   5  -8  -9    6.58    0.94
   5   8   9    4.98    0.78
  -5   8  -9    5.82    0.83
   5   8   9    4.81    0.82
  -5  -8   9    5.08    0.80
   6  -8   9   21.85    1.53
  -6  -8  -9   21.34    1.53
   6   8  -9   20.74    1.53
  -6   8   9   22.04    1.44
   6   8  -9   22.21    1.44
   6  -8  -9   22.65    1.54
   6   8   9   23.47    1.45
  -6   8  -9   21.18    1.43
   6   8   9   23.31    1.62
  -6  -8   9   23.77    1.46
  -7  -8  -9    3.96    0.88
   7   8  -9    3.46    0.74
   7  -8   9    2.93    0.81
  -7   8   9    3.39    0.77
   7   8  -9    2.71    0.71
   7  -8  -9    2.79    0.76
   7   8   9    3.99    0.74
  -7  -8   9    2.46    0.70
  -7   8  -9    3.25    0.76
   7   8   9    2.26    0.73
   8   8  -9    5.83    0.95
   8  -8   9    5.27    1.00
  -8   8   9    5.99    1.00
   8   8  -9    5.15    1.01
  -8  -8  -9    6.35    1.13
   8   8   9    6.03    1.05
  -8  -8   9    5.79    0.89
   8  -8  -9    5.41    0.99
  -8   8  -9    4.59    0.89
  -9  -8  -9    4.73    1.01
   9  -8   9    3.26    0.93
   9   8  -9    3.98    0.89
  -9   8   9    3.54    0.88
   9   8   9    4.20    0.96
   9  -8  -9    5.70    1.12
  -9   8  -9    3.80    0.87
 -10  -8  -9    0.95    0.73
  10  -8   9    0.83    0.78
 -10   8   9   -0.05    0.63
  10   8  -9    0.14    0.61
  10  -8  -9   -0.15    0.60
 -10  -8   9    1.71    0.73
  10   8   9    0.24    0.69
 -10   8  -9   -0.06    0.62
   0   9   9    0.07    0.41
   0  -9   9    0.97    0.40
   0   9  -9    0.22    0.37
   0  -9  -9    0.74    0.41
   0  -9  -9   -0.05    0.34
   0  -9   9   -0.10    0.42
  -1  -9  -9   11.23    1.11
   1   9  -9   12.03    1.19
   1  -9   9   12.78    0.96
  -1   9   9   12.39    1.04
   1  -9   9   12.04    1.03
  -1  -9  -9   14.13    1.33
  -1  -9   9   14.97    1.13
  -1   9  -9   14.10    1.10
   1   9   9   13.44    1.08
   1  -9  -9   14.23    1.15
   1  -9  -9   14.01    1.04
   2  -9   9   14.97    1.04
   2  -9   9   15.29    1.11
  -2  -9  -9   14.68    1.23
  -2   9   9   15.96    1.13
  -2  -9  -9   15.14    1.16
   2   9  -9   13.59    1.31
   2  -9  -9   13.97    1.14
   2  -9  -9   14.74    1.01
   2   9   9   14.29    1.14
  -2  -9   9   14.87    1.16
  -2   9  -9   14.35    1.11
  -3   9   9   13.81    1.06
  -3  -9  -9   13.89    1.20
   3   9  -9   13.68    1.34
   3  -9   9   12.73    1.05
  -3   9   9   13.79    0.99
   3  -9   9   12.13    1.04
   3  -9  -9   10.69    0.89
   3   9   9   10.26    1.05
   3  -9  -9   11.94    1.17
  -3   9  -9   12.92    1.06
  -3  -9   9   10.87    1.11
  -4   9   9    2.94    0.62
   4  -9   9    2.86    0.65
   4   9  -9    2.98    0.78
  -4   9   9    3.32    0.66
   4  -9   9    3.45    0.67
  -4  -9  -9    2.43    0.67
   4  -9  -9    3.39    0.61
  -4   9  -9    3.87    0.73
   4   9   9    2.75    0.66
  -4  -9   9    4.62    0.80
   4  -9  -9    2.53    0.65
   4   9   9    3.85    0.77
  -5  -9  -9    3.82    0.81
  -5   9   9    3.21    0.62
  -5   9   9    2.18    0.61
   5  -9   9    2.94    0.71
   5   9  -9    2.83    0.72
  -5  -9   9    4.48    0.81
   5   9   9    6.10    0.93
   5  -9  -9    1.99    0.65
  -5   9  -9    5.21    0.83
   5   9   9    5.86    0.88
   6  -9   9    0.15    0.55
   6   9  -9    0.47    0.48
  -6   9   9    1.16    0.55
  -6  -9  -9    0.07    0.47
   6   9   9    0.60    0.55
  -6   9  -9    1.47    0.60
   6  -9  -9    0.01    0.46
   6   9   9    1.48    0.59
  -6  -9   9    0.13    0.55
   7  -9   9    6.15    1.00
  -7   9   9    4.48    0.87
   7   9  -9    4.43    0.89
  -7  -9  -9    5.22    0.94
  -7   9  -9    5.20    0.89
  -7  -9   9    6.30    0.94
   7   9   9    5.12    0.98
   7  -9  -9    4.71    0.89
   7   9   9    5.28    0.88
  -8   9   9    6.15    1.01
   8   9  -9    4.13    0.90
  -8  -9  -9    3.55    0.94
   8  -9   9    7.71    1.17
   8   9   9    5.67    1.07
   8  -9  -9    5.26    1.00
  -8  -9   9    6.21    0.97
  -8   9  -9    6.28    1.03
   8   9   9    7.19    1.04
  -9  -9  -9    5.84    1.10
   9   9  -9    7.06    1.15
  -9   9   9    6.52    1.13
   9  -9   9    6.70    1.18
   9  -9  -9    7.02    1.20
   9   9   9    5.87    1.16
  -9   9  -9    6.13    1.02
  10  -9   9    6.03    1.23
 -10   9   9    6.03    1.14
 -10  -9  -9    8.85    1.45
 -10  -9   9    8.90    1.27
  10   9   9   10.21    1.57
  10  -9  -9    9.98    1.45
 -10   9  -9    8.73    1.28
   0 -10  -9   27.53    1.59
   0 -10  -9   22.15    1.37
   0  10   9   26.67    1.49
   0 -10   9   27.74    1.54
   0  10  -9   23.45    1.48
   0 -10   9   24.30    1.27
   1 -10   9   25.25    1.35
   1  10  -9   25.85    1.56
  -1  10   9   23.41    1.43
  -1 -10  -9   21.83    1.39
  -1 -10  -9   26.13    1.58
   1 -10   9   23.96    1.45
  -1  10  -9   24.64    1.45
  -1 -10   9   24.64    1.48
   1 -10  -9   22.82    1.47
   1  10   9   24.15    1.46
   1 -10  -9   22.98    1.38
  -2 -10  -9    0.53    0.50
  -2 -10  -9   -0.46    0.33
   2 -10   9    0.69    0.46
  -2  10   9   -0.57    0.32
   2 -10   9    0.17    0.43
   2  10  -9    0.59    0.46
  -2  10  -9    0.41    0.38
  -2 -10   9    0.08    0.43
   2 -10  -9    0.39    0.36
   2 -10  -9    0.60    0.44
   2  10   9    0.36    0.47
   3  10  -9   10.33    1.25
  -3 -10  -9    9.00    1.15
  -3  10   9    8.69    0.96
   3 -10   9   10.61    1.06
   3 -10   9    8.98    0.98
  -3 -10  -9   10.47    1.16
   3 -10  -9   11.19    1.07
  -3  10  -9    9.81    1.12
  -3 -10   9   12.71    1.22
   3 -10  -9   10.34    1.13
   3  10   9   12.51    1.18
   4 -10   9    1.04    0.54
  -4 -10  -9    1.39    0.59
   4 -10   9    1.05    0.54
  -4  10   9    1.00    0.50
  -4  10   9    0.69    0.46
   4  10  -9    0.72    0.56
   4 -10  -9    1.39    0.51
   4  10   9    0.86    0.56
   4 -10  -9    0.23    0.46
  -4 -10   9    1.39    0.59
  -4  10  -9    0.12    0.44
   5  10  -9    0.95    0.55
  -5  10   9    1.68    0.55
  -5  10   9    2.56    0.66
   5 -10   9    2.69    0.73
  -5 -10  -9    3.48    0.77
   5 -10  -9    1.81    0.63
   5  10   9    1.76    0.62
  -5 -10   9    3.59    0.77
  -5  10  -9    2.07    0.65
   5  10   9    1.74    0.69
   6 -10   9   17.44    1.44
  -6 -10  -9   15.95    1.59
  -6  10   9   17.37    1.36
   6  10  -9   16.47    1.62
   6  10   9   15.49    1.53
   6 -10  -9   16.00    1.36
  -6 -10   9   16.88    1.51
   6  10   9   13.70    1.31
  -6  10  -9   16.83    1.52
   7  10  -9    5.60    1.04
  -7 -10  -9    7.06    1.10
   7 -10   9    6.01    1.04
  -7  10   9    5.00    0.94
  -7 -10   9    6.39    1.03
   7  10   9    5.04    1.05
  -7  10  -9    5.75    1.00
   7  10   9    6.10    0.99
   7 -10  -9    5.15    0.95
  -8  10   9    3.19    0.87
  -8 -10  -9    1.76    0.74
   8 -10   9    2.10    0.84
   8  10  -9    2.36    0.81
   8  10   9    0.62    0.60
  -8  10  -9    2.61    0.80
   8 -10  -9    3.49    0.91
  -8 -10   9    2.05    0.72
   8  10   9    1.03    0.74
  -9 -10  -9    3.89    1.02
  -9  10   9    3.82    0.95
   9 -10   9    4.10    1.01
   9  10  -9    2.96    0.88
  -9  10  -9    4.91    1.00
   9 -10  -9    4.00    0.98
   9  10   9    3.06    0.98
 -10 -10  -9    2.53    0.95
 -10  10   9    2.27    0.92
  10 -10   9    0.65    0.91
 -10  10  -9    2.66    0.88
  10 -10  -9    2.76    0.93
  10  10   9    0.83    0.85
   0  11  -9    2.87    0.68
   0  11   9    3.84    0.72
   0 -11  -9    4.42    0.80
   0 -11   9    3.97    0.64
   0 -11   9    3.37    0.72
   0 -11  -9    3.38    0.70
  -1 -11  -9    0.87    0.48
   1 -11   9    0.23    0.49
   1  11  -9    0.88    0.49
  -1  11   9    0.43    0.45
  -1 -11  -9   -0.26    0.37
   1 -11   9   -0.29    0.37
   1 -11  -9    0.99    0.47
  -1  11  -9    0.73    0.48
   1 -11  -9    0.88    0.48
  -1 -11   9    1.27    0.58
   1  11   9    1.68    0.57
  -2 -11  -9    3.40    0.78
   2 -11   9    4.47    0.80
   2 -11   9    4.57    0.79
  -2 -11  -9    2.65    0.73
   2  11  -9    5.23    0.93
  -2  11   9    3.03    0.70
  -2  11  -9    5.17    0.84
   2  11   9    5.57    0.91
   2 -11  -9    5.83    0.88
   2 -11  -9    4.04    0.73
  -2 -11   9    4.40    0.80
   3 -11   9    8.64    1.00
   3  11  -9   10.25    1.22
  -3 -11  -9   10.17    1.21
  -3  11   9    9.29    1.01
   3 -11   9   10.33    1.10
  -3 -11  -9    8.36    1.15
   3 -11  -9    7.74    1.01
   3 -11  -9   11.29    1.12
  -3 -11   9   11.43    1.18
   3  11   9    8.24    1.06
  -3  11  -9   11.03    1.22
   4 -11   9   18.62    1.31
   4  11  -9   21.44    1.61
  -4 -11  -9   20.03    1.48
  -4 -11  -9   18.22    1.50
  -4  11   9   20.02    1.29
   4 -11   9   18.36    1.45
  -4 -11   9   18.18    1.40
  -4  11  -9   19.28    1.43
   4 -11  -9   16.90    1.26
   4 -11  -9   15.93    1.28
   4  11   9   20.01    1.47
  -5  11   9   11.10    1.09
   5  11  -9    8.90    1.19
  -5 -11  -9   12.14    1.38
   5 -11   9   12.26    1.27
  -5  11   9    7.12    1.00
   5  11   9    8.02    1.12
  -5  11  -9    8.94    1.12
  -5 -11   9   11.89    1.30
   5 -11  -9   10.95    1.20
  -6 -11  -9    1.18    0.64
  -6  11   9    2.64    0.81
   6 -11   9    2.04    0.75
   6  11  -9    1.13    0.65
  -6 -11   9    3.25    0.81
   6  11   9    0.76    0.62
  -6  11  -9    1.11    0.62
   6  11   9    1.29    0.71
   6 -11  -9    1.03    0.61
  -7  11   9    0.96    0.69
   7 -11   9    0.17    0.67
   7  11  -9    0.45    0.59
  -7 -11  -9    0.15    0.51
  -7  11  -9    0.16    0.59
   7  11   9    0.14    0.57
  -7 -11   9   -0.22    0.61
   7  11   9    0.09    0.61
   7 -11  -9   -0.18    0.50
   8 -11   9   11.07    1.43
  -8  11   9   11.17    1.43
  -8 -11  -9    9.93    1.38
   8  11  -9    9.57    1.35
  -8 -11   9   10.40    1.29
  -8  11  -9   10.92    1.38
   8 -11  -9    9.35    1.27
   8  11   9   11.39    1.47
   8  11   9    8.12    1.12
  -9 -11  -9    0.78    0.66
   9 -11   9    1.61    0.92
  -9  11   9    0.96    0.81
   9  11  -9    0.50    0.68
  -9  11  -9    0.80    0.77
   9  11   9    0.80    0.78
   9 -11  -9    0.92    0.75
   0  12   9   -0.14    0.49
   0 -12  -9    0.38    0.43
   0 -12   9    0.05    0.43
   0 -12  -9    0.13    0.45
   0  12  -9    0.53    0.52
   0 -12   9    0.73    0.55
   1 -12   9   11.58    1.17
  -1 -12  -9    7.20    0.98
   1  12  -9   10.09    1.26
   1 -12   9    9.60    1.03
  -1 -12  -9   10.57    1.20
  -1  12   9    7.74    1.02
  -1 -12   9    9.84    1.18
   1 -12  -9    7.77    1.01
  -1  12  -9    8.02    1.09
   1 -12  -9    8.79    1.04
   1  12   9    7.51    1.04
   2 -12   9    6.88    0.94
   2  12  -9    7.84    1.11
   2 -12   9    9.97    1.11
  -2  12   9    9.30    1.10
  -2 -12  -9    9.79    1.22
  -2 -12  -9    9.84    1.21
   2 -12  -9    8.57    1.05
  -2 -12   9    7.16    1.06
   2  12   9    7.73    1.02
   2 -12  -9    6.70    0.95
  -2  12  -9    6.60    0.99
   3  12  -9    2.88    0.81
  -3  12   9    2.78    0.73
  -3 -12  -9    3.20    0.83
   3 -12   9    2.49    0.71
   3 -12   9    1.77    0.64
  -3 -12  -9    3.39    0.81
   3  12   9    2.30    0.74
  -3 -12   9    4.71    0.89
   3 -12  -9    3.03    0.71
  -3  12  -9    3.33    0.80
   3 -12  -9    2.92    0.70
   4 -12   9   24.08    1.67
   4 -12   9   26.61    1.56
  -4 -12  -9   24.12    1.69
   4  12  -9   25.92    1.78
  -4 -12  -9   23.89    1.69
  -4  12   9   23.61    1.51
   4  12   9   26.22    1.75
   4 -12  -9   21.08    1.49
   4 -12  -9   26.67    1.64
  -4  12  -9   23.29    1.62
  -4 -12   9   25.47    1.70
   5  12  -9    7.48    1.19
  -5 -12  -9    6.25    1.09
  -5 -12  -9    6.45    1.09
   5 -12   9    7.82    1.12
   5 -12  -9    7.38    1.05
  -5 -12   9    7.50    1.09
  -5  12  -9    7.13    1.05
   5  12   9    6.86    1.06
  -6  12   9    0.98    0.67
   6 -12   9    1.35    0.74
  -6 -12  -9    1.71    0.67
   6  12  -9    0.96    0.65
  -6  12  -9    0.61    0.60
   6  12   9    0.22    0.59
  -6 -12   9    0.90    0.65
  -7  12   9   18.81    1.72
  -7 -12  -9   19.94    1.67
   7 -12   9   15.96    1.66
   7  12  -9   14.60    1.57
   7  12   9   16.88    1.74
   7  12   9   15.84    1.60
  -7 -12   9   16.38    1.54
  -7  12  -9   16.61    1.66
   8  12  -9    1.07    0.75
  -8 -12  -9    2.20    0.78
   8 -12   9    0.99    0.74
  -8  12   9    1.17    0.80
  -8  12  -9    0.70    0.69
  -8 -12   9    2.09    0.86
   8  12   9    1.36    0.74
   8  12   9    1.28    0.82
   0 -13  -9    1.85    0.69
   0 -13   9    1.90    0.73
   0  13  -9    2.01    0.70
   0  13   9    2.49    0.73
   0 -13   9    2.26    0.69
   1  13  -9    1.76    0.69
   1 -13   9    0.43    0.49
   1 -13   9    0.55    0.60
  -1 -13  -9    0.99    0.56
  -1  13   9    1.31    0.60
  -1  13  -9    0.50    0.50
   1 -13  -9    0.46    0.54
   1  13   9    0.94    0.62
  -1 -13   9    0.73    0.64
  -2 -13  -9    3.59    0.85
  -2 -13  -9    2.72    0.83
   2 -13   9    3.42    0.76
  -2  13   9    2.69    0.70
   2 -13   9    2.84    0.76
   2  13  -9    4.32    0.92
  -2  13  -9    2.04    0.67
   2  13   9    3.37    0.87
   2 -13  -9    1.70    0.65
  -2 -13   9    2.56    0.79
   3 -13   9    5.41    0.94
  -3  13   9    8.28    1.05
   3  13  -9    6.48    1.08
  -3 -13  -9    9.14    1.22
  -3 -13  -9    9.48    1.25
   3 -13   9    8.19    1.10
   3  13   9    4.96    0.97
  -3 -13   9    8.13    1.19
  -3  13  -9    7.48    1.09
   3 -13  -9    6.78    0.99
   4  13  -9   16.05    1.70
  -4 -13  -9   15.21    1.64
   4 -13   9   15.85    1.33
   4 -13   9   16.73    1.55
  -4  13   9   14.15    1.22
  -4 -13  -9   15.46    1.60
  -4  13  -9   12.59    1.41
   4 -13  -9   14.08    1.37
  -4 -13   9   15.24    1.51
   4  13   9   12.82    1.43
   5  13  -9    1.77    0.75
  -5 -13  -9    1.82    0.73
  -5 -13  -9    1.51    0.70
   5 -13   9    1.91    0.78
  -5  13  -9    1.75    0.72
   5  13   9    2.52    0.81
  -5 -13   9    3.66    0.90
  -6 -13  -9    4.90    1.07
   6 -13   9    4.56    1.02
  -6 -13  -9    5.25    1.06
   6  13  -9    6.67    1.15
   6  13   9    2.98    0.86
  -6  13  -9    3.04    0.86
  -6 -13   9    3.03    0.90
  -7  13   9    0.02    0.67
  -7 -13  -9    1.02    0.75
   7 -13   9    0.31    0.77
  -7 -13  -9   -0.49    0.54
   7  13  -9    1.58    0.84
  -7  13  -9    0.35    0.64
   7  13   9    0.67    0.67
  -7 -13   9    0.75    0.70
  -8 -13  -9    5.86    1.19
   8 -13   9    5.38    1.17
   8  13  -9    4.86    1.09
  -8  13   9    4.33    1.09
  -8  13  -9    3.58    0.99
   8  13   9    2.71    0.81
  -8 -13   9    5.51    1.07
   0 -14   9    0.13    0.59
   0  14  -9    0.17    0.55
   0 -14  -9    0.84    0.61
   0  14   9    0.01    0.56
   1 -14   9    1.17    0.61
   1  14  -9    2.82    0.82
  -1  14   9    1.72    0.68
  -1 -14  -9    1.51    0.71
   1 -14   9    3.58    0.86
  -1  14  -9    1.89    0.68
  -1 -14   9    1.80    0.73
   1  14   9    1.65    0.73
   1 -14  -9    1.39    0.63
  -2  14   9   10.56    1.24
   2 -14   9    9.56    1.18
   2  14  -9   13.13    1.54
  -2 -14  -9    7.39    1.14
   2 -14   9   10.26    1.21
  -2  14  -9   11.15    1.38
  -2 -14   9   10.35    1.32
   2 -14  -9    9.43    1.25
   2  14   9   11.71    1.39
   3 -14   9   -0.16    0.59
   3 -14   9    0.49    0.62
  -3 -14  -9   -0.37    0.48
  -3  14   9   -0.58    0.49
   3  14  -9    0.11    0.58
  -3  14  -9    0.79    0.54
  -3 -14   9   -0.03    0.64
   3  14   9    0.33    0.63
   3 -14  -9    0.14    0.52
   4 -14   9   20.79    1.61
  -4 -14  -9   19.64    1.66
   4  14  -9   17.59    1.76
  -4  14   9   17.34    1.45
   4  14   9   13.51    1.42
   4 -14  -9   16.25    1.58
  -4  14  -9   16.62    1.64
  -4 -14   9   15.95    1.55
   5  14  -9    2.40    0.84
   5 -14   9    0.05    0.68
  -5 -14  -9    1.34    0.74
  -5 -14   9    1.71    0.82
  -5  14  -9    2.18    0.78
   5  14   9   -0.22    0.65
   6  14  -9    1.83    0.81
  -6 -14  -9    2.46    0.87
   6 -14   9    2.85    0.92
  -6  14  -9    2.16    0.84
  -6 -14   9    3.37    0.96
   6  14   9    3.25    0.91
   7  14  -9    1.94    0.84
   7 -14   9    2.57    0.93
  -7 -14  -9    2.25    0.84
   7  14   9    1.66    0.80
  -7  14  -9    1.64    0.75
  -7 -14   9    2.06    0.86
   0 -15   9    5.30    1.01
   0 -15  -9    7.59    1.17
   0  15   9    6.44    1.10
   0  15  -9    5.18    1.05
   1 -15   9    0.28    0.56
  -1 -15  -9    0.70    0.66
   1 -15   9    0.60    0.72
   1  15  -9   -0.31    0.52
  -1  15   9   -0.13    0.54
   1  15   9    0.74    0.65
  -1 -15   9    1.49    0.78
  -1  15  -9    0.64    0.59
   1 -15  -9    0.37    0.54
   2 -15   9   -0.62    0.56
   2  15  -9    0.44    0.61
  -2  15   9    0.86    0.63
   2 -15   9    0.77    0.69
  -2 -15  -9    0.32    0.59
  -2 -15   9    0.05    0.68
   2  15   9   -0.45    0.55
  -2  15  -9    1.43    0.66
   2 -15  -9    0.36    0.64
   3 -15   9   23.10    1.75
  -3 -15  -9   24.19    1.91
   3 -15   9   21.27    1.65
  -3  15   9   24.12    1.67
   3  15  -9   24.00    1.89
   3  15   9   24.71    1.82
   3 -15  -9   23.39    1.73
  -3 -15   9   23.76    1.80
  -3  15  -9   23.77    1.75
   4  15  -9    2.29    0.87
   4 -15   9    2.50    0.82
  -4 -15  -9    1.73    0.80
  -4  15   9    1.53    0.67
   4 -15  -9    0.59    0.59
   4  15   9    1.25    0.81
  -4  15  -9    1.37    0.73
  -4 -15   9    0.57    0.77
  -5 -15  -9    0.84    0.74
   5  15  -9    1.45    0.77
   5 -15   9    0.05    0.71
  -5  15  -9    1.05    0.68
   5  15   9    0.92    0.78
  -5 -15   9    1.28    0.85
  -6 -15  -9    1.00    0.77
   6  15  -9    1.89    0.89
   6 -15   9    0.87    0.75
  -6  15  -9    1.66    0.81
   6  15   9    1.82    0.84
  -6 -15   9    0.57    0.83
   0 -16   9    1.31    0.84
   0 -16  -9    1.86    0.79
   0  16  -9    1.16    0.71
   0  16   9    0.90    0.70
   1  16  -9    5.07    1.12
   1 -16   9    5.21    1.05
  -1 -16  -9    4.01    0.99
  -1  16   9    3.56    0.93
  -1 -16   9    4.98    1.07
   1 -16  -9    4.77    1.02
  -1  16  -9    5.06    1.10
   1  16   9    4.46    0.97
   2 -16   9    6.62    1.12
   2 -16   9    5.87    1.12
   2  16  -9    8.13    1.37
  -2  16   9    7.67    1.19
  -2 -16  -9    7.07    1.25
   2  16   9    4.22    0.97
   2 -16  -9    7.55    1.21
  -2 -16   9    7.10    1.24
  -2  16  -9    5.29    1.07
  -3  16   9    5.91    1.08
   3 -16   9    3.16    0.93
   3 -16   9    4.34    1.00
   3  16  -9    3.00    0.95
  -3 -16  -9    3.37    1.00
  -3 -16   9    5.72    1.16
   3  16   9    3.82    0.97
   3 -16  -9    3.59    0.93
  -3  16  -9    1.94    0.73
   4 -16   9    6.16    1.14
   4  16  -9    6.70    1.26
  -4 -16  -9    7.45    1.34
  -4 -16   9    9.80    1.41
   4 -16  -9    7.01    1.18
  -4  16  -9    4.48    0.97
   4  16   9    7.59    1.26
   5 -16   9    5.10    1.11
  -5 -16  -9    7.18    1.34
   5  16  -9    5.82    1.17
  -5  16  -9    6.25    1.22
   0 -17  -9    1.16    0.73
   0  17   9   -0.85    0.56
   0  17  -9    0.30    0.68
   0 -17   9    0.39    0.79
   1  17  -9    1.26    0.80
  -1 -17  -9    0.94    0.75
  -1  17   9   -0.25    0.59
   1 -17   9    1.49    0.86
  -1 -17   9    0.55    0.84
  -1  17  -9    1.48    0.78
   1  17   9    0.48    0.68
   1 -17  -9    0.21    0.66
   2  17  -9    4.22    1.10
   2 -17   9    3.39    1.03
  -2  17   9    5.03    1.03
  -2 -17  -9    5.58    1.22
   2 -17   9    5.60    1.14
  -2 -17   9    6.67    1.27
  -2  17  -9    3.87    0.94
   2 -17  -9    3.90    1.02
   2  17   9    3.98    0.98
   3  17  -9    2.11    0.93
   3 -17   9    0.74    0.86
   3 -17  -9    2.37    0.89
  -3  17  -9    1.70    0.86
   0   0 -10   58.19    1.90
   0   0  10   58.83    1.62
   0   0  10   55.98    2.06
   0   0 -10   55.18    2.13
   1   0  10    0.19    0.36
   1   0 -10    0.55    0.30
   1   0  10    0.32    0.23
  -1   0 -10    0.51    0.27
  -1   0  10    1.05    0.40
  -1   0 -10    0.67    0.38
   1   0 -10    0.47    0.33
  -2   0 -10   44.69    1.95
  -2   0  10   44.34    1.83
  -2   0 -10   47.18    1.58
   2   0 -10   45.51    1.90
   2   0  10   47.79    1.65
   2   0  10   46.59    1.82
   2   0 -10   48.35    1.78
   3   0 -10  117.22    3.67
  -3   0 -10  120.23    3.14
   3   0  10  126.78    3.49
  -3   0 -10  123.97    3.78
   3   0 -10  121.78    3.51
   3   0  10  127.55    3.57
  -3   0  10  130.04    3.64
   4   0  10   32.15    1.49
  -4   0 -10   32.95    1.22
   4   0 -10   33.60    1.64
  -4   0 -10   28.92    1.57
  -4   0  10   29.86    1.49
   4   0  10   32.00    1.49
   4   0 -10   33.19    1.55
  -5   0 -10    3.79    0.72
   5   0  10    4.71    0.70
  -5   0  10    4.15    0.67
   5   0  10    4.46    0.71
   5   0 -10    5.59    0.84
  -5   0  10    4.44    0.69
  -6   0  10   13.61    1.03
  -6   0 -10   12.64    1.27
  -6   0  10   13.67    1.09
   6   0 -10   13.67    1.15
   6   0  10   14.78    1.18
   6   0  10   12.34    0.96
   7   0 -10    8.77    1.11
   7   0  10    6.76    0.98
  -7   0  10    6.24    0.88
  -7   0 -10    7.62    1.02
  -7   0  10    8.25    0.91
  -8   0  10    5.47    0.94
   8   0 -10    6.75    1.07
   8   0  10    4.30    0.91
  -8   0 -10    7.19    1.05
   9   0 -10   36.07    2.16
  -9   0  10   35.96    2.02
   9   0  10   36.65    2.17
  -9   0 -10   37.88    2.16
  10   0 -10    1.17    0.74
  10   0  10    0.50    0.71
 -10   0 -10    0.13    0.56
 -10   0  10   -0.29    0.46
 -11   0  10    0.04    0.59
  11   0 -10    0.48    0.65
  11   0  10   -0.03    0.71
 -11   0 -10    0.04    0.59
   0   1  10    2.93    0.35
   0  -1  10    2.60    0.32
   0  -1  10    2.66    0.52
   0  -1 -10    2.76    0.54
   0   1  10    2.46    0.52
   0   1 -10    2.32    0.49
   0   1 -10    2.68    0.47
   0  -1 -10    3.58    0.49
  -1  -1 -10   23.65    1.36
  -1  -1 -10   24.55    1.04
   1  -1  10   24.20    1.29
  -1   1  10   23.68    1.27
   1   1 -10   24.90    1.21
   1   1 -10   24.70    1.30
   1  -1  10   25.16    0.99
   1  -1 -10   26.87    1.18
   1  -1 -10   26.06    1.40
   1   1  10   24.90    1.03
  -1   1 -10   26.23    1.18
   1   1  10   28.22    1.37
  -1  -1  10   25.50    1.33
  -1   1 -10   27.50    1.40
   2   1 -10   48.17    1.83
  -2  -1 -10   48.28    2.05
  -2   1  10   48.31    1.88
   2   1 -10   48.02    1.92
   2  -1  10   51.19    1.90
   2  -1  10   46.04    1.64
  -2  -1 -10   47.91    1.55
  -2   1 -10   45.81    1.61
   2   1  10   50.99    1.89
  -2   1 -10   49.08    1.99
  -2  -1  10   47.94    1.89
   2  -1 -10   44.24    1.93
   2  -1 -10   45.35    1.72
   2   1  10   46.59    1.66
  -3  -1 -10    2.89    0.62
  -3  -1 -10    2.89    0.40
  -3   1  10    2.82    0.58
   3   1 -10    3.43    0.64
   3  -1  10    2.52    0.54
   3  -1  10    3.23    0.53
   3   1 -10    2.43    0.54
   3   1  10    5.06    0.73
   3  -1 -10    2.67    0.59
   3   1  10    4.65    0.62
  -3   1 -10    3.25    0.48
  -3   1 -10    3.19    0.64
  -3  -1  10    4.27    0.69
   3  -1 -10    2.74    0.50
  -4  -1 -10   25.00    1.43
  -4   1  10   22.06    1.23
   4   1 -10   23.71    1.33
   4  -1  10   23.78    1.28
   4   1 -10   23.05    1.36
  -4   1  10   25.05    1.33
   4  -1  10   23.07    1.26
   4  -1 -10   26.00    1.45
  -4   1 -10   25.90    1.43
   4   1  10   24.01    1.31
   4   1  10   26.30    1.33
  -4   1 -10   25.45    1.12
  -4  -1  10   24.05    1.35
   5   1 -10   20.68    1.29
  -5   1  10   17.75    1.15
   5   1 -10   15.48    1.16
  -5   1  10   15.40    1.10
  -5  -1 -10   20.77    1.36
   5  -1  10   17.82    1.20
   5  -1  10   18.24    1.12
  -5  -1  10   19.30    1.21
   5   1  10   19.45    1.25
   5  -1 -10   18.68    1.30
   5   1  10   19.65    1.16
  -5   1 -10   20.81    1.01
  -5   1 -10   19.49    1.29
  -6  -1 -10    1.57    0.61
   6   1 -10    2.16    0.60
   6  -1  10    2.43    0.54
  -6   1  10    1.29    0.49
  -6   1  10    1.90    0.54
   6  -1  10    1.85    0.58
  -6   1 -10    1.22    0.54
   6   1  10    0.94    0.50
  -6  -1  10    1.31    0.48
   6   1  10    2.43    0.54
  -6  -1  10    1.51    0.51
   6  -1 -10    2.83    0.68
  -7  -1 -10    6.02    0.98
  -7   1  10    4.95    0.78
   7  -1  10    5.34    0.89
   7   1 -10    5.24    0.87
  -7   1  10    5.00    0.73
  -7  -1  10    6.63    0.84
   7  -1 -10    6.05    0.98
  -7  -1  10    5.45    0.86
   7   1  10    5.04    0.89
  -7   1 -10    4.83    0.90
  -8   1  10   25.30    1.62
  -8  -1 -10   25.71    1.75
   8   1 -10   27.80    1.78
   8  -1  10   29.52    1.84
  -8  -1  10   26.08    1.62
   8  -1 -10   25.16    1.72
  -8   1 -10   25.66    1.69
   8   1  10   22.01    1.64
  -9   1  10    2.30    0.70
  -9  -1 -10    3.17    0.86
   9  -1  10    2.48    0.84
   9   1 -10    2.95    0.83
  -9   1 -10    1.76    0.69
   9  -1 -10    2.55    0.84
   9   1  10    1.63    0.74
  -9  -1  10    1.59    0.65
 -10  -1 -10    9.42    1.36
  10  -1  10    9.39    1.33
 -10   1  10   11.51    1.42
  10   1 -10   10.38    1.40
  10   1  10    7.28    1.25
  10  -1 -10   11.92    1.53
 -10   1 -10   10.82    1.44
 -10  -1  10   11.15    1.33
  11   1 -10    6.04    1.20
  11  -1  10    5.77    1.19
 -11   1  10    4.70    1.03
 -11  -1 -10    4.01    1.04
 -11  -1  10    4.37    0.95
  11   1  10    3.07    0.97
 -11   1 -10    4.39    1.06
  11  -1 -10    6.18    1.19
   0   2 -10   30.24    1.33
   0   2 -10   30.48    1.42
   0   2  10   30.57    1.08
   0  -2 -10   30.45    1.17
   0  -2  10   28.16    0.99
   0  -2 -10   26.91    1.46
   0   2  10   27.24    1.38
   0  -2  10   29.00    1.43
  -1  -2 -10   15.92    0.79
   1  -2  10   16.77    1.10
  -1  -2 -10   16.78    1.16
   1  -2  10   16.11    0.79
  -1   2  10   15.95    1.05
   1   2 -10   16.65    1.04
   1   2 -10   15.82    0.99
  -1  -2  10   16.67    1.08
  -1   2 -10   15.40    1.04
  -1   2 -10   16.75    0.97
   1  -2 -10   16.50    1.14
   1   2  10   14.74    1.04
   1   2  10   17.97    0.86
   1  -2 -10   17.03    0.91
   2   2 -10   83.84    2.73
  -2   2  10   82.17    2.69
   2  -2  10   82.79    2.68
  -2  -2 -10   84.29    2.23
   2   2 -10   80.68    2.64
  -2  -2 -10   83.72    2.92
   2  -2  10   82.44    2.44
   2   2  10   77.43    2.38
   2  -2 -10   78.68    2.74
  -2  -2  10   75.50    2.55
  -2   2 -10   79.13    2.70
   2   2  10   75.69    2.56
   2  -2 -10   78.91    2.41
  -2   2 -10   80.98    2.38
  -3  -2 -10   75.92    2.77
   3  -2  10   80.40    2.48
   3   2 -10   75.39    2.58
  -3   2  10   74.81    2.43
   3   2 -10   79.39    2.67
  -3   2  10   80.97    2.62
   3  -2  10   76.46    2.54
   3   2  10   79.12    2.51
   3  -2 -10   78.97    2.75
  -3   2 -10   78.64    2.33
  -3  -2  10   72.22    2.52
   3   2  10   76.16    2.55
  -3   2 -10   74.49    2.63
  -4   2  10   40.19    1.69
  -4   2  10   39.12    1.69
   4   2 -10   39.92    1.79
   4   2 -10   40.50    1.79
  -4  -2 -10   38.95    1.87
   4  -2  10   40.22    1.71
   4  -2  10   41.81    1.71
   4   2  10   39.78    1.70
   4  -2 -10   36.36    1.80
  -4   2 -10   41.99    1.54
  -4   2 -10   43.06    1.85
  -4  -2  10   38.87    1.70
   4   2  10   40.83    1.73
   5   2 -10    2.72    0.64
   5  -2  10    1.40    0.49
  -5   2  10    1.60    0.49
   5   2 -10    1.32    0.51
  -5  -2 -10    2.10    0.63
  -5   2  10    1.29    0.47
   5  -2  10    1.74    0.56
   5   2  10    2.31    0.60
  -5   2 -10    1.67    0.42
  -5  -2  10    2.11    0.57
   5   2  10    1.84    0.54
   5  -2 -10    1.44    0.54
  -5   2 -10    2.33    0.59
  -6   2  10   29.68    1.48
   6   2 -10   26.06    1.59
  -6   2  10   28.80    1.54
   6  -2  10   30.35    1.66
   6  -2  10   30.19    1.41
   6   2 -10   27.97    1.62
  -6  -2 -10   29.85    1.71
  -6   2 -10   29.14    1.34
   6   2  10   28.33    1.63
   6   2  10   27.85    1.40
  -6   2 -10   28.53    1.61
  -6  -2  10   26.84    1.45
   6  -2 -10   29.77    1.70
   7  -2  10    2.63    0.73
  -7  -2 -10    5.43    0.92
   7   2 -10    5.40    0.91
  -7   2  10    4.64    0.81
   7  -2 -10    4.11    0.87
  -7  -2  10    3.45    0.71
  -7   2 -10    4.77    0.85
   7   2  10    5.50    0.92
  -7  -2  10    5.23    0.77
  -8  -2 -10   18.40    1.49
   8  -2  10   12.02    1.36
   8   2 -10   17.16    1.42
  -8   2  10   15.18    1.43
  -8  -2  10   17.40    1.34
   8   2  10   15.53    1.51
  -8   2 -10   15.71    1.36
   8  -2 -10   13.48    1.42
  -9  -2 -10    6.85    1.14
  -9   2  10    6.56    1.02
   9  -2  10    6.19    1.10
   9   2 -10    6.40    1.11
   9  -2 -10    5.83    1.10
  -9  -2  10    5.25    0.97
  -9   2 -10    7.91    1.15
   9   2  10    4.82    1.01
 -10   2  10   16.72    1.59
  10   2 -10   16.84    1.71
 -10  -2 -10   16.71    1.78
  10  -2  10   17.84    1.79
 -10  -2  10   12.60    1.40
 -10   2 -10   15.70    1.64
  10  -2 -10   16.31    1.71
  10   2  10   14.45    1.64
 -11  -2 -10    2.60    0.94
 -11   2  10    3.85    0.98
  11  -2  10    4.39    1.06
  11   2 -10    3.80    1.04
 -11  -2  10    4.51    0.96
 -11   2 -10    4.04    0.99
  11  -2 -10    4.42    1.09
  11   2  10    3.82    1.06
   0  -3 -10   85.79    2.90
   0   3  10   79.33    2.69
   0   3 -10   85.23    2.65
   0   3 -10   84.66    2.71
   0  -3  10   84.11    2.69
   0  -3 -10   84.66    2.31
   1  -3  10   30.17    1.15
  -1  -3 -10   31.60    1.11
   1   3 -10   33.26    1.47
  -1   3  10   29.90    1.48
   1   3 -10   30.66    1.43
   1  -3  10   31.20    1.48
  -1  -3 -10   29.81    1.59
   1  -3 -10   32.63    1.18
   1  -3 -10   32.70    1.63
  -1   3 -10   33.01    1.50
   1   3  10   32.51    1.28
  -1  -3  10   31.41    1.48
  -1   3 -10   32.54    1.42
   1   3  10   33.96    1.54
  -2  -3 -10   32.36    1.66
   2   3 -10   29.56    1.45
   2   3 -10   32.65    1.47
   2  -3  10   27.56    1.22
  -2   3  10   31.11    1.29
   2  -3  10   28.45    1.44
  -2   3  10   29.39    1.45
   2   3  10   30.80    1.49
  -2   3 -10   30.06    1.34
   2   3  10   34.19    1.38
  -2  -3  10   30.31    1.46
   2  -3 -10   28.27    1.54
  -2   3 -10   33.20    1.56
  -3  -3 -10   32.46    1.70
   3  -3  10   36.42    1.48
   3  -3  10   34.14    1.56
   3   3 -10   35.08    1.61
  -3   3  10   33.05    1.55
  -3   3  10   33.69    1.44
   3   3 -10   34.44    1.58
  -3  -3  10   37.43    1.64
  -3   3 -10   36.01    1.64
   3  -3 -10   33.05    1.67
  -3   3 -10   37.21    1.50
   3   3  10   38.16    1.57
   3   3  10   36.74    1.63
  -4  -3 -10   25.04    1.49
   4   3 -10   29.78    1.49
   4  -3  10   30.27    1.43
  -4   3  10   28.83    1.45
   4   3 -10   28.83    1.53
   4  -3  10   29.81    1.43
  -4   3  10   29.62    1.40
   4   3  10   32.14    1.52
  -4  -3  10   29.39    1.47
   4  -3 -10   29.47    1.61
  -4   3 -10   29.31    1.51
   4   3  10   28.61    1.44
  -4   3 -10   32.58    1.37
   5   3 -10   39.11    1.86
  -5   3  10   39.07    1.73
   5  -3  10   41.89    1.80
   5  -3  10   38.72    1.66
  -5   3  10   35.97    1.66
   5   3 -10   41.63    1.88
  -5  -3 -10   37.82    1.91
   5   3  10   34.57    1.59
  -5   3 -10   40.93    1.61
   5   3  10   35.67    1.77
   5  -3 -10   37.98    1.87
  -5   3 -10   38.65    1.79
  -5  -3  10   35.06    1.65
  -6  -3 -10    0.44    0.46
   6   3 -10    1.47    0.55
  -6   3  10    1.23    0.50
   6   3 -10    1.29    0.51
  -6   3  10    1.09    0.50
   6  -3  10    1.78    0.57
   6   3  10    2.75    0.59
  -6   3 -10    2.25    0.62
   6  -3 -10    3.38    0.76
   6   3  10    2.00    0.62
  -6  -3  10    2.30    0.60
  -6   3 -10    2.66    0.53
   7  -3  10   19.18    1.46
  -7   3  10   21.09    1.41
   7   3 -10   23.20    1.52
  -7  -3 -10   22.77    1.57
  -7   3 -10   22.49    1.27
   7   3  10   21.80    1.54
  -7   3 -10   21.97    1.47
   7   3  10   20.33    1.25
  -7  -3  10   20.88    1.29
   7  -3 -10   20.32    1.51
  -8  -3 -10    2.49    0.77
   8  -3  10    1.64    0.72
   8   3 -10    1.85    0.62
  -8   3  10    0.59    0.54
  -8   3 -10    1.86    0.65
  -8  -3  10    1.53    0.58
   8  -3 -10    2.47    0.74
   8   3  10    2.35    0.75
   9   3 -10    6.96    1.12
  -9   3  10    7.89    1.16
  -9  -3 -10    5.95    1.12
   9  -3  10    4.56    0.99
   9  -3 -10    5.00    1.01
  -9   3 -10    6.06    1.06
  -9  -3  10    3.72    0.84
   9   3  10    5.12    1.00
  10  -3  10    5.37    1.18
 -10  -3 -10    6.22    1.18
  10   3 -10    6.88    1.15
 -10   3  10    6.70    1.08
  10  -3 -10    7.72    1.31
  10   3  10    4.61    1.02
 -10   3 -10    8.33    1.28
 -10  -3  10    6.28    1.09
  11   3 -10    2.77    0.92
  11  -3  10    3.92    1.07
 -11  -3 -10    5.50    1.21
 -11   3  10    1.71    0.77
 -11  -3  10    3.25    0.90
  11   3  10    3.17    1.03
 -11   3 -10    2.61    0.86
  11  -3 -10    2.78    0.94
   0  -4 -10   16.08    0.87
   0  -4  10   14.07    1.02
   0   4  10   16.73    0.77
   0   4 -10   15.26    0.97
   0   4 -10   16.65    1.05
   0   4  10   14.30    1.04
   0  -4 -10   14.85    1.11
   1   4 -10   51.03    1.89
  -1   4  10   49.50    1.97
   1   4 -10   52.48    1.99
  -1  -4 -10   50.09    2.14
   1  -4  10   47.70    1.89
   1  -4  10   49.33    1.62
  -1   4  10   51.10    1.64
   1   4  10   48.21    1.93
  -1  -4  10   46.80    1.87
   1   4  10   49.51    1.72
  -1   4 -10   49.25    1.88
  -1   4 -10   49.66    1.85
   1  -4 -10   46.95    2.04
   1  -4 -10   48.55    1.57
   2  -4  10   39.90    1.69
   2   4 -10   39.22    1.64
  -2   4  10   40.94    1.51
  -2   4  10   38.55    1.70
   2   4 -10   38.64    1.73
  -2  -4 -10   42.85    1.96
   2  -4  10   40.57    1.52
   2   4  10   45.43    1.68
  -2  -4  10   38.39    1.72
  -2   4 -10   42.38    1.67
   2   4  10   41.14    1.75
  -2   4 -10   43.12    1.77
   2  -4 -10   38.05    1.83
   3   4 -10   13.34    0.96
   3   4 -10   14.64    1.07
  -3  -4 -10   12.96    1.25
   3  -4  10   12.78    0.98
   3  -4  10   13.14    0.93
  -3   4  10   13.39    1.02
  -3   4  10   14.84    0.94
  -3   4 -10   15.90    1.05
   3  -4 -10   12.28    1.06
  -3   4 -10   15.18    0.95
  -3  -4  10   13.10    1.03
   3   4  10   13.01    0.94
   3   4  10   14.33    1.06
  -4   4  10   39.57    1.77
  -4  -4 -10   48.96    2.12
   4  -4  10   43.52    1.81
  -4   4  10   48.80    1.85
   4   4 -10   45.33    1.98
   4   4 -10   44.81    1.88
   4  -4  10   42.71    1.77
  -4   4 -10   47.88    1.84
   4   4  10   48.23    1.98
  -4   4 -10   47.30    1.96
   4  -4 -10   46.70    2.11
   4   4  10   48.62    1.95
  -4  -4  10   50.65    1.99
  -5   4  10   30.84    1.55
   5  -4  10   33.33    1.64
   5   4 -10   30.69    1.60
  -5   4  10   32.12    1.53
  -5  -4 -10   29.49    1.70
   5  -4  10   32.23    1.52
   5   4 -10   29.86    1.64
  -5  -4  10   32.43    1.59
   5   4  10   31.72    1.63
   5   4  10   32.53    1.56
   5  -4 -10   31.65    1.73
  -5   4 -10   33.72    1.52
  -5   4 -10   30.05    1.56
   6  -4  10   15.02    1.23
   6   4 -10   14.81    1.18
  -6  -4 -10   14.03    1.38
   6   4 -10   13.79    1.35
  -6   4  10   13.88    1.03
  -6   4  10   15.13    1.16
  -6  -4  10   13.47    1.10
   6   4  10   13.46    1.17
   6  -4 -10   13.15    1.32
  -6   4 -10   13.53    1.10
   6   4  10   12.23    1.04
  -6   4 -10   15.61    1.04
  -7  -4 -10   10.35    1.30
   7   4 -10    5.21    0.86
  -7   4  10    9.45    1.11
   7  -4  10    9.51    1.11
   7   4 -10    9.46    1.15
   7   4  10   11.36    1.04
  -7  -4  10   12.58    1.17
   7  -4 -10   11.51    1.30
  -7   4 -10   10.73    1.04
  -7   4 -10   11.39    1.21
   7   4  10    9.30    1.14
   8  -4  10   25.23    1.74
  -8   4  10   27.20    1.67
  -8  -4 -10   26.80    1.86
   8   4 -10   27.98    1.78
   8  -4 -10   29.26    1.89
  -8   4 -10   29.91    1.58
  -8  -4  10   26.16    1.67
   8   4  10   26.94    1.85
  -8   4 -10   29.87    1.79
   9  -4  10    1.21    0.79
  -9   4  10    0.37    0.54
  -9  -4 -10   -0.54    0.49
   9   4 -10    0.63    0.57
   9  -4 -10    0.93    0.67
   9   4  10    1.20    0.69
  -9   4 -10    1.45    0.66
  -9  -4  10    0.28    0.50
 -10  -4 -10    6.20    1.16
  10   4 -10    4.90    1.05
 -10   4  10    5.94    1.05
  10  -4  10    6.31    1.17
  10  -4 -10    4.12    1.01
 -10  -4  10    5.28    1.00
  10   4  10    3.83    1.00
 -10   4 -10    4.77    0.99
  11   4 -10    6.11    1.18
 -11  -4 -10    8.14    1.38
 -11   4  10    8.52    1.35
  11  -4  10    7.31    1.31
  11   4  10   10.87    1.56
 -11   4 -10    9.25    1.40
  11  -4 -10    8.76    1.39
 -11  -4  10    7.53    1.16
   0   5 -10   81.97    2.58
   0   5  10   79.37    2.70
   0  -5  10   80.83    2.68
   0   5 -10   83.09    2.71
   0  -5 -10   83.93    2.93
   0  -5 -10   86.67    2.53
  -1   5  10   22.02    1.26
   1   5 -10   23.68    1.34
   1  -5  10   24.58    1.07
   1  -5  10   20.94    1.23
   1   5 -10   22.63    1.17
  -1   5  10   23.76    1.03
  -1  -5 -10   25.42    1.48
   1   5  10   25.51    1.20
   1  -5 -10   24.52    1.45
  -1   5 -10   24.99    1.23
  -1   5 -10   24.57    1.29
  -1  -5  10   23.13    1.30
   1   5  10   23.80    1.32
   1  -5 -10   23.19    1.05
   2  -5  10    2.41    0.47
   2   5 -10    1.60    0.48
   2  -5  10    1.66    0.49
  -2   5  10    2.82    0.57
  -2  -5 -10    1.70    0.56
  -2   5  10    1.88    0.40
   2   5 -10    1.86    0.46
  -2  -5  10    2.56    0.59
   2   5  10    1.27    0.40
   2  -5 -10    2.08    0.54
   2   5  10    1.40    0.44
  -2   5 -10    1.13    0.42
  -2   5 -10    2.06    0.49
  -3   5  10   27.99    1.48
   3   5 -10   33.37    1.50
  -3   5  10   32.90    1.40
   3  -5  10   33.18    1.51
   3   5 -10   28.63    1.54
  -3  -5 -10   33.53    1.74
   3  -5  10   32.17    1.43
  -3   5 -10   31.36    1.47
   3   5  10   35.96    1.59
   3   5  10   29.80    1.52
   3  -5 -10   28.99    1.62
  -3   5 -10   33.67    1.54
  -3  -5  10   32.44    1.56
  -4   5  10    2.04    0.56
   4  -5  10    4.78    0.73
   4  -5  10    3.98    0.66
   4   5 -10    4.00    0.74
  -4   5  10    3.34    0.60
  -4  -5 -10    4.23    0.78
   4   5 -10    2.93    0.59
   4   5  10    4.29    0.73
  -4   5 -10    3.71    0.63
  -4  -5  10    5.22    0.77
  -4   5 -10    3.35    0.61
   4  -5 -10    3.60    0.73
   4   5  10    4.81    0.74
   5   5 -10    5.35    0.80
   5   5 -10    5.30    0.87
  -5  -5 -10    4.78    0.86
   5  -5  10    5.40    0.80
   5  -5  10    5.40    0.76
  -5   5  10    5.92    0.79
  -5   5  10    4.34    0.71
  -5  -5  10    4.40    0.74
   5   5  10    3.81    0.66
   5   5  10    4.12    0.74
  -5   5 -10    4.59    0.69
  -5   5 -10    4.60    0.73
   5  -5 -10    4.97    0.81
  -6  -5 -10   35.50    1.92
  -6   5  10   35.42    1.60
  -6   5  10   35.34    1.73
   6   5 -10   32.09    1.69
   6  -5  10   34.96    1.77
   6   5 -10   29.53    1.76
  -6   5 -10   36.21    1.68
  -6  -5  10   34.05    1.70
   6  -5 -10   38.27    1.98
  -6   5 -10   35.57    1.74
   6   5  10   36.97    1.71
   6   5  10   37.77    1.92
  -7  -5 -10    7.32    1.10
   7  -5  10    4.29    0.86
  -7   5  10    6.26    0.93
   7   5 -10    4.55    0.88
   7   5 -10    6.90    0.99
   7  -5 -10    6.14    0.99
  -7   5 -10    4.16    0.77
   7   5  10    5.56    0.94
  -7  -5  10    5.86    0.85
   7   5  10    6.09    0.83
  -7   5 -10    6.08    0.84
  -8   5  10    2.73    0.74
  -8  -5 -10    2.81    0.81
   8  -5  10    2.69    0.78
   8   5 -10    3.54    0.80
  -8   5 -10    1.30    0.56
  -8   5 -10    1.77    0.65
   8   5  10    2.17    0.70
   8  -5 -10    1.60    0.72
  -8  -5  10    1.68    0.60
  -9   5  10    9.18    1.23
   9   5 -10   12.52    1.46
   9  -5  10    8.05    1.22
  -9  -5 -10    9.70    1.37
   9  -5 -10   10.19    1.38
  -9   5 -10   10.05    1.30
  -9  -5  10   10.10    1.25
   9   5  10    9.46    1.29
  10  -5  10    3.17    1.00
 -10   5  10    3.26    0.92
  10   5 -10    4.25    0.99
 -10  -5 -10    3.36    0.94
 -10  -5  10    1.70    0.71
  10  -5 -10    5.01    1.10
 -10   5 -10    2.78    0.87
  10   5  10    2.76    0.84
 -11  -5 -10    1.21    0.82
 -11   5  10    0.88    0.72
  11   5 -10    0.78    0.78
  11  -5  10    2.59    1.01
  11   5  10    1.30    0.72
 -11   5 -10    0.71    0.71
 -11  -5  10    1.53    0.74
  11  -5 -10    0.24    0.73
   0  -6  10   -0.21    0.33
   0  -6 -10    0.28    0.30
   0   6  10   -0.31    0.34
   0   6 -10   -0.21    0.30
   0   6 -10    0.16    0.25
   0  -6 -10    0.23    0.39
   1  -6  10   38.73    1.69
   1  -6  10   39.08    1.47
   1   6 -10   35.78    1.71
   1   6 -10   39.87    1.55
  -1  -6 -10   39.35    1.90
  -1  -6 -10   39.71    1.64
  -1   6  10   37.61    1.71
   1   6  10   34.41    1.64
  -1  -6  10   37.26    1.71
   1  -6 -10   34.76    1.78
   1  -6 -10   36.84    1.44
  -1   6 -10   35.43    1.62
  -1   6 -10   38.13    1.52
   2   6 -10   22.65    1.35
  -2   6  10   22.28    1.28
   2  -6  10   21.14    1.26
  -2   6  10   22.73    1.08
  -2  -6 -10   23.00    1.49
   2  -6  10   22.80    1.15
   2   6 -10   21.26    1.14
   2  -6 -10   19.16    1.31
  -2  -6  10   20.64    1.28
   2   6  10   22.10    1.23
   2   6  10   20.12    1.26
  -2   6 -10   19.68    1.19
  -2   6 -10   22.58    1.18
  -3  -6 -10    9.20    1.08
  -3   6  10    9.95    0.97
  -3   6  10   11.60    0.85
   3  -6  10    9.78    0.96
   3   6 -10   10.70    0.85
   3  -6  10    9.51    0.88
   3   6 -10   11.28    1.18
   3   6  10   10.43    1.02
  -3  -6  10   10.33    1.04
   3  -6 -10   11.40    1.16
  -3   6 -10   10.53    0.99
  -3   6 -10    9.80    0.86
   3   6  10   10.39    0.90
   4  -6  10   25.17    1.39
   4   6 -10   23.21    1.30
  -4   6  10   22.75    1.31
  -4   6  10   23.73    1.26
   4  -6  10   23.28    1.32
   4   6 -10   26.53    1.55
  -4  -6 -10   23.68    1.51
   4   6  10   24.23    1.42
   4   6  10   25.68    1.46
   4  -6 -10   23.11    1.50
  -4   6 -10   25.37    1.36
  -4   6 -10   25.24    1.35
  -4  -6  10   26.34    1.46
   5   6 -10   23.54    1.37
  -5   6  10   22.67    1.31
  -5   6  10   20.90    1.26
   5  -6  10   22.09    1.31
   5   6 -10   22.08    1.44
   5  -6  10   22.53    1.40
  -5  -6 -10   23.12    1.53
  -5  -6  10   24.99    1.46
  -5   6 -10   22.53    1.34
   5   6  10   25.99    1.55
  -5   6 -10   24.44    1.39
   5  -6 -10   22.14    1.50
   5   6  10   23.98    1.42
   6   6 -10    0.42    0.48
   6   6 -10   -0.07    0.36
  -6   6  10    0.47    0.46
  -6  -6 -10    0.59    0.52
  -6   6  10    0.03    0.37
   6  -6  10    0.62    0.52
   6   6  10    0.78    0.52
  -6  -6  10    0.00    0.48
   6   6  10    0.16    0.46
  -6   6 -10    0.64    0.46
  -6   6 -10    0.72    0.46
   6  -6 -10    0.78    0.53
  -7  -6 -10   22.20    1.63
   7  -6  10   22.03    1.57
   7   6 -10   24.59    1.65
  -7   6  10   22.10    1.48
   7   6 -10   23.17    1.52
   7   6  10   25.70    1.47
   7  -6 -10   22.38    1.63
  -7  -6  10   24.25    1.48
  -7   6 -10   24.72    1.61
  -7   6 -10   21.15    1.40
   7   6  10   25.14    1.68
  -8  -6 -10   12.45    1.48
  -8   6  10   12.94    1.35
   8   6 -10   11.96    1.43
   8   6 -10   13.59    1.43
   8  -6  10   12.18    1.37
  -8   6 -10   15.19    1.22
  -8  -6  10   14.76    1.30
   8   6  10   16.00    1.63
   8  -6 -10   13.56    1.48
   9   6 -10    1.72    0.71
  -9  -6 -10    2.63    0.87
   9  -6  10    3.89    0.94
  -9   6  10    3.88    0.90
   9   6  10    3.00    0.91
  -9   6 -10    2.94    0.74
   9  -6 -10    1.75    0.73
  -9  -6  10    2.34    0.77
  10   6 -10    2.09    0.78
  10  -6  10    3.41    0.98
 -10   6  10    3.00    0.91
 -10  -6 -10    2.73    0.93
  10   6  10    2.76    0.93
  10  -6 -10    2.98    0.90
 -10  -6  10    2.27    0.72
  11   6 -10    2.74    0.96
 -11   6  10    1.15    0.78
 -11  -6 -10    2.92    0.98
  11  -6  10    2.84    1.08
  11  -6 -10    2.21    0.93
  11   6  10    1.74    0.88
 -11  -6  10    2.83    0.86
   0  -7 -10   62.44    2.18
   0  -7 -10   59.26    2.44
   0   7 -10   62.81    2.36
   0   7  10   59.00    2.29
   0  -7  10   59.25    2.26
   1   7 -10   21.92    1.37
  -1   7  10   21.32    1.31
  -1  -7 -10   21.09    1.22
   1  -7  10   23.60    1.13
  -1  -7 -10   22.25    1.48
   1  -7  10   21.49    1.32
  -1   7 -10   26.02    1.40
   1  -7 -10   22.11    1.42
   1   7  10   24.07    1.39
   1  -7 -10   21.25    1.14
  -1  -7  10   20.99    1.31
  -2  -7 -10    4.03    0.80
  -2   7  10    5.22    0.77
  -2   7  10    4.73    0.61
   2   7 -10    5.57    0.68
   2   7 -10    5.50    0.83
   2  -7  10    6.84    0.75
   2  -7  10    3.85    0.66
   2   7  10    3.65    0.68
   2  -7 -10    2.99    0.68
  -2   7 -10    2.92    0.62
   2  -7 -10    4.26    0.58
  -2  -7  10    4.67    0.75
  -3  -7 -10   13.88    1.20
   3  -7  10   13.74    1.06
   3  -7  10   14.75    1.05
  -3   7  10   14.45    1.09
   3   7 -10   14.26    0.97
   3   7 -10   14.83    1.37
  -3   7  10   13.59    0.96
  -3   7 -10   16.59    1.14
   3  -7 -10   14.61    1.20
   3   7  10   17.78    1.20
  -3  -7  10   15.33    1.17
   3   7  10   15.88    1.17
   4   7 -10    0.22    0.35
  -4   7  10    0.80    0.43
   4   7 -10    0.77    0.47
   4  -7  10    0.74    0.47
  -4  -7 -10    0.97    0.54
  -4   7  10    0.78    0.46
   4  -7  10    0.76    0.46
  -4  -7  10    0.05    0.47
   4   7  10    0.27    0.40
   4  -7 -10    0.26    0.43
   4   7  10    0.39    0.47
  -4   7 -10    0.94    0.45
  -5   7  10    3.18    0.64
  -5  -7 -10    2.17    0.65
   5   7 -10    2.51    0.67
  -5   7  10    2.35    0.62
   5  -7  10    2.61    0.61
   5   7 -10    2.73    0.59
   5  -7  10    2.36    0.66
   5   7  10    2.08    0.62
   5  -7 -10    2.14    0.65
  -5   7 -10    2.31    0.60
   5   7  10    1.74    0.60
  -5  -7  10    1.89    0.58
   6   7 -10   28.11    1.76
  -6  -7 -10   29.19    1.80
   6  -7  10   29.53    1.71
  -6   7  10   29.65    1.63
   6   7 -10   30.15    1.62
  -6   7 -10   25.80    1.53
  -6  -7  10   27.50    1.58
   6   7  10   28.57    1.60
   6  -7 -10   29.20    1.79
   6   7  10   28.98    1.77
   7   7 -10    7.22    1.11
  -7   7  10    7.40    1.04
   7   7 -10    6.41    0.95
  -7  -7 -10    6.50    1.07
   7  -7  10    5.65    0.95
  -7  -7  10    9.09    1.10
  -7   7 -10    7.59    1.07
   7  -7 -10    8.03    1.13
   7   7  10    6.14    0.86
   7   7  10    7.84    1.16
   8   7 -10    5.31    0.93
   8   7 -10    3.37    0.89
  -8   7  10    4.99    0.95
   8  -7  10    2.14    0.80
  -8  -7 -10    4.35    0.96
  -8  -7  10    2.50    0.75
  -8   7 -10    2.70    0.69
   8   7  10    3.04    0.86
   8  -7 -10    3.16    0.82
  -9   7  10    6.09    1.08
   9  -7  10    6.30    1.14
  -9  -7 -10    8.15    1.27
   9   7 -10    7.99    1.20
  -9   7 -10    9.17    1.21
   9   7  10    4.99    1.08
   9  -7 -10    7.74    1.23
 -10  -7 -10    0.32    0.69
 -10   7  10   -0.65    0.59
  10   7 -10    0.34    0.61
  10  -7  10    0.11    0.68
 -10  -7  10    0.16    0.53
  10  -7 -10    0.55    0.69
  10   7  10    0.57    0.75
 -10   7 -10    0.04    0.55
   0   8 -10   12.85    1.20
   0  -8 -10   10.52    0.92
   0  -8  10   10.84    1.04
   0   8  10   10.46    1.04
   0  -8 -10   11.63    1.20
   1  -8  10   21.09    1.32
  -1  -8 -10   21.36    1.29
  -1   8  10   22.94    1.38
   1  -8  10   19.08    1.12
   1   8 -10   20.99    1.35
  -1  -8 -10   23.69    1.51
   1  -8 -10   19.13    1.38
   1   8  10   17.73    1.25
  -1   8 -10   18.26    1.27
  -1  -8  10   20.05    1.28
   1  -8 -10   17.38    1.09
  -2   8  10   18.30    1.22
   2  -8  10   15.32    1.19
  -2  -8 -10   16.87    1.21
   2   8 -10   17.20    1.30
  -2  -8 -10   15.05    1.30
   2  -8  10   17.58    1.08
  -2  -8  10   15.66    1.17
   2  -8 -10   15.29    1.00
   2   8  10   16.02    1.18
   2  -8 -10   15.34    1.23
  -2   8 -10   15.96    1.17
   3   8 -10    5.67    0.87
  -3   8  10    7.52    0.79
   3  -8  10    6.09    0.79
  -3   8  10    7.42    0.90
   3  -8  10    7.12    0.84
  -3  -8 -10    7.41    1.03
   3   8  10    6.92    0.93
   3  -8 -10    7.61    1.00
  -3  -8  10    7.29    0.94
  -3   8 -10    6.86    0.89
   3   8  10    9.62    1.08
   4  -8  10   13.24    1.17
  -4   8  10   14.32    1.10
   4  -8  10   16.78    1.17
  -4  -8 -10   13.30    1.38
  -4   8  10   14.49    1.05
   4   8 -10   14.76    1.44
  -4   8 -10   14.54    1.15
   4   8  10   15.75    1.23
   4   8  10   14.36    1.30
   4  -8 -10   13.86    1.35
  -4  -8  10   17.22    1.27
  -5   8  10   23.02    1.34
   5  -8  10   23.86    1.51
   5   8 -10   22.61    1.58
   5  -8  10   21.80    1.32
  -5   8  10   23.50    1.42
  -5  -8 -10   20.15    1.49
   5   8  10   20.79    1.38
  -5   8 -10   20.42    1.37
   5  -8 -10   19.28    1.44
   5   8  10   20.03    1.45
  -5  -8  10   22.46    1.44
  -6   8  10    7.76    1.00
  -6  -8 -10    8.77    1.17
   6  -8  10    7.96    1.07
   6   8 -10    8.59    1.17
   6  -8 -10    9.07    1.19
   6   8  10    9.82    1.11
  -6   8 -10    8.51    1.07
  -6  -8  10   10.10    1.13
   6   8  10   10.50    1.25
  -7   8  10    4.87    0.89
  -7  -8 -10    4.48    0.97
   7   8 -10    4.45    0.93
   7  -8  10    4.56    0.85
  -7  -8  10    5.66    0.96
   7  -8 -10    5.24    0.96
   7   8  10    3.40    0.77
  -7   8 -10    5.04    0.88
   7   8  10    5.53    1.01
   8   8 -10   16.87    1.66
  -8  -8 -10   17.25    1.76
   8  -8  10   18.41    1.61
  -8   8  10   14.06    1.48
  -8   8 -10   18.44    1.43
  -8  -8  10   17.95    1.45
   8   8  10   16.34    1.68
   8  -8 -10   18.78    1.78
   9   8 -10    1.92    0.81
  -9  -8 -10    2.05    0.83
   9  -8  10    1.60    0.83
  -9   8  10    2.45    0.81
   9   8  10    2.65    0.91
   9  -8 -10    1.44    0.76
  -9   8 -10    1.85    0.71
  10  -8  10    2.13    0.94
 -10   8  10    4.74    1.05
 -10  -8 -10    4.75    1.10
 -10   8 -10    6.65    1.15
  10   8  10    5.26    1.11
  10  -8 -10    3.26    0.99
 -10  -8  10    5.51    1.07
   0  -9 -10   10.39    1.14
   0  -9  10    9.15    1.02
   0   9  10   13.15    1.22
   0  -9 -10   12.02    1.01
   0   9 -10    9.72    1.10
   1  -9  10   18.38    1.28
  -1   9  10   19.88    1.31
  -1  -9 -10   19.04    1.40
  -1  -9 -10   20.77    1.32
   1   9 -10   20.27    1.36
   1  -9  10   21.16    1.17
   1  -9 -10   20.85    1.25
  -1  -9  10   20.13    1.34
   1  -9 -10   20.79    1.44
   1   9  10   21.65    1.38
  -1   9 -10   21.14    1.40
   2  -9  10    5.08    0.72
   2   9 -10    5.01    0.87
  -2   9  10    3.93    0.71
   2  -9  10    5.78    0.84
  -2  -9 -10    6.06    0.94
  -2  -9 -10    4.63    0.79
   2   9  10    4.76    0.79
  -2   9 -10    4.42    0.76
  -2  -9  10    5.76    0.89
   2  -9 -10    4.73    0.70
   2  -9 -10    4.18    0.78
   3   9 -10   26.06    1.63
  -3  -9 -10   25.01    1.53
  -3  -9 -10   26.15    1.70
   3  -9  10   24.43    1.48
  -3   9  10   23.75    1.40
   3  -9  10   25.42    1.44
  -3  -9  10   25.46    1.55
   3   9  10   23.75    1.53
   3  -9 -10   23.92    1.54
  -3   9 -10   22.52    1.43
  -4   9  10    4.20    0.70
  -4   9  10    4.93    0.74
   4   9 -10    5.60    0.95
   4  -9  10    3.56    0.72
  -4  -9 -10    4.42    0.86
   4  -9  10    4.84    0.76
   4  -9 -10    2.26    0.65
   4   9  10    4.42    0.82
  -4  -9  10    5.35    0.88
   4   9  10    3.94    0.79
  -4   9 -10    5.12    0.82
  -5   9  10   16.20    1.20
  -5  -9 -10   17.70    1.42
   5   9 -10   20.73    1.55
  -5   9  10   16.23    1.26
   5  -9  10   17.24    1.35
   5   9  10   21.49    1.47
  -5  -9  10   22.38    1.49
  -5   9 -10   20.56    1.43
   5  -9 -10   21.54    1.53
   5   9  10   20.23    1.53
  -6  -9 -10    6.04    1.03
   6   9 -10    6.87    1.05
  -6   9  10    6.25    0.93
   6  -9  10    5.52    0.95
   6   9  10    4.65    0.89
   6  -9 -10    7.00    1.06
  -6  -9  10    7.11    1.03
  -6   9 -10    5.70    0.93
   6   9  10    8.96    1.24
  -7  -9 -10   24.25    1.76
   7  -9  10   23.21    1.72
   7   9 -10   26.85    1.81
  -7   9  10   27.20    1.73
  -7   9 -10   25.93    1.69
  -7  -9  10   29.13    1.76
   7  -9 -10   28.12    1.86
   7   9  10   27.12    1.88
   7   9  10   26.46    1.68
  -8  -9 -10    7.06    1.16
   8  -9  10   10.04    1.29
   8   9 -10    4.58    1.01
  -8   9  10    8.14    1.17
  -8   9 -10    7.65    1.11
   8  -9 -10    7.47    1.19
   8   9  10    7.71    1.21
  -8  -9  10    8.50    1.15
   8   9  10    6.21    1.13
   9   9 -10    0.00    0.56
  -9   9  10    0.22    0.67
   9  -9  10    0.67    0.78
  -9  -9 -10   -0.12    0.60
  -9   9 -10    0.53    0.60
   9  -9 -10    0.75    0.66
   9   9  10    0.12    0.65
 -10  -9 -10    2.59    0.95
  10  -9  10    2.71    0.97
 -10   9  10    1.63    0.89
  10  -9 -10    0.52    0.71
  10   9  10    1.66    0.91
 -10  -9  10    1.50    0.71
 -10   9 -10    1.70    0.81
   0  10  10   18.59    1.32
   0 -10 -10   15.92    1.29
   0 -10  10   18.03    1.35
   0 -10 -10   15.82    1.20
   0  10 -10   20.97    1.42
   1 -10  10    5.93    0.77
   1  10 -10    5.63    0.96
  -1 -10 -10    6.02    0.97
  -1  10  10    5.15    0.82
  -1 -10 -10    4.75    0.81
   1 -10  10    4.68    0.81
  -1 -10  10    3.97    0.77
  -1  10 -10    5.41    0.89
   1 -10 -10    4.04    0.72
   1 -10 -10    5.08    0.87
   1  10  10    6.39    0.95
   2 -10  10   10.83    1.10
   2  10 -10   11.19    1.29
  -2  10  10   10.48    1.09
   2 -10  10   11.82    1.03
  -2 -10 -10    9.34    1.13
  -2 -10 -10   11.29    1.32
  -2 -10  10   12.29    1.22
   2  10  10   14.22    1.34
   2 -10 -10   11.25    0.98
   2 -10 -10   11.17    1.21
  -2  10 -10   10.80    1.15
  -3 -10 -10   17.36    1.35
  -3  10  10   18.49    1.27
   3 -10  10   17.92    1.29
  -3 -10 -10   16.98    1.43
   3 -10  10   16.32    1.27
   3  10 -10   16.54    1.38
   3 -10 -10   16.26    1.32
  -3 -10  10   17.39    1.36
  -3  10 -10   16.59    1.29
   3  10  10   18.53    1.41
   4 -10  10   31.89    1.70
   4 -10  10   31.19    1.71
  -4 -10 -10   31.30    1.89
  -4  10  10   33.72    1.69
   4  10 -10   32.14    1.88
   4  10  10   33.95    1.82
  -4  10 -10   30.56    1.76
  -4 -10  10   35.17    1.88
   4 -10 -10   35.66    1.90
  -5  10  10   10.24    1.14
   5  10 -10   11.22    1.34
  -5  10  10    8.97    1.01
  -5 -10 -10   10.02    1.27
   5 -10  10    9.51    1.15
  -5 -10  10   10.12    1.13
   5 -10 -10    8.87    1.14
  -5  10 -10    9.18    1.13
   5  10  10    8.40    1.09
   5  10  10   11.16    1.30
   6  10 -10    9.50    1.27
  -6 -10 -10   10.40    1.32
   6 -10  10    7.29    1.08
  -6  10  10    7.31    1.05
   6 -10 -10    8.97    1.22
   6  10  10    9.60    1.27
  -6  10 -10    5.89    0.96
   6  10  10    9.66    1.16
  -6 -10  10    9.80    1.20
  -7 -10 -10    4.14    0.93
  -7  10  10    4.05    0.88
   7 -10  10    2.80    0.89
   7  10 -10    3.78    0.95
   7 -10 -10    3.09    0.86
   7  10  10    3.33    0.90
  -7  10 -10    4.22    0.90
  -7 -10  10    4.75    0.99
   7  10  10    4.32    0.93
  -8  10  10    6.26    1.09
   8  10 -10    6.74    1.23
  -8 -10 -10    7.20    1.21
   8 -10  10    8.12    1.24
   8 -10 -10    6.07    1.09
   8  10  10    5.07    0.96
   8  10  10    5.79    1.14
  -8 -10  10    5.96    1.07
  -8  10 -10    6.32    1.07
   9 -10  10    5.93    1.22
  -9  10  10    6.36    1.19
   9  10 -10    6.49    1.16
  -9 -10 -10    5.93    1.16
   9 -10 -10    5.47    1.12
  -9  10 -10   10.14    1.37
   9  10  10    9.21    1.46
   0 -11 -10   -0.06    0.39
   0 -11  10   -0.56    0.48
   0 -11 -10    0.06    0.39
   0  11  10   -0.45    0.39
   0  11 -10    0.35    0.48
   1  11 -10   20.93    1.53
   1 -11  10   18.86    1.39
  -1  11  10   20.20    1.41
  -1 -11 -10   22.04    1.55
  -1 -11 -10   19.98    1.43
   1 -11 -10   21.87    1.51
   1 -11 -10   22.14    1.41
   1  11  10   20.11    1.43
  -1 -11  10   23.43    1.53
  -1  11 -10   22.40    1.53
   2 -11  10   24.03    1.52
  -2  11  10   21.52    1.46
  -2 -11 -10   26.10    1.71
  -2 -11 -10   21.64    1.53
   2  11 -10   21.66    1.56
   2 -11  10   24.14    1.44
  -2 -11  10   23.91    1.57
   2 -11 -10   22.30    1.51
   2 -11 -10   22.99    1.42
   2  11  10   25.81    1.59
  -2  11 -10   19.72    1.47
  -3 -11 -10    8.94    1.15
  -3  11  10   10.57    1.15
  -3 -11 -10    8.15    1.16
   3 -11  10    9.68    1.10
   3  11 -10    9.43    1.28
   3 -11  10   11.45    1.18
   3 -11 -10   10.78    1.19
  -3 -11  10    9.98    1.21
   3  11  10    9.53    1.14
  -3  11 -10   10.10    1.18
   4 -11  10   18.18    1.35
  -4 -11 -10   16.35    1.60
   4  11 -10   16.53    1.60
   4 -11  10   18.35    1.39
  -4  11  10   15.05    1.24
  -4 -11 -10   15.87    1.39
   4  11  10   13.81    1.40
   4 -11 -10   15.49    1.35
  -4  11 -10   15.61    1.46
  -4 -11  10   17.17    1.52
   5 -11  10    4.90    0.92
  -5 -11 -10    6.58    1.14
   5  11 -10    7.61    1.21
  -5  11  10    7.45    0.96
  -5 -11  10    6.53    1.02
   5 -11 -10    7.36    1.10
   5  11  10    7.78    1.07
  -5  11 -10    7.75    1.11
  -6 -11 -10    0.02    0.53
   6  11 -10   -0.17    0.47
   6 -11  10   -0.46    0.55
  -6  11  10   -0.18    0.55
   6  11  10    0.15    0.62
   6  11  10    0.28    0.61
  -6  11 -10   -0.21    0.54
   6 -11 -10   -0.34    0.50
  -6 -11  10    0.13    0.64
  -7 -11 -10    6.26    1.10
   7  11 -10    6.40    1.14
  -7  11  10    7.60    1.16
   7 -11  10    7.40    1.17
   7 -11 -10    9.40    1.29
  -7 -11  10    9.92    1.25
  -7  11 -10    9.97    1.29
   7  11  10    9.44    1.39
   7  11  10    7.94    1.17
  -8 -11 -10    9.97    1.42
   8  11 -10   13.47    1.60
  -8  11  10   11.01    1.41
   8 -11  10   10.55    1.44
   8  11  10   13.28    1.70
  -8 -11  10   11.36    1.38
   8 -11 -10   11.21    1.45
  -8  11 -10   13.90    1.55
   8  11  10    8.41    1.21
  -9  11  10    0.15    0.69
   9  11 -10   -0.38    0.62
  -9 -11 -10   -0.08    0.62
   9 -11  10    1.99    0.86
   9  11  10    0.58    0.69
   9 -11 -10    0.52    0.73
  -9  11 -10    0.12    0.62
   0  12 -10   34.23    1.95
   0 -12 -10   36.82    1.98
   0  12  10   31.10    1.81
   0 -12  10   28.60    1.79
   0 -12 -10   29.26    1.76
  -1  12  10    2.16    0.69
   1  12 -10    1.02    0.58
  -1 -12 -10    1.15    0.57
  -1 -12 -10    1.82    0.65
   1 -12  10    1.55    0.67
   1 -12 -10    1.82    0.61
   1 -12 -10    0.37    0.54
  -1 -12  10    1.24    0.70
  -1  12 -10    0.33    0.51
   1  12  10    0.52    0.56
  -2  12  10   11.53    1.23
  -2 -12 -10   13.69    1.48
   2  12 -10   15.06    1.57
   2 -12  10   13.35    1.24
   2 -12  10   12.91    1.31
  -2 -12 -10   13.65    1.42
  -2 -12  10   13.02    1.33
   2 -12 -10   11.82    1.20
  -2  12 -10   10.05    1.17
   2  12  10   10.55    1.24
   2 -12 -10   10.28    1.21
   3 -12  10   46.91    2.20
  -3  12  10   48.73    2.20
   3 -12  10   49.07    2.22
  -3 -12 -10   44.74    2.32
  -3 -12 -10   48.38    2.43
   3  12 -10   48.36    2.47
   3 -12 -10   44.41    2.30
  -3  12 -10   47.13    2.27
   3 -12 -10   48.77    2.30
   3  12  10   43.68    2.23
  -3 -12  10   49.01    2.30
  -4  12  10    0.48    0.53
   4 -12  10    2.01    0.69
  -4 -12 -10    1.13    0.64
   4  12 -10    1.01    0.64
  -4 -12 -10    1.62    0.72
   4 -12  10    1.08    0.65
  -4 -12  10    2.15    0.77
   4  12  10    1.23    0.69
  -4  12 -10    2.01    0.68
   4 -12 -10    2.00    0.68
   5  12 -10    4.26    0.94
   5 -12  10    4.02    0.88
  -5 -12 -10    3.34    0.89
  -5 -12 -10    2.02    0.77
  -5  12 -10    3.61    0.84
  -5 -12  10    3.45    0.90
   5  12  10    3.43    0.90
   5 -12 -10    3.31    0.79
   6 -12  10    7.63    1.21
   6  12 -10   12.90    1.55
  -6 -12 -10    7.60    1.17
   6  12  10    9.73    1.27
  -6 -12  10    9.96    1.30
  -6  12 -10    8.65    1.22
   6 -12 -10    9.91    1.29
  -7  12  10   -0.09    0.64
   7 -12  10    0.05    0.66
  -7 -12 -10    0.20    0.64
   7  12 -10    0.36    0.62
  -7 -12  10    0.23    0.68
   7  12  10   -0.06    0.62
   7  12  10    0.02    0.68
  -7  12 -10    0.11    0.59
   8 -12  10    1.90    0.92
  -8  12  10    1.30    0.81
  -8 -12 -10    0.58    0.74
   8  12 -10    0.06    0.59
  -8 -12  10    0.45    0.72
   8  12  10    0.85    0.77
  -8  12 -10    1.30    0.75
   8  12  10    0.22    0.69
   0 -13 -10    1.30    0.69
   0  13  10    0.46    0.57
   0  13 -10    1.42    0.62
   0 -13 -10    0.82    0.63
   0 -13  10    0.11    0.60
   1  13 -10   11.16    1.35
   1 -13  10   11.90    1.31
  -1 -13 -10    8.55    1.19
  -1 -13 -10    8.35    1.13
  -1  13  10    9.01    1.14
  -1 -13  10    9.43    1.21
   1  13  10    7.28    1.07
  -1  13 -10    6.86    1.09
   1 -13 -10    9.27    1.16
   2 -13  10   20.65    1.59
   2  13 -10   23.75    1.78
  -2 -13 -10   22.55    1.69
  -2  13  10   25.51    1.67
  -2 -13 -10   25.07    1.74
   2 -13  10   20.63    1.54
   2  13  10   23.85    1.69
   2 -13 -10   21.18    1.54
  -2 -13  10   24.11    1.75
  -2  13 -10   23.85    1.69
  -3 -13 -10    1.32    0.71
  -3 -13 -10    1.39    0.71
   3 -13  10    1.88    0.67
   3 -13  10    3.62    0.84
  -3  13  10    2.30    0.71
   3  13 -10    2.58    0.85
  -3 -13  10    0.53    0.65
   3  13  10    1.15    0.70
   3 -13 -10    1.45    0.67
  -3  13 -10    1.66    0.64
  -4  13  10   13.61    1.36
   4 -13  10   15.50    1.51
  -4 -13 -10   14.63    1.58
  -4 -13 -10   13.01    1.56
   4  13 -10   11.66    1.51
   4 -13  10   14.61    1.44
  -4 -13  10   13.79    1.47
  -4  13 -10   12.25    1.39
   4  13  10   11.06    1.41
   5  13 -10    6.27    1.13
  -5 -13 -10    6.54    1.17
  -5 -13 -10    6.08    1.13
   5 -13  10    6.18    1.07
  -5  13 -10    6.64    1.15
   5  13  10    5.43    1.07
  -5 -13  10    9.02    1.25
   6  13 -10    0.22    0.60
  -6 -13 -10   -0.48    0.57
  -6 -13 -10    0.35    0.61
   6 -13  10    0.02    0.67
   6  13  10   -0.04    0.61
  -6  13 -10    0.84    0.66
  -6 -13  10    0.11    0.71
   7 -13  10    4.11    1.04
  -7 -13 -10    6.02    1.21
   7  13 -10    4.83    1.09
  -7 -13 -10    4.59    1.06
  -7  13 -10    4.97    1.06
   7  13  10    3.38    0.95
  -7 -13  10    4.61    1.07
   0 -14  10   14.13    1.44
   0 -14 -10   10.68    1.31
   0  14  10    8.94    1.17
   0  14 -10   11.39    1.48
   1 -14  10    3.11    0.92
   1  14 -10    1.50    0.71
  -1  14  10    2.86    0.84
  -1 -14 -10    3.30    0.85
   1 -14 -10    2.87    0.74
  -1  14 -10    2.32    0.76
   1  14  10    5.24    1.08
  -1 -14  10    3.26    0.89
   2 -14  10    3.36    0.87
  -2  14  10    3.64    0.86
  -2 -14 -10    4.56    0.97
   2 -14  10    3.55    0.92
   2  14 -10    2.75    0.84
   2  14  10    3.49    0.95
  -2 -14  10    3.73    0.94
   2 -14 -10    4.50    0.93
  -2  14 -10    3.27    0.84
   3 -14  10   11.81    1.33
   3  14 -10   11.97    1.50
  -3  14  10    9.16    1.19
  -3 -14 -10   11.99    1.46
   3 -14  10   10.44    1.24
  -3  14 -10    8.89    1.24
   3 -14 -10   11.48    1.35
  -3 -14  10   11.55    1.38
   3  14  10   10.15    1.35
  -4 -14 -10   19.88    1.94
   4  14 -10   17.55    1.84
   4 -14  10   17.24    1.65
  -4  14  10   17.02    1.58
   4  14  10   15.84    1.61
  -4 -14  10   19.54    1.74
  -4  14 -10   17.97    1.78
  -5 -14 -10    4.71    1.10
   5  14 -10    3.62    1.00
   5 -14  10    4.95    1.01
  -5  14 -10    2.33    0.80
  -5 -14  10    4.19    0.99
   5  14  10    3.06    0.92
  -6 -14 -10    2.59    0.89
   6 -14  10    1.89    0.88
   6  14 -10    2.52    0.93
  -6 -14  10    3.24    0.99
  -6  14 -10    1.48    0.76
   6  14  10    1.84    0.85
   0  15  10    0.77    0.69
   0 -15  10    2.03    0.85
   0 -15 -10    1.60    0.77
   0  15 -10    1.43    0.76
   1 -15  10    3.58    0.97
  -1  15  10    2.64    0.86
  -1 -15 -10    4.05    0.95
   1  15 -10    4.12    0.97
  -1  15 -10    4.62    1.03
   1  15  10    2.74    0.89
  -1 -15  10    6.97    1.12
   1 -15 -10    5.93    1.06
  -2 -15 -10    3.73    0.93
   2 -15  10    3.33    0.91
   2  15 -10    3.51    0.96
  -2  15  10    2.25    0.80
  -2  15 -10    4.75    1.03
  -2 -15  10    5.44    1.12
   2 -15 -10    3.20    0.92
   2  15  10    4.03    0.94
   3  15 -10    1.45    0.79
   3 -15  10    1.42    0.80
  -3 -15 -10    1.09    0.75
  -3  15  10    1.46    0.75
   3 -15  10    0.64    0.70
   3 -15 -10    1.02    0.66
  -3 -15  10    1.30    0.84
  -3  15 -10    1.49    0.74
   3  15  10    0.78    0.71
   4  15 -10    6.74    1.25
   4 -15  10   11.10    1.40
  -4 -15 -10   10.48    1.50
  -4  15  10    9.00    1.18
  -4 -15  10   11.38    1.44
   4  15  10    8.63    1.32
  -4  15 -10    7.75    1.18
   5 -15  10    5.34    1.11
   5  15 -10    5.83    1.20
  -5 -15 -10    4.38    1.09
   5  15  10    2.61    0.92
  -5 -15  10    4.67    1.08
  -5  15 -10    3.51    0.92
   0  16 -10   -0.39    0.54
   0  16  10   -0.25    0.58
   0 -16  10    1.03    0.81
   0 -16 -10    0.22    0.65
  -1  16  10    0.10    0.65
  -1 -16 -10    2.49    0.86
   1 -16  10    1.24    0.80
   1  16 -10    0.61    0.73
  -1 -16  10    1.19    0.86
   1  16  10    1.72    0.80
  -1  16 -10    0.14    0.64
   1 -16 -10    1.80    0.79
   2 -16  10    6.34    1.18
  -2  16  10    3.07    0.85
  -2 -16 -10    4.86    1.11
   2  16 -10    5.16    1.19
   2 -16 -10    3.03    0.87
  -2 -16  10    3.77    1.03
  -2  16 -10    3.97    0.99
   2  16  10    2.74    0.94
  -3  16  10    0.75    0.68
   3 -16  10    0.01    0.74
   3  16 -10    0.01    0.70
   3 -16  10    0.29    0.70
  -3 -16 -10   -0.05    0.63
  -3  16 -10   -0.60    0.58
   3 -16 -10    0.50    0.72
  -3 -16  10    0.70    0.86
   3  16  10   -0.44    0.63
   4  16 -10    3.39    1.03
  -4  16 -10    2.53    0.97
   0  17 -10    3.77    1.01
   0   0 -11    0.45    0.36
   0   0  11   -0.37    0.35
   0   0 -11    0.03    0.24
  -1   0  11   76.45    2.61
  -1   0 -11   77.61    2.74
   1   0  11   73.70    2.57
   1   0 -11   79.06    2.44
  -1   0 -11   78.41    2.34
   1   0 -11   74.93    2.69
   1   0  11   73.64    2.19
  -2   0  11   32.69    1.57
  -2   0 -11   32.80    1.31
   2   0 -11   34.63    1.67
  -2   0 -11   34.11    1.73
   2   0  11   29.40    1.29
   2   0  11   34.51    1.59
   2   0 -11   31.03    1.45
   3   0  11    1.30    0.49
  -3   0 -11    1.44    0.52
   3   0  11    1.19    0.42
   3   0 -11    0.99    0.45
  -3   0 -11    1.26    0.36
   3   0 -11    1.54    0.46
  -3   0  11    3.02    0.63
   4   0 -11   15.03    1.10
   4   0 -11   14.00    1.12
  -4   0 -11   16.26    1.21
  -4   0  11   14.87    1.13
   4   0  11   12.99    1.03
   4   0  11   13.53    1.01
  -5   0  11    0.53    0.45
  -5   0 -11   -0.02    0.42
   5   0 -11    0.26    0.44
   5   0  11    0.51    0.41
  -5   0  11    0.54    0.45
   5   0  11    0.76    0.47
   6   0 -11    7.81    1.03
   6   0  11    7.77    0.98
  -6   0  11    8.25    1.01
  -6   0 -11    7.72    1.03
   6   0  11    8.63    0.92
  -6   0  11    6.62    0.85
   7   0  11   25.79    1.64
  -7   0  11   21.17    1.43
  -7   0 -11   27.32    1.72
  -7   0  11   24.77    1.42
   7   0 -11   25.70    1.70
   8   0 -11    1.33    0.62
   8   0  11    1.62    0.68
  -8   0 -11    2.15    0.73
  -8   0  11    2.80    0.74
   9   0 -11    0.40    0.59
  -9   0 -11    0.36    0.60
   9   0  11   -0.01    0.59
  -9   0  11   -0.28    0.48
  10   0 -11   21.11    2.03
  10   0  11   19.12    1.90
 -10   0 -11   18.81    1.86
 -10   0  11   21.28    1.68
 -11   0  11   -0.11    0.60
 -11   0 -11    0.10    0.65
  11   0 -11    0.48    0.68
  11   0  11   -0.04    0.73
   0   1  11   12.68    1.01
   0  -1 -11   14.55    0.88
   0   1 -11   14.51    0.93
   0   1 -11   15.72    1.10
   0  -1  11   15.75    1.11
   0  -1 -11   16.13    1.13
   1   1 -11   14.18    0.96
  -1   1  11   12.87    1.01
  -1  -1 -11   13.87    0.82
   1  -1  11   11.85    0.80
  -1  -1 -11   11.82    1.02
   1   1 -11   11.90    1.00
   1  -1  11   13.69    1.07
   1   1  11   16.13    1.14
  -1  -1  11   16.40    1.12
  -1   1 -11   13.70    1.05
  -1   1 -11   15.42    0.93
   1  -1 -11   15.41    0.93
   1   1  11   14.03    0.78
   1  -1 -11   13.69    1.08
   2   1 -11   14.25    1.07
  -2  -1 -11   16.45    1.23
   2  -1  11   16.34    1.12
   2  -1  11   16.95    0.92
  -2   1  11   18.95    1.20
   2   1 -11   16.73    1.05
  -2  -1 -11   16.44    0.87
   2   1  11   17.95    0.96
   2   1  11   17.85    1.16
  -2  -1  11   13.82    1.08
   2  -1 -11   16.74    1.19
   2  -1 -11   16.24    1.00
  -2   1 -11   17.42    1.21
  -2   1 -11   17.11    0.96
   3   1 -11    9.91    1.04
   3  -1  11    8.50    0.90
  -3  -1 -11   11.18    1.19
   3  -1  11   11.47    0.86
  -3   1  11    9.37    0.95
   3   1 -11    9.97    1.00
  -3   1 -11    9.03    0.74
  -3   1 -11   10.09    1.06
   3  -1 -11    9.15    1.04
   3   1  11   10.35    1.03
  -3  -1  11   12.22    1.10
   3   1  11   10.28    0.82
   3  -1 -11    9.28    0.90
  -4   1  11   -0.06    0.34
   4  -1  11    0.72    0.42
   4   1 -11    0.01    0.33
   4  -1  11    0.68    0.45
  -4  -1 -11    0.99    0.54
   4   1 -11    0.36    0.41
  -4   1  11    0.56    0.45
   4  -1 -11    0.09    0.37
  -4   1 -11    0.01    0.29
  -4  -1  11    1.73    0.56
   4   1  11   -0.15    0.37
  -4   1 -11    0.49    0.40
   4   1  11    0.17    0.35
  -5   1  11   12.51    1.14
  -5   1  11    9.39    1.00
   5  -1  11   11.86    1.09
  -5  -1 -11    9.02    1.09
   5   1 -11    7.98    0.98
   5   1 -11    9.51    1.08
   5  -1  11    9.79    1.02
  -5   1 -11   10.67    1.16
   5  -1 -11   10.68    1.18
  -5  -1  11    8.64    0.95
   5   1  11    9.62    0.99
   5   1  11    9.73    1.02
  -6   1  11    6.64    0.89
   6  -1  11    6.56    0.83
   6  -1  11    6.54    0.92
  -6  -1 -11    7.01    1.03
   6   1 -11    7.72    1.03
  -6   1  11    5.68    0.83
   6   1  11    5.67    0.80
  -6   1 -11    5.58    0.91
  -6  -1  11    7.09    0.87
   6   1  11    5.87    0.89
   6  -1 -11    6.08    0.97
  -6  -1  11    5.90    0.89
   7   1 -11    1.05    0.58
   7  -1  11    1.48    0.60
  -7   1  11    1.39    0.54
  -7   1  11    1.81    0.62
  -7  -1 -11    1.19    0.60
   7  -1 -11    1.10    0.58
   7   1  11    1.31    0.64
  -7  -1  11    1.00    0.51
  -7  -1  11    0.53    0.49
  -7   1 -11    1.74    0.67
   8   1 -11   17.46    1.49
  -8  -1 -11   13.34    1.49
  -8   1  11   13.53    1.40
   8  -1  11   15.17    1.50
  -8  -1  11   17.47    1.41
   8   1  11   17.19    1.51
  -8   1 -11   16.35    1.61
   8  -1 -11   18.29    1.55
   9  -1  11    5.00    1.05
   9   1 -11    3.31    0.89
  -9  -1 -11    2.97    0.91
  -9   1  11    3.72    0.87
  -9   1 -11    2.43    0.82
   9   1  11    2.60    0.87
  -9  -1  11    5.00    0.93
   9  -1 -11    5.51    1.05
  10  -1  11    0.22    0.70
  10   1 -11    0.80    0.69
 -10  -1 -11    0.62    0.73
 -10   1  11    0.44    0.61
  10   1  11    0.74    0.70
  10  -1 -11    0.59    0.68
 -10   1 -11    0.76    0.70
 -10  -1  11    0.36    0.63
  11   1 -11    9.99    1.45
  11  -1  11   11.36    1.53
 -11  -1 -11   13.01    1.66
 -11   1  11   10.92    1.45
 -11   1 -11   11.33    1.54
  11   1  11   12.46    1.62
  11  -1 -11   14.09    1.76
 -11  -1  11   12.69    1.54
   0   2 -11   13.76    1.02
   0  -2  11   11.16    1.05
   0  -2 -11   13.64    1.06
   0  -2 -11   13.05    0.80
   0   2  11   12.23    0.99
   0   2 -11   13.14    0.92
   1  -2  11   32.04    1.57
  -1   2  11   32.82    1.57
  -1  -2 -11   32.77    1.69
   1   2 -11   34.68    1.53
   1   2 -11   30.72    1.52
  -1  -2 -11   34.48    1.27
   1  -2 -11   32.78    1.68
  -1   2 -11   32.51    1.60
   1  -2 -11   38.31    1.46
   1   2  11   35.61    1.66
  -1  -2  11   34.31    1.65
   1   2  11   33.40    1.30
  -1   2 -11   35.00    1.50
   2   2 -11   11.85    0.96
   2  -2  11   12.95    1.02
   2  -2  11   10.99    0.78
  -2   2  11   12.08    1.10
  -2  -2 -11   11.61    1.17
   2   2 -11   11.76    0.95
   2  -2 -11   10.45    0.83
   2   2  11   10.68    1.05
  -2  -2  11   12.97    1.16
  -2   2 -11   12.08    1.02
   2  -2 -11    9.15    1.02
   2   2  11   12.63    0.82
  -2   2 -11   12.23    0.85
  -3   2  11   12.40    1.03
   3  -2  11   12.58    1.00
  -3   2  11   13.21    0.94
   3   2 -11   14.18    1.07
   3  -2  11   11.42    0.88
   3   2 -11   11.97    1.00
  -3  -2 -11   14.38    1.18
   3   2  11   11.89    1.12
   3   2  11   12.11    0.89
  -3   2 -11   10.27    0.79
   3  -2 -11   11.57    1.18
  -3   2 -11   11.25    1.13
  -3  -2  11   12.92    1.07
   4   2 -11   28.07    1.53
  -4  -2 -11   27.58    1.61
  -4   2  11   25.36    1.38
   4  -2  11   27.05    1.43
  -4   2  11   28.98    1.52
   4   2 -11   28.53    1.55
   4  -2  11   29.97    1.47
  -4  -2  11   25.50    1.46
  -4   2 -11   26.89    1.25
   4   2  11   25.85    1.39
  -4   2 -11   25.36    1.47
   4   2  11   23.94    1.37
   4  -2 -11   26.24    1.55
  -5   2  11   12.76    1.04
   5  -2  11   10.32    1.05
   5   2 -11   11.94    1.18
  -5   2  11   12.60    1.06
   5   2 -11   13.22    1.28
   5  -2  11   11.43    1.05
  -5  -2 -11   12.65    1.25
  -5  -2  11   12.78    1.06
  -5   2 -11   12.19    0.87
   5   2  11   10.92    1.07
  -5   2 -11   11.61    1.20
   5  -2 -11   10.98    1.18
   5   2  11   10.61    1.07
   6  -2  11   10.56    1.15
   6   2 -11   12.32    1.22
   6  -2  11   13.17    1.05
  -6   2  11   11.49    1.15
  -6   2  11   13.39    1.19
   6   2 -11   13.62    1.31
  -6  -2 -11   11.08    1.24
   6   2  11   12.79    1.23
   6   2  11   11.96    1.01
   6  -2 -11   14.94    1.46
  -6  -2  11   12.88    1.18
  -6   2 -11    8.57    1.06
   7   2 -11    4.91    0.87
  -7  -2 -11    4.81    0.90
   7  -2  11    4.50    0.90
  -7   2  11    5.70    0.90
  -7  -2  11    4.65    0.88
   7   2  11    6.11    0.98
   7  -2 -11    6.00    1.01
  -7  -2  11    7.04    0.93
  -7   2 -11    7.41    1.05
   8  -2  11    0.21    0.58
  -8   2  11    0.18    0.48
   8   2 -11    0.54    0.56
  -8  -2 -11    1.09    0.59
  -8   2 -11    0.72    0.55
   8  -2 -11    0.11    0.55
  -8  -2  11    0.68    0.53
   8   2  11    0.43    0.60
  -9  -2 -11    5.30    1.07
  -9   2  11    6.05    1.01
   9   2 -11    4.66    0.97
   9  -2  11    6.20    1.11
  -9  -2  11    6.70    1.13
   9  -2 -11    5.72    1.14
   9   2  11    5.12    1.06
  -9   2 -11    4.01    0.98
  10  -2  11    8.02    1.31
 -10   2  11   10.46    1.37
  10   2 -11   13.24    1.60
 -10  -2 -11    8.51    1.35
  10   2  11   12.01    1.58
 -10  -2  11   10.00    1.29
  10  -2 -11   11.08    1.51
 -10   2 -11    9.83    1.37
 -11  -2 -11    0.47    0.71
  11   2 -11    0.88    0.74
  11  -2  11   -0.57    0.73
 -11   2  11   -0.16    0.56
 -11   2 -11    0.28    0.72
  11  -2 -11   -0.01    0.73
 -11  -2  11    0.72    0.68
  11   2  11    0.50    0.76
   0   3 -11   62.99    2.28
   0  -3 -11   58.94    1.87
   0   3 -11   61.13    2.19
   0   3  11   57.40    2.25
   0  -3  11   61.01    2.27
   0  -3 -11   62.34    2.43
   1  -3  11   14.23    1.10
  -1  -3 -11   14.27    1.15
   1   3 -11   15.19    1.04
  -1   3  11   14.29    1.11
   1   3 -11   14.51    1.03
  -1  -3  11   16.57    1.14
  -1   3 -11   16.80    1.04
   1  -3 -11   15.23    1.18
  -1   3 -11   16.72    1.11
   1   3  11   16.15    1.15
   1   3  11   16.52    0.90
   2   3 -11    0.78    0.38
   2   3 -11    0.31    0.38
  -2   3  11    1.69    0.41
  -2  -3 -11    0.52    0.44
  -2   3  11    0.74    0.44
   2  -3  11    0.84    0.35
   2  -3  11    0.26    0.43
  -2  -3  11    0.24    0.45
   2  -3 -11    1.10    0.51
  -2   3 -11    1.28    0.47
   2   3  11    0.80    0.46
  -2   3 -11    0.65    0.34
   2   3  11    1.52    0.38
  -3   3  11   43.22    1.72
  -3  -3 -11   43.10    2.08
   3   3 -11   42.85    1.90
   3   3 -11   46.71    1.95
   3  -3  11   43.88    1.89
  -3   3  11   45.38    1.94
   3  -3  11   46.64    1.77
   3  -3 -11   45.70    2.09
   3   3  11   47.69    1.86
   3   3  11   46.95    1.97
  -3  -3  11   46.04    1.95
  -3   3 -11   49.96    2.07
  -3   3 -11   47.71    1.80
  -4  -3 -11    5.54    0.88
  -4   3  11    5.95    0.81
   4  -3  11    6.27    0.79
   4  -3  11    5.77    0.76
  -4   3  11    5.18    0.72
   4   3 -11    6.31    0.90
   4   3 -11    5.91    0.83
   4  -3 -11    5.41    0.85
  -4   3 -11    7.03    0.91
   4   3  11    5.41    0.82
  -4   3 -11    5.89    0.74
  -4  -3  11    4.99    0.78
   4   3  11    5.44    0.75
   5  -3  11    2.62    0.60
  -5  -3 -11    1.89    0.63
   5   3 -11    2.41    0.64
  -5   3  11    3.08    0.66
   5   3 -11    3.87    0.76
  -5   3  11    1.96    0.56
   5  -3  11    2.10    0.62
   5   3  11    2.58    0.61
   5   3  11    2.04    0.58
  -5   3 -11    3.20    0.57
  -5   3 -11    2.78    0.67
  -5  -3  11    1.62    0.58
   5  -3 -11    2.22    0.64
   6  -3  11    5.96    0.90
   6   3 -11    5.60    0.89
   6   3 -11    6.29    0.93
  -6  -3 -11    6.38    1.00
  -6   3  11    4.56    0.81
  -6   3  11    6.34    0.87
  -6   3 -11    8.02    1.04
   6   3  11    7.34    1.01
   6  -3 -11    8.54    1.12
   6   3  11    8.76    0.97
  -6   3 -11    7.78    0.86
  -6  -3  11    7.12    0.93
   7  -3  11    2.66    0.77
   7   3 -11    2.95    0.72
  -7   3  11    4.13    0.79
  -7  -3 -11    3.67    0.84
   7  -3 -11    1.82    0.67
   7   3  11    3.25    0.70
   7   3  11    3.04    0.78
  -7  -3  11    3.07    0.71
  -7   3 -11    3.18    0.77
  -8  -3 -11    1.76    0.70
  -8   3  11    1.10    0.62
   8  -3  11    2.24    0.74
   8   3 -11    2.14    0.75
   8  -3 -11    1.91    0.74
  -8   3 -11    2.22    0.70
   8   3  11    1.27    0.70
  -8  -3  11    1.07    0.61
  -9   3  11    9.30    1.21
   9  -3  11    9.26    1.32
  -9  -3 -11   11.46    1.49
   9   3 -11   11.44    1.43
  -9   3 -11   11.30    1.39
   9  -3 -11   10.32    1.39
  -9  -3  11   10.05    1.29
   9   3  11    9.89    1.42
 -10   3  11    2.74    0.85
 -10  -3 -11    2.90    0.96
  10  -3  11    2.12    0.87
  10   3 -11    4.53    1.09
  10  -3 -11    2.80    0.93
 -10   3 -11    3.27    0.90
  10   3  11    1.44    0.84
 -10  -3  11    3.57    0.93
 -11  -3 -11    3.47    1.04
  11  -3  11    4.11    1.13
 -11   3  11    5.09    1.08
  11   3 -11    4.43    1.10
 -11   3 -11    4.85    1.11
 -11  -3  11    4.41    1.02
  11  -3 -11    6.09    1.25
  11   3  11    2.37    0.96
   0   4 -11    8.81    0.90
   0   4 -11    8.95    0.94
   0  -4  11   10.91    1.05
   0  -4 -11   10.68    0.77
   0  -4 -11    8.87    1.04
   0   4  11    8.05    0.92
  -1   4  11   27.04    1.14
  -1   4  11   25.33    1.41
   1   4 -11   26.61    1.40
   1  -4  11   26.32    1.42
   1   4 -11   23.69    1.29
  -1  -4 -11   24.31    1.50
   1  -4 -11   26.59    1.55
  -1   4 -11   25.60    1.34
   1   4  11   23.16    1.37
   1   4  11   27.16    1.21
  -1  -4  11   27.41    1.45
  -1   4 -11   24.91    1.33
   2  -4  11   12.30    0.83
  -2   4  11   10.75    0.80
   2   4 -11   11.35    1.10
   2   4 -11   11.59    0.92
  -2   4  11   12.55    1.02
   2  -4  11    9.92    1.00
  -2  -4 -11   12.11    1.27
  -2   4 -11   12.87    0.95
   2   4  11   11.29    0.84
  -2  -4  11   11.97    1.14
   2  -4 -11   10.45    1.11
  -2   4 -11    9.90    1.03
   2   4  11   14.28    1.09
  -3   4  11    3.75    0.68
  -3  -4 -11    3.60    0.73
   3  -4  11    2.03    0.49
   3   4 -11    2.96    0.65
   3  -4  11    4.20    0.71
  -3   4  11    3.28    0.57
   3   4 -11    2.29    0.55
   3  -4 -11    4.46    0.80
  -3  -4  11    2.82    0.64
   3   4  11    2.98    0.66
  -3   4 -11    3.00    0.62
  -3   4 -11    3.63    0.60
   3   4  11    3.99    0.62
   4  -4  11    4.18    0.70
  -4   4  11    4.35    0.74
  -4   4  11    4.58    0.68
   4  -4  11    4.83    0.72
   4   4 -11    4.30    0.72
   4   4 -11    4.76    0.81
  -4  -4 -11    4.06    0.78
   4   4  11    3.81    0.72
  -4  -4  11    4.17    0.75
  -4   4 -11    4.78    0.76
   4  -4 -11    5.81    0.91
   4   4  11    5.78    0.79
  -4   4 -11    4.66    0.68
   5   4 -11   23.44    1.48
  -5   4  11   18.97    1.26
   5  -4  11   21.17    1.35
  -5  -4 -11   20.78    1.48
  -5   4  11   21.76    1.34
   5  -4  11   20.61    1.26
   5   4 -11   20.49    1.33
   5  -4 -11   23.89    1.57
  -5   4 -11   24.57    1.45
  -5   4 -11   21.79    1.23
   5   4  11   21.49    1.35
   5   4  11   23.31    1.40
  -5  -4  11   22.05    1.41
   6   4 -11   16.72    1.35
   6   4 -11   15.70    1.26
  -6   4  11   15.53    1.14
  -6   4  11   14.77    1.19
  -6  -4 -11   14.77    1.48
   6  -4  11   14.89    1.23
   6   4  11   11.27    1.11
   6   4  11   10.89    1.20
  -6   4 -11   12.51    1.02
  -6  -4  11   14.39    1.19
   6  -4 -11   15.33    1.50
  -6   4 -11   14.58    1.19
   7   4 -11    1.22    0.56
  -7   4  11    2.42    0.72
   7   4 -11    3.09    0.75
   7  -4  11    3.62    0.82
  -7  -4 -11    2.74    0.81
   7  -4 -11    3.29    0.82
   7   4  11    3.35    0.78
  -7  -4  11    2.61    0.69
  -7   4 -11    4.47    0.75
  -7   4 -11    4.47    0.86
   7   4  11    3.53    0.71
   8   4 -11   10.76    1.31
   8  -4  11    9.36    1.25
  -8   4  11    8.06    1.14
  -8  -4 -11    9.78    1.33
   8  -4 -11   12.67    1.52
  -8  -4  11    9.83    1.24
   8   4  11    8.52    1.21
  -8   4 -11   10.26    1.25
   9  -4  11    7.49    1.19
  -9  -4 -11    4.81    1.03
   9   4 -11    5.14    0.99
  -9   4  11    3.68    0.88
  -9  -4  11    3.56    0.81
   9   4  11    4.58    1.02
   9  -4 -11    4.99    1.06
  -9   4 -11    3.92    0.95
  10   4 -11    4.73    1.02
 -10   4  11    2.36    0.81
 -10  -4 -11    2.96    0.95
  10  -4  11    2.95    0.99
 -10  -4  11    3.79    0.92
  10  -4 -11    3.44    0.99
 -10   4 -11    3.76    0.97
  10   4  11    4.66    1.06
 -11  -4 -11    4.91    1.21
 -11   4  11    4.30    1.07
  11  -4  11    4.60    1.15
  11   4 -11    5.04    1.18
  11   4  11    3.56    1.07
 -11  -4  11    4.50    0.99
  11  -4 -11    3.54    1.03
 -11   4 -11    6.84    1.20
   0   5 -11   20.86    1.26
   0  -5  11   16.44    1.18
   0  -5 -11   18.94    1.32
   0  -5 -11   19.51    1.03
   0   5 -11   20.32    1.15
  -1  -5 -11    1.22    0.54
   1   5 -11    1.35    0.45
  -1   5  11    1.42    0.52
   1  -5  11    1.51    0.51
   1   5 -11    2.36    0.60
  -1   5 -11    0.86    0.36
   1  -5 -11    0.43    0.41
  -1   5 -11    0.74    0.38
  -1  -5  11    0.90    0.46
   1   5  11    1.45    0.55
   2   5 -11    7.17    0.92
  -2   5  11    6.58    0.71
  -2  -5 -11    5.57    0.86
   2  -5  11    7.11    0.86
   2  -5  11    8.80    0.79
   2   5 -11    7.37    0.83
  -2   5  11    7.08    0.90
   2   5  11    4.61    0.75
  -2   5 -11    6.51    0.82
   2   5  11    6.63    0.77
  -2  -5  11    6.69    0.83
   2  -5 -11    7.11    0.93
  -2   5 -11    7.69    0.86
  -3   5  11    9.62    0.89
   3   5 -11   10.73    1.13
   3   5 -11    9.80    0.99
   3  -5  11    8.87    0.95
   3  -5  11    9.48    0.88
  -3  -5 -11    8.99    1.12
  -3   5  11    7.78    0.90
  -3  -5  11   10.06    1.03
   3   5  11   11.57    0.94
  -3   5 -11   12.95    1.05
   3   5  11    8.90    0.96
   3  -5 -11    9.60    1.09
  -3   5 -11   12.48    0.96
   4  -5  11   17.29    1.17
   4   5 -11   18.21    1.18
   4   5 -11   17.90    1.29
  -4   5  11   16.96    1.21
   4  -5  11   14.35    1.16
  -4  -5 -11   16.16    1.33
  -4   5  11   16.69    1.12
  -4  -5  11   15.72    1.25
   4   5  11   17.29    1.21
  -4   5 -11   17.71    1.20
  -4   5 -11   16.80    1.13
   4  -5 -11   18.29    1.36
   4   5  11   19.24    1.32
  -5   5  11    5.24    0.81
   5   5 -11    4.61    0.82
   5  -5  11    5.47    0.77
  -5   5  11    4.86    0.76
  -5  -5 -11    3.73    0.84
   5  -5  11    4.59    0.76
   5   5 -11    6.86    0.94
   5  -5 -11    4.03    0.82
  -5   5 -11    5.53    0.83
  -5   5 -11    7.14    0.86
  -5  -5  11    6.36    0.89
   5   5  11    4.98    0.82
   5   5  11    5.04    0.78
  -6  -5 -11   10.83    1.30
   6  -5  11   12.18    1.22
   6   5 -11   13.48    1.32
  -6   5  11   11.19    1.10
  -6   5  11   10.12    1.10
   6   5 -11   12.57    1.37
   6   5  11   10.94    1.13
   6  -5 -11   14.43    1.43
  -6  -5  11   15.27    1.35
   6   5  11   15.14    1.30
  -6   5 -11   15.99    1.22
  -6   5 -11   13.50    1.08
   7   5 -11   13.29    1.44
  -7   5  11   18.66    1.38
   7   5 -11   16.36    1.34
   7  -5  11   16.68    1.43
  -7  -5 -11   15.39    1.61
  -7   5 -11   15.14    1.20
   7   5  11   15.90    1.27
   7  -5 -11   18.52    1.56
   7   5  11   15.90    1.36
  -7  -5  11   15.04    1.26
  -7   5 -11   18.33    1.36
   8   5 -11    3.81    0.86
  -8  -5 -11    2.37    0.80
   8  -5  11    2.15    0.78
  -8   5  11    2.66    0.80
   8   5  11    3.07    0.81
  -8  -5  11    2.33    0.72
  -8   5 -11    1.93    0.70
   8  -5 -11    2.88    0.86
  -8   5 -11    2.16    0.73
   9  -5  11    3.51    1.00
  -9  -5 -11    5.95    1.12
   9   5 -11    7.18    1.13
  -9   5  11    6.10    1.05
  -9  -5  11    4.89    0.98
   9   5  11    6.29    1.10
   9  -5 -11    5.62    1.13
  -9   5 -11    5.62    1.06
  10  -5  11    1.15    0.83
 -10  -5 -11    2.93    0.91
 -10   5  11    2.10    0.85
  10   5 -11    1.84    0.81
 -10  -5  11    1.61    0.72
  10  -5 -11    1.26    0.85
  10   5  11    2.51    0.87
   0  -6 -11    9.18    0.79
   0  -6  11    8.52    0.94
   0   6  11    9.55    1.01
   0   6 -11    9.89    0.83
   0   6 -11   10.21    1.04
   0  -6 -11    8.68    1.03
   1   6 -11    5.88    0.74
  -1  -6 -11    6.63    0.77
  -1   6  11    6.87    0.86
   1  -6  11    5.49    0.80
   1   6 -11    7.36    0.95
  -1  -6 -11    6.45    0.97
   1  -6 -11    9.14    1.10
   1   6  11    9.78    1.05
  -1   6 -11    7.77    0.92
  -1  -6  11    8.98    0.98
  -1   6 -11    8.28    0.85
   2   6 -11    4.63    0.78
  -2   6  11    5.46    0.82
   2  -6  11    6.99    0.91
  -2  -6 -11    7.12    1.03
  -2   6  11    6.70    0.72
   2  -6  11    8.23    0.80
   2   6 -11    7.73    0.84
   2  -6 -11    5.08    0.86
   2   6  11    6.04    0.77
  -2   6 -11    4.78    0.71
   2   6  11    5.80    0.87
  -2  -6  11    5.03    0.80
  -2   6 -11    4.94    0.75
  -3   6  11    1.65    0.52
   3   6 -11    2.63    0.61
   3  -6  11    2.61    0.55
   3  -6  11    2.66    0.64
   3   6 -11    2.79    0.58
  -3  -6 -11    2.03    0.66
  -3   6  11    2.63    0.52
  -3  -6  11    2.48    0.67
  -3   6 -11    2.46    0.58
   3  -6 -11    1.95    0.60
  -3   6 -11    1.57    0.50
   3   6  11    3.01    0.68
   3   6  11    2.24    0.53
   4   6 -11    2.73    0.59
  -4  -6 -11    1.33    0.58
   4   6 -11    2.48    0.65
  -4   6  11    1.54    0.49
   4  -6  11    0.80    0.46
   4  -6  11    1.58    0.58
  -4   6  11    2.07    0.60
  -4   6 -11    2.35    0.58
   4  -6 -11    2.22    0.63
  -4  -6  11    2.02    0.61
   4   6  11    1.02    0.50
   4   6  11    0.34    0.49
  -4   6 -11    1.58    0.50
  -5   6  11   16.54    1.19
  -5   6  11   16.33    1.20
   5   6 -11   16.36    1.22
   5  -6  11   15.59    1.22
  -5  -6 -11   16.67    1.40
   5  -6  11   17.90    1.31
   5   6 -11   16.34    1.34
   5   6  11   16.64    1.29
  -5   6 -11   16.59    1.21
   5  -6 -11   18.15    1.42
   5   6  11   16.89    1.28
  -5  -6  11   19.04    1.33
   6  -6  11    0.29    0.54
  -6   6  11    0.45    0.45
   6   6 -11    0.08    0.40
  -6   6  11    0.34    0.49
  -6  -6 -11    0.50    0.52
   6   6 -11    0.37    0.52
  -6  -6  11   -0.28    0.50
   6   6  11    0.43    0.50
   6   6  11    1.41    0.61
  -6   6 -11    0.53    0.49
   6  -6 -11    0.16    0.47
   7  -6  11   11.51    1.29
   7   6 -11    9.00    1.21
  -7  -6 -11   11.54    1.44
  -7   6  11    9.03    1.10
   7   6 -11   11.23    1.26
  -7   6 -11   12.55    1.24
  -7  -6  11   10.40    1.17
   7  -6 -11   11.53    1.39
   7   6  11    9.49    1.06
   7   6  11   10.42    1.28
  -8  -6 -11   23.70    1.81
   8   6 -11   22.02    1.73
   8  -6  11   23.36    1.75
  -8   6  11   24.91    1.72
   8   6 -11   26.97    1.75
   8   6  11   30.08    1.97
   8  -6 -11   28.49    2.01
  -8  -6  11   27.67    1.67
  -8   6 -11   25.87    1.64
   9   6 -11    0.51    0.56
  -9   6  11    0.56    0.66
   9  -6  11    0.79    0.73
  -9  -6 -11    0.41    0.71
   9  -6 -11    0.24    0.66
   9   6  11    0.35    0.64
  -9  -6  11   -0.24    0.48
 -10  -6 -11    1.25    0.78
  10  -6  11    1.19    0.83
  10   6 -11   -0.02    0.61
 -10   6  11    1.15    0.74
 -10  -6  11    0.30    0.56
  10   6  11    0.41    0.70
  10  -6 -11   -0.73    0.66
   0   7 -11    5.14    0.80
   0  -7 -11    8.26    1.04
   0  -7  11    5.67    0.81
   0   7  11    7.16    0.94
   0  -7 -11    7.86    0.84
   1  -7  11   13.90    1.14
  -1  -7 -11   14.93    1.27
  -1   7  11   13.29    1.22
  -1  -7 -11   14.15    1.02
   1   7 -11   13.84    1.15
  -1   7 -11   12.38    1.20
   1  -7 -11   14.19    1.38
  -1  -7  11   12.39    1.20
   1   7  11   11.18    1.11
   2   7 -11    0.17    0.34
  -2  -7 -11   -0.17    0.41
   2  -7  11    0.57    0.48
  -2   7  11   -0.12    0.39
   2  -7  11    0.61    0.41
  -2   7 -11    0.16    0.40
  -2  -7  11   -0.12    0.47
   2  -7 -11    0.20    0.43
   2   7  11    0.16    0.45
  -3   7  11    0.77    0.47
  -3   7  11    0.81    0.41
  -3  -7 -11   -0.25    0.45
   3   7 -11    0.52    0.43
   3  -7  11    0.42    0.46
   3  -7  11    0.42    0.40
   3   7 -11    0.19    0.40
   3   7  11    0.67    0.50
   3  -7 -11    0.60    0.49
   3   7  11    0.15    0.40
  -3   7 -11    0.23    0.41
  -3  -7  11   -0.09    0.47
   4  -7  11   10.25    1.03
   4   7 -11   10.28    1.02
  -4   7  11   10.83    1.08
  -4  -7 -11    8.42    1.16
   4  -7  11    9.32    1.00
   4   7 -11    8.95    1.13
  -4   7  11   10.89    1.03
  -4  -7  11    8.01    1.01
  -4   7 -11    9.06    1.02
   4   7  11    8.44    1.03
   4   7  11   12.19    1.20
   4  -7 -11    9.01    1.17
   5   7 -11    9.42    1.19
   5   7 -11   11.11    1.12
  -5   7  11   10.89    1.08
   5  -7  11    9.13    1.02
  -5   7  11    9.16    1.00
   5  -7  11   10.65    1.06
  -5  -7 -11   12.28    1.33
   5   7  11    9.87    1.16
   5   7  11    9.37    1.07
  -5   7 -11   11.25    1.14
  -5  -7  11    6.07    0.94
   5  -7 -11    8.03    1.11
  -6  -7 -11    2.16    0.73
   6  -7  11    3.68    0.82
  -6   7  11    2.90    0.70
   6   7 -11    4.03    0.81
   6   7 -11    3.89    0.87
   6  -7 -11    3.21    0.82
   6   7  11    2.01    0.67
  -6  -7  11    4.65    0.88
  -6   7 -11    3.82    0.75
   6   7  11    3.16    0.81
  -7  -7 -11    9.70    1.26
   7   7 -11    9.06    1.15
   7   7 -11    9.43    1.24
  -7   7  11    8.98    1.14
   7  -7  11    9.40    1.21
   7   7  11   11.69    1.37
  -7   7 -11   12.02    1.27
  -7  -7  11    7.54    1.05
   7  -7 -11   10.94    1.36
   7   7  11   11.38    1.18
   8   7 -11    3.86    0.95
   8   7 -11    4.98    0.94
   8  -7  11    5.02    1.02
  -8   7  11    3.08    0.85
  -8  -7 -11    3.63    0.90
   8   7  11    5.44    1.07
   8  -7 -11    4.27    0.96
  -8  -7  11    4.29    0.87
  -8   7 -11    3.13    0.75
   9   7 -11    2.46    0.79
  -9  -7 -11    2.33    0.85
  -9   7  11   -0.19    0.66
   9  -7  11    1.14    0.82
   9  -7 -11    2.49    0.88
  -9   7 -11    2.06    0.77
   9   7  11    1.17    0.75
 -10  -7 -11    4.13    1.14
  10  -7  11    4.59    1.10
 -10   7  11    2.52    0.93
  10   7 -11    3.81    0.97
  10   7  11    4.64    1.10
 -10  -7  11    2.65    0.81
  10  -7 -11    3.55    1.02
   0  -8 -11   10.26    0.91
   0   8  11    9.07    1.03
   0   8 -11   12.49    1.25
   0  -8  11   12.74    1.22
   0  -8 -11   12.07    1.26
   1   8 -11    9.15    1.12
  -1   8  11    8.62    0.99
   1  -8  11    9.05    1.05
  -1  -8 -11   10.90    1.25
  -1  -8 -11   10.73    1.06
   1  -8 -11   10.73    1.20
  -1   8 -11    8.89    1.08
  -1  -8  11   10.27    1.08
   1   8  11    9.91    1.09
  -2  -8 -11    2.43    0.70
   2   8 -11    0.34    0.41
  -2  -8 -11    1.11    0.48
   2  -8  11    1.67    0.59
   2  -8  11    1.75    0.51
  -2   8  11    1.55    0.54
  -2  -8  11    0.65    0.55
   2   8  11    0.09    0.48
  -2   8 -11    0.53    0.45
   2  -8 -11    1.32    0.58
   3   8 -11    4.08    0.81
  -3   8  11    4.62    0.79
  -3  -8 -11    4.81    0.94
   3  -8  11    5.83    0.86
   3  -8  11    4.28    0.72
  -3  -8  11    3.94    0.79
  -3   8 -11    6.30    0.90
   3   8  11    3.05    0.65
   3   8  11    3.49    0.70
   3  -8 -11    4.69    0.86
   4  -8  11    8.84    0.99
   4   8 -11   10.17    1.26
  -4  -8 -11    7.41    1.08
   4  -8  11    7.96    0.99
  -4   8  11    9.46    1.06
  -4   8  11    9.08    0.98
  -4   8 -11    9.19    1.06
  -4  -8  11    8.39    1.03
   4   8  11    6.55    0.91
   4   8  11    8.61    1.05
   4  -8 -11    8.92    1.13
  -5  -8 -11    2.96    0.78
  -5   8  11    2.19    0.62
  -5   8  11    4.34    0.76
   5  -8  11    3.82    0.76
   5  -8  11    4.17    0.83
   5   8 -11    3.06    0.78
   5   8  11    4.17    0.86
  -5  -8  11    2.97    0.75
   5  -8 -11    3.84    0.86
   5   8  11    3.13    0.77
  -5   8 -11    3.18    0.72
  -6   8  11    8.24    1.07
   6   8 -11    6.54    1.03
  -6  -8 -11    8.92    1.27
   6  -8  11   11.83    1.24
   6   8  11    7.91    1.13
  -6   8 -11    8.52    1.08
   6  -8 -11   10.01    1.27
   6   8  11    7.82    1.04
  -6  -8  11    9.68    1.19
   7  -8  11    0.53    0.64
   7   8 -11    1.18    0.67
  -7   8  11    1.63    0.68
  -7  -8 -11    1.16    0.71
  -7   8 -11    0.36    0.57
   7   8  11    0.15    0.52
   7   8  11    0.85    0.64
   7  -8 -11    0.82    0.65
  -7  -8  11    0.40    0.67
   8   8 -11    5.70    1.10
  -8  -8 -11    7.74    1.25
  -8   8  11    7.11    1.14
   8  -8  11    5.83    1.08
  -8  -8  11    9.60    1.23
   8   8  11    5.49    1.14
  -8   8 -11    8.59    1.17
   8  -8 -11    7.45    1.22
   9   8 -11    8.61    1.40
  -9  -8 -11   10.16    1.43
   9  -8  11    7.74    1.27
  -9   8  11    6.99    1.20
   9  -8 -11    6.32    1.19
   9   8  11    9.21    1.45
  -9   8 -11    7.24    1.17
  10  -8  11    1.74    0.93
  10   8  11    0.62    0.79
  10  -8 -11   -0.15    0.73
   0  -9 -11   15.73    1.14
   0  -9  11   18.22    1.34
   0   9  11   18.68    1.37
   0   9 -11   11.48    1.21
   0  -9 -11   14.99    1.29
   1  -9  11    5.17    0.85
  -1  -9 -11    5.06    0.78
   1   9 -11    3.87    0.81
  -1  -9 -11    4.69    0.88
  -1   9  11    5.99    0.91
   1   9  11    7.63    1.00
   1  -9 -11    5.68    0.80
  -1   9 -11    5.60    0.88
  -1  -9  11    4.28    0.85
   1  -9 -11    5.79    0.95
   2  -9  11   10.08    1.11
  -2   9  11   10.81    1.18
  -2  -9 -11   10.36    1.12
  -2  -9 -11   12.26    1.33
   2   9 -11   11.60    1.33
   2  -9 -11   11.27    1.26
  -2   9 -11   14.66    1.21
  -2  -9  11   10.64    1.11
   2   9  11   11.74    1.21
  -3  -9 -11   16.09    1.26
  -3  -9 -11   13.82    1.54
   3   9 -11   13.64    1.39
   3  -9  11   13.82    1.25
  -3   9  11   14.01    1.32
   3  -9  11   15.09    1.19
   3   9  11   15.76    1.44
   3  -9 -11   10.93    1.26
  -3   9 -11   14.61    1.38
  -3  -9  11   13.63    1.32
  -4  -9 -11    1.52    0.63
   4   9 -11    1.74    0.67
   4  -9  11    0.64    0.54
  -4   9  11    0.33    0.51
   4  -9  11    1.30    0.58
   4  -9 -11    1.41    0.65
  -4  -9  11    0.26    0.56
   4   9  11    0.02    0.54
  -4   9 -11    1.68    0.61
   4   9  11    1.25    0.59
   5   9 -11    4.73    0.94
  -5   9  11    3.53    0.75
  -5   9  11    3.25    0.76
   5  -9  11    4.19    0.83
  -5  -9 -11    3.42    0.83
   5   9  11    3.16    0.78
  -5  -9  11    2.45    0.80
   5   9  11    2.57    0.73
  -5   9 -11    3.09    0.74
   5  -9 -11    4.05    0.89
  -6  -9 -11    3.27    0.85
   6  -9  11    1.32    0.69
   6   9 -11    1.50    0.65
  -6   9  11    2.89    0.77
   6   9  11    2.06    0.75
   6  -9 -11    2.44    0.75
   6   9  11    1.34    0.63
  -6   9 -11    1.91    0.72
  -6  -9  11    3.24    0.88
   7   9 -11    7.37    1.15
   7  -9  11    6.06    1.06
  -7   9  11    5.87    1.01
  -7  -9 -11    7.32    1.22
   7   9  11    6.58    1.14
  -7   9 -11    5.94    1.05
   7  -9 -11    7.36    1.16
   7   9  11    8.04    1.14
  -7  -9  11    5.07    0.98
   8  -9  11    3.48    0.96
  -8  -9 -11    5.01    1.04
   8   9 -11    4.81    1.09
  -8   9  11    4.61    1.00
   8  -9 -11    5.65    1.12
  -8   9 -11    5.98    1.04
   8   9  11    3.99    1.01
  -8  -9  11    5.06    1.04
  -9   9  11    3.39    0.97
  -9  -9 -11    3.14    0.98
   9  -9  11    3.47    1.03
   9   9 -11    4.23    1.04
   9   9  11    2.34    0.89
  -9   9 -11    4.38    1.01
   9  -9 -11    3.75    1.04
   0  10 -11    3.80    0.76
   0 -10 -11    2.98    0.66
   0 -10 -11    3.36    0.77
   0 -10  11    2.99    0.75
   0  10  11    2.14    0.66
  -1  10  11    0.54    0.54
   1  10 -11   -0.04    0.46
  -1 -10 -11    0.35    0.51
   1 -10  11    0.24    0.58
  -1 -10 -11    0.30    0.46
  -1  10 -11    0.29    0.48
   1 -10 -11    0.20    0.40
   1 -10 -11    0.49    0.50
  -1 -10  11   -0.02    0.52
   1  10  11   -0.16    0.46
   2 -10  11    1.93    0.71
  -2 -10 -11    1.40    0.65
   2  10 -11    2.78    0.77
  -2  10  11    1.67    0.59
  -2 -10 -11    2.27    0.66
   2 -10 -11    1.27    0.60
   2  10  11    1.24    0.66
  -2 -10  11    1.00    0.64
  -2  10 -11    2.46    0.71
   3  10 -11    2.48    0.73
  -3 -10 -11    3.65    0.87
   3 -10  11    3.59    0.72
  -3  10  11    3.95    0.76
   3 -10  11    2.67    0.77
  -3 -10 -11    2.83    0.70
  -3  10 -11    5.35    0.90
   3 -10 -11    4.69    0.89
  -3 -10  11    3.64    0.85
   3  10  11    5.50    0.99
  -4 -10 -11    7.05    1.13
   4 -10  11    8.02    1.02
   4 -10  11    7.32    1.00
  -4  10  11    6.34    0.92
   4  10 -11    7.20    1.14
   4 -10 -11    7.60    1.07
  -4  10 -11    9.18    1.13
   4  10  11    6.24    0.97
  -4 -10  11    8.08    1.06
  -5  10  11    0.52    0.53
   5  10 -11    0.77    0.61
   5 -10  11    0.66    0.63
  -5 -10 -11    0.15    0.56
  -5  10 -11    2.20    0.72
   5 -10 -11    2.42    0.75
  -5 -10  11    1.58    0.74
   5  10  11    2.42    0.78
   5  10  11    0.96    0.65
   6  10 -11   12.38    1.52
   6 -10  11   13.22    1.40
  -6 -10 -11   11.00    1.38
  -6  10  11    8.97    1.17
   6 -10 -11   11.63    1.37
  -6 -10  11   11.21    1.37
   6  10  11   11.77    1.42
  -6  10 -11   14.40    1.49
   6  10  11   11.28    1.28
   7  10 -11    8.91    1.35
   7 -10  11    8.04    1.22
  -7 -10 -11    6.16    1.16
  -7  10  11    7.35    1.12
   7 -10 -11    6.66    1.12
   7  10  11    6.66    1.15
   7  10  11    7.43    1.12
  -7  10 -11    6.31    1.08
  -7 -10  11    5.53    1.04
  -8 -10 -11    0.89    0.73
  -8  10  11    0.52    0.72
   8  10 -11    0.32    0.62
   8 -10  11    0.11    0.73
  -8 -10  11    0.44    0.72
   8  10  11   -0.62    0.65
   8  10  11   -0.63    0.63
  -8  10 -11    0.11    0.59
   8 -10 -11    0.80    0.75
  -9  10  11    6.10    1.22
  -9 -10 -11    4.58    1.09
   9 -10  11    4.77    1.16
   9  10 -11    5.75    1.21
  -9  10 -11    4.74    1.05
   9  10  11    5.22    1.21
   9 -10 -11    4.22    1.07
   0 -11 -11    0.55    0.47
   0 -11  11    0.29    0.63
   0 -11 -11    0.13    0.46
   0  11 -11    0.60    0.50
   0  11  11   -0.64    0.46
   1  11 -11    3.93    0.89
  -1 -11 -11    3.80    0.84
   1 -11  11    2.92    0.75
  -1 -11 -11    2.98    0.76
  -1  11  11    3.34    0.79
   1 -11 -11    5.22    0.84
   1  11  11    3.41    0.79
  -1 -11  11    5.24    0.92
  -1  11 -11    5.72    0.98
   1 -11 -11    4.28    0.84
  -2 -11 -11    7.59    1.18
   2  11 -11    8.79    1.25
  -2  11  11    6.18    0.96
  -2 -11 -11    6.36    1.00
   2 -11  11    6.31    0.99
   2 -11 -11    7.01    1.04
   2  11  11    6.74    1.04
  -2 -11  11    8.33    1.11
  -2  11 -11    9.07    1.17
   3 -11  11    4.52    0.82
  -3 -11 -11    5.73    0.98
  -3  11  11    5.13    0.91
  -3 -11 -11    4.73    0.98
   3  11 -11    6.30    1.10
   3 -11  11    5.41    0.93
  -3 -11  11    5.34    0.98
   3  11  11    4.79    0.91
  -3  11 -11    4.90    0.94
   3 -11 -11    6.05    1.02
  -4 -11 -11    9.34    1.25
  -4  11  11    9.93    1.14
   4 -11  11   10.12    1.20
  -4 -11 -11    8.91    1.31
   4 -11  11    8.67    1.11
   4  11 -11   10.20    1.37
   4 -11 -11   11.16    1.28
   4  11  11    8.68    1.17
  -4  11 -11    9.28    1.19
  -4 -11  11    8.71    1.15
  -5 -11 -11   10.80    1.42
   5  11 -11   12.28    1.51
  -5  11  11    8.79    1.08
   5 -11  11    8.63    1.16
   5  11  11    8.82    1.23
  -5  11 -11    8.81    1.21
  -5 -11  11    9.06    1.21
   5 -11 -11   10.76    1.32
   6  11 -11    2.02    0.79
  -6 -11 -11    2.47    0.85
   6 -11  11    2.79    0.81
   6  11  11    3.30    0.88
   6  11  11    3.29    0.94
  -6  11 -11    5.18    0.98
  -6 -11  11    2.37    0.86
   6 -11 -11    2.82    0.86
  -7  11  11    2.61    0.88
   7 -11  11    2.64    0.90
  -7 -11 -11    2.56    0.88
   7  11 -11    2.55    0.86
  -7 -11  11    2.55    0.87
   7 -11 -11    2.76    0.90
  -7  11 -11    1.74    0.75
   7  11  11    1.32    0.80
   7  11  11    2.01    0.86
  -8 -11 -11    8.72    1.37
   8  11 -11   11.30    1.55
  -8  11  11    8.37    1.29
   8 -11  11   11.20    1.47
   8  11  11    8.04    1.21
  -8 -11  11    8.69    1.27
  -8  11 -11    9.32    1.31
   8 -11 -11   11.29    1.55
   8  11  11    8.55    1.41
   0 -12  11    0.60    0.64
   0 -12 -11   -0.05    0.49
   0 -12 -11    0.53    0.52
   0  12 -11    0.56    0.56
   0  12  11   -0.13    0.48
   1  12 -11    8.85    1.23
   1 -12  11    9.77    1.17
  -1 -12 -11    8.40    1.12
  -1  12  11    6.61    1.04
  -1 -12 -11    8.47    1.16
   1 -12 -11    6.84    1.07
  -1  12 -11    8.94    1.20
   1  12  11    7.19    1.05
  -1 -12  11   10.36    1.28
   1 -12 -11    8.06    1.05
   2 -12  11    3.06    0.82
  -2 -12 -11    4.92    1.01
   2  12 -11    1.71    0.81
  -2  12  11    1.87    0.71
  -2 -12 -11    2.93    0.78
   2 -12 -11    2.33    0.72
   2  12  11    3.07    0.87
  -2  12 -11    2.29    0.72
  -2 -12  11    3.54    0.92
   3 -12  11    4.10    0.90
  -3 -12 -11    5.60    1.07
  -3 -12 -11    6.05    1.08
   3 -12  11    4.74    0.98
  -3  12  11    5.98    0.96
   3  12 -11    5.38    1.03
  -3 -12  11    3.74    0.93
   3 -12 -11    5.84    1.03
  -3  12 -11    5.43    1.02
   3  12  11    3.15    0.91
   4 -12  11   12.24    1.30
   4 -12  11   11.47    1.29
   4  12 -11   12.28    1.46
  -4  12  11   12.58    1.30
  -4 -12 -11   10.83    1.46
  -4 -12 -11   13.69    1.53
  -4 -12  11    9.84    1.29
   4  12  11    9.59    1.21
  -4  12 -11   10.76    1.31
   4 -12 -11   11.84    1.35
   5 -12  11    3.95    0.86
   5  12 -11    7.61    1.20
  -5 -12 -11    5.10    1.06
  -5 -12 -11    3.20    0.91
  -5  12 -11    7.95    1.17
   5 -12 -11    5.52    1.03
   5  12  11    4.89    0.99
  -5 -12  11    7.12    1.15
   6 -12  11   -0.25    0.64
  -6 -12 -11   -0.65    0.49
   6  12 -11   -0.12    0.57
  -6 -12 -11   -0.08    0.57
  -6 -12  11   -0.08    0.69
  -6  12 -11    0.57    0.65
   6  12  11    0.05    0.71
   6 -12 -11    0.24    0.61
   7 -12  11   10.39    1.44
   7  12 -11   14.28    1.73
  -7 -12 -11    9.87    1.44
  -7 -12  11   11.66    1.46
  -7  12 -11   10.86    1.41
   7 -12 -11    9.92    1.45
   7  12  11    8.73    1.29
   0 -13 -11    4.58    0.92
   0 -13 -11    3.59    0.86
   0 -13  11    4.77    0.98
   0  13  11    3.70    0.87
   0  13 -11    3.39    0.80
   1  13 -11    1.43    0.71
  -1  13  11    2.10    0.77
   1 -13  11    3.49    0.93
  -1 -13 -11    3.01    0.82
  -1 -13 -11    2.51    0.79
  -1 -13  11    3.08    0.92
  -1  13 -11    3.14    0.85
   1 -13 -11    2.46    0.76
   1  13  11    2.24    0.82
   1 -13 -11    2.23    0.75
  -2 -13 -11   11.62    1.41
  -2  13  11    9.97    1.25
   2 -13  11   14.59    1.43
  -2 -13 -11   15.87    1.63
   2  13 -11   12.20    1.47
  -2  13 -11   13.76    1.47
  -2 -13  11   13.61    1.50
   2  13  11   12.25    1.41
  -3  13  11    4.89    0.95
  -3 -13 -11    7.69    1.19
   3 -13  11   10.28    1.29
   3  13 -11    9.55    1.39
  -3 -13 -11    9.07    1.27
   3  13  11    7.61    1.18
  -3  13 -11   10.32    1.39
  -3 -13  11    8.66    1.22
   4  13 -11    4.16    1.00
  -4  13  11    5.92    1.01
  -4 -13 -11    4.14    1.00
   4 -13  11    5.19    0.98
  -4 -13 -11    6.41    1.15
  -4 -13  11    6.47    1.15
  -4  13 -11    4.28    0.93
   4  13  11    3.86    0.96
  -5 -13 -11    6.24    1.16
  -5 -13 -11    8.40    1.29
   5  13 -11    8.52    1.38
   5 -13  11    8.43    1.23
  -5  13 -11    5.42    0.99
  -5 -13  11    6.86    1.20
   5  13  11    7.15    1.18
   6 -13  11    2.83    0.94
   6  13 -11    6.91    1.27
  -6 -13 -11    6.97    1.27
  -6 -13 -11    7.85    1.32
  -6 -13  11    7.44    1.25
  -6  13 -11    7.28    1.20
   6  13  11    6.49    1.21
   0 -14  11    9.48    1.30
   0  14 -11   10.14    1.42
   0  14  11    9.12    1.29
   0 -14 -11    8.56    1.15
   1 -14  11    6.89    1.17
  -1  14  11    5.27    1.00
  -1 -14 -11    6.31    1.07
   1  14 -11    5.81    1.11
  -1 -14  11    8.09    1.26
   1 -14 -11    8.46    1.16
  -1  14 -11    7.10    1.22
   1  14  11    6.56    1.13
   2 -14  11    4.88    1.01
   2  14 -11    8.60    1.40
  -2 -14 -11    4.84    1.02
  -2  14  11    3.96    0.89
   2  14  11    3.72    0.97
  -2 -14  11    5.02    1.06
  -2  14 -11    6.40    1.10
  -3  14  11    0.93    0.64
   3 -14  11    1.67    0.79
  -3 -14 -11   -0.12    0.53
   3  14 -11    1.68    0.75
   3  14  11    0.93    0.81
  -3  14 -11    0.34    0.55
  -3 -14  11    0.69    0.81
  -4 -14 -11    4.75    1.06
   4  14 -11    6.00    1.25
   4 -14  11    7.13    1.15
  -4  14  11    6.05    1.03
  -4 -14  11    7.80    1.28
  -4  14 -11    5.70    1.10
   4  14  11    6.74    1.27
   5  14 -11    6.32    1.24
   5 -14  11    6.05    1.12
  -5 -14 -11    4.76    1.10
  -5  14 -11    4.52    0.98
   5  14  11    4.60    1.08
  -5 -14  11    4.78    1.12
   0  15 -11   18.20    1.84
   0 -15 -11   22.47    1.74
   0  15  11   21.51    1.83
   0 -15  11   22.71    1.81
   1  15 -11    0.16    0.67
   1 -15  11    0.81    0.79
  -1 -15 -11    0.00    0.62
  -1  15  11   -0.71    0.58
  -1 -15  11    1.26    0.85
   1 -15 -11    1.17    0.66
   1  15  11    0.83    0.77
  -1  15 -11    1.82    0.81
  -2 -15 -11    3.66    0.96
  -2  15  11    3.23    0.95
   2 -15  11    2.64    0.88
   2  15 -11    4.28    1.05
   2  15  11    4.39    1.04
  -2 -15  11    2.62    1.00
  -2  15 -11    4.02    0.94
  -3 -15 -11    9.71    1.44
   3 -15  11   10.07    1.34
  -3  15  11    8.77    1.27
   3  15 -11   10.07    1.46
   3  15  11    7.75    1.29
  -3  15 -11    7.49    1.23
  -3 -15  11   10.15    1.39
  -4 -15 -11    1.11    0.74
   4  15 -11    1.06    0.80
  -4  15  11    1.99    0.81
  -4  15 -11    1.20    0.78
  -4 -15  11    1.33    0.89
   4  15  11    0.50    0.80
   0 -16 -11    0.45    0.72
   0  16 -11   -0.20    0.62
   0 -16  11   -0.17    0.74
   0  16  11    0.97    0.74
  -1  16  11    6.89    1.23
   1  16 -11    6.56    1.27
  -1 -16 -11    6.46    1.23
   1 -16  11    5.43    1.18
   1  16  11    7.79    1.25
  -1  16 -11    5.91    1.21
  -1 -16  11    7.59    1.35
   1 -16 -11    6.38    1.17
  -2  16  11    0.88    0.67
   2  16 -11    2.18    0.98
   2 -16  11    1.06    0.86
  -2 -16 -11    2.87    0.95
  -2  16 -11    1.47    0.87
   2  16  11    1.68    0.86
  -2 -16  11    1.67    0.97
   0   0 -12  143.21    4.35
   0   0 -12  148.01    3.92
   0   0  12  147.01    4.24
   1   0 -12    1.35    0.44
   1   0 -12    0.97    0.46
  -1   0 -12    1.62    0.43
  -1   0 -12    2.32    0.62
   1   0  12    1.23    0.53
  -1   0  12    2.01    0.61
   2   0  12   45.93    1.98
   2   0 -12   49.26    1.89
  -2   0 -12   45.96    1.67
  -2   0  12   48.76    2.05
  -2   0 -12   45.26    2.10
   2   0 -12   42.53    2.01
   3   0 -12   40.43    1.91
   3   0  12   39.64    1.65
   3   0  12   41.50    1.84
  -3   0  12   37.12    1.79
  -3   0 -12   34.38    1.88
   3   0 -12   39.70    1.78
   4   0 -12    9.92    1.04
   4   0  12    7.70    0.94
  -4   0 -12   10.81    1.24
   4   0  12    7.54    0.86
   4   0 -12    9.71    1.14
  -4   0  12    9.45    1.02
  -5   0  12    0.89    0.47
   5   0 -12    1.13    0.54
  -5   0  12    0.86    0.53
   5   0  12    0.19    0.49
  -5   0 -12    1.03    0.58
   5   0  12    0.80    0.54
  -6   0  12   29.80    1.67
   6   0  12   29.78    1.57
   6   0 -12   31.82    1.87
   6   0  12   32.15    1.78
  -6   0 -12   29.11    1.79
  -6   0  12   28.77    1.61
  -7   0 -12    0.02    0.52
   7   0 -12    0.02    0.50
  -7   0  12    0.14    0.51
   7   0  12    0.13    0.48
  -7   0  12    0.47    0.53
  -8   0 -12    4.67    0.97
   8   0 -12    5.14    1.03
   8   0  12    3.94    0.90
  -8   0  12    4.66    0.95
  -9   0  12    9.06    1.22
   9   0 -12   10.53    1.48
   9   0  12   10.93    1.43
  -9   0 -12    7.90    1.25
  10   0 -12    0.83    0.74
 -10   0  12    0.42    0.64
  10   0  12   -0.25    0.63
 -10   0 -12    0.07    0.65
   0  -1  12    3.08    0.70
   0   1 -12    4.21    0.73
   0   1  12    5.17    0.82
   0   1 -12    4.88    0.67
   0  -1 -12    4.47    0.58
   0  -1 -12    4.09    0.72
   1  -1  12   76.11    2.68
  -1  -1 -12   72.85    2.79
  -1  -1 -12   77.75    2.31
  -1   1  12   72.84    2.64
   1   1 -12   78.10    2.54
   1   1 -12   71.38    2.69
  -1   1 -12   74.78    2.77
   1   1  12   77.40    2.71
  -1  -1  12   73.99    2.71
  -1   1 -12   77.77    2.46
   1  -1 -12   80.09    2.47
   1  -1 -12   73.32    2.79
   2   1 -12    7.19    0.85
  -2  -1 -12    7.60    1.03
   2  -1  12    9.50    1.03
   2   1 -12    6.88    0.90
  -2   1  12    9.84    1.03
   2   1  12   10.14    0.80
  -2   1 -12    8.89    0.84
  -2   1 -12   10.18    1.11
  -2  -1  12    6.28    0.85
   2  -1 -12    7.76    0.98
   2  -1 -12    9.27    0.90
   2   1  12   12.08    1.13
   3   1 -12   19.18    1.23
   3   1 -12   20.23    1.34
   3  -1  12   18.68    1.11
  -3  -1 -12   19.41    1.42
   3  -1  12   18.01    1.25
  -3   1  12   19.58    1.30
   3   1  12   19.41    1.15
   3  -1 -12   20.58    1.24
   3   1  12   18.33    1.28
  -3   1 -12   18.67    1.36
  -3  -1  12   20.24    1.33
  -3   1 -12   19.67    1.06
   3  -1 -12   19.10    1.34
  -4   1  12    2.81    0.64
   4  -1  12    3.27    0.62
   4  -1  12    2.78    0.66
   4   1 -12    2.05    0.60
  -4  -1 -12    1.64    0.63
  -4   1  12    2.20    0.57
   4   1 -12    2.49    0.65
   4   1  12    3.01    0.67
  -4  -1  12    2.26    0.65
   4  -1 -12    2.72    0.66
  -4   1 -12    2.74    0.68
   4   1  12    2.38    0.55
   5  -1  12   36.37    1.72
  -5   1  12   35.49    1.77
   5   1 -12   34.09    1.86
   5  -1  12   36.44    1.78
   5   1 -12   35.12    1.83
  -5  -1 -12   34.42    1.91
  -5   1  12   33.38    1.69
   5  -1 -12   34.14    1.87
  -5   1 -12   32.73    1.82
   5   1  12   33.75    1.70
  -5  -1  12   32.19    1.72
   5   1  12   32.71    1.72
  -6   1  12   11.49    1.14
  -6   1  12   10.42    1.14
   6  -1  12    8.26    0.96
   6  -1  12   10.97    1.15
  -6  -1 -12   10.32    1.32
   6   1 -12    8.78    1.17
   6   1  12   10.63    1.18
   6   1  12    9.42    1.04
   6  -1 -12   10.88    1.25
  -6  -1  12    9.19    1.05
  -6   1 -12   11.07    1.25
  -6  -1  12   10.14    1.15
   7   1 -12   27.43    1.78
   7  -1  12   24.20    1.68
  -7  -1 -12   21.03    1.64
  -7   1  12   24.71    1.60
  -7   1  12   26.49    1.53
   7   1  12   23.58    1.62
  -7   1 -12   24.71    1.73
   7  -1 -12   23.63    1.71
  -7  -1  12   23.30    1.50
  -7  -1  12   23.73    1.57
   8   1 -12    7.13    1.12
  -8  -1 -12    6.42    1.09
  -8   1  12    8.23    1.17
   8  -1  12    6.87    1.10
   8  -1 -12    5.70    1.09
  -8  -1  12    5.95    0.98
   8   1  12    5.88    1.05
  -8   1 -12    7.85    1.17
   9   1 -12    0.40    0.63
  -9  -1 -12   -0.48    0.52
   9  -1  12    0.85    0.69
  -9   1  12    0.46    0.60
   9  -1 -12    0.00    0.54
  -9  -1  12    0.18    0.58
   9   1  12   -0.26    0.59
  -9   1 -12    0.41    0.61
  10  -1  12    2.43    0.88
  10   1 -12    2.03    0.84
 -10   1  12    0.80    0.68
 -10  -1 -12    2.23    0.88
  10   1  12    2.06    0.88
 -10  -1  12    2.20    0.81
  10  -1 -12    2.80    0.99
 -10   1 -12    2.28    0.79
   0  -2  12   29.34    1.59
   0   2  12   32.60    1.66
   0   2 -12   33.63    1.51
   0  -2 -12   29.41    1.63
   0   2 -12   31.37    1.63
   0  -2 -12   32.13    1.33
   1   2 -12   18.13    1.21
   1   2 -12   19.40    1.18
  -1   2  12   18.08    1.27
   1  -2  12   19.10    1.31
  -1  -2 -12   20.44    1.39
   1  -2 -12   16.77    1.02
  -1  -2  12   18.18    1.27
   1   2  12   18.57    1.27
  -1   2 -12   19.16    1.26
  -1   2 -12   17.75    1.10
   1  -2 -12   19.27    1.34
   2   2 -12   44.23    1.95
  -2  -2 -12   41.08    2.05
  -2   2  12   42.35    1.92
   2   2 -12   40.18    1.80
   2  -2  12   43.78    1.92
  -2  -2  12   47.01    2.07
   2  -2 -12   48.39    2.19
  -2   2 -12   48.70    1.85
   2   2  12   48.58    2.07
  -2   2 -12   49.07    2.12
   2  -2 -12   50.50    1.89
   2   2  12   45.23    1.72
   3   2 -12   11.42    1.17
   3  -2  12    9.39    0.89
  -3   2  12    9.49    0.93
   3  -2  12   11.09    1.13
  -3  -2 -12   10.21    1.22
   3   2 -12   11.78    1.13
  -3   2  12    9.94    1.04
  -3  -2  12    7.42    0.97
   3   2  12   11.89    1.15
   3   2  12    9.70    0.83
  -3   2 -12    9.70    0.90
  -3   2 -12    9.77    1.11
   3  -2 -12   10.09    1.11
   4   2 -12   25.04    1.50
  -4   2  12   27.42    1.52
  -4   2  12   27.02    1.42
   4  -2  12   25.94    1.44
  -4  -2 -12   27.17    1.68
   4   2 -12   24.52    1.52
   4  -2  12   23.90    1.37
  -4   2 -12   25.46    1.29
   4   2  12   30.04    1.49
   4   2  12   29.14    1.58
  -4  -2  12   28.24    1.60
  -4   2 -12   28.74    1.64
   4  -2 -12   25.83    1.63
  -5   2  12    5.72    0.82
  -5  -2 -12    5.31    0.92
   5   2 -12    6.79    0.95
  -5   2  12    8.27    0.99
   5  -2  12    5.71    0.84
   5   2 -12    7.47    1.02
   5  -2  12    4.96    0.81
  -5  -2  12    5.38    0.87
   5   2  12    7.08    0.92
   5   2  12    4.94    0.83
   5  -2 -12    7.21    1.04
  -5   2 -12    6.90    0.99
   6  -2  12   25.42    1.61
  -6   2  12   28.87    1.58
  -6   2  12   25.76    1.57
   6  -2  12   25.07    1.48
   6   2 -12   27.65    1.70
  -6  -2 -12   22.05    1.63
   6   2 -12   28.16    1.72
  -6   2 -12   21.95    1.53
   6   2  12   23.83    1.57
   6  -2 -12   20.78    1.57
  -6  -2  12   24.66    1.53
   6   2  12   25.43    1.48
  -7  -2 -12    3.76    0.88
  -7   2  12    3.54    0.78
   7   2 -12    4.03    0.87
   7  -2  12    5.18    0.95
  -7  -2  12    4.26    0.83
  -7   2 -12    2.47    0.73
   7   2  12    3.61    0.79
   7  -2 -12    4.88    0.97
  -7  -2  12    4.74    0.89
   8   2 -12    5.61    1.02
  -8  -2 -12    5.28    1.05
   8  -2  12    4.05    0.94
  -8   2  12    5.92    0.96
  -8   2 -12    5.51    1.01
   8   2  12    3.47    0.85
   8  -2 -12    7.35    1.26
  -8  -2  12    4.64    0.91
   9  -2  12    2.70    0.87
   9   2 -12    3.68    0.95
  -9  -2 -12    2.52    0.87
  -9   2  12    3.56    0.88
  -9  -2  12    2.33    0.76
   9   2  12    2.49    0.86
  -9   2 -12    2.45    0.84
   9  -2 -12    1.64    0.77
 -10  -2 -12    1.94    0.87
  10  -2  12    1.59    0.82
 -10   2  12    0.45    0.69
  10   2 -12    0.91    0.78
  10   2  12    1.87    0.84
 -10  -2  12    2.02    0.82
  10  -2 -12    1.26    0.82
 -10   2 -12    2.72    0.93
   0  -3 -12   17.64    1.02
   0   3 -12   19.18    1.24
   0   3 -12   18.34    1.17
   0   3  12   20.13    1.33
   0  -3 -12   18.66    1.33
   0  -3  12   19.88    1.38
   1  -3  12   18.37    1.32
  -1  -3 -12   18.99    1.38
  -1   3  12   19.32    1.31
   1   3 -12   19.36    1.24
   1   3 -12   19.66    1.22
  -1   3 -12   22.46    1.25
   1   3  12   22.86    1.41
  -1   3 -12   22.93    1.33
   1  -3 -12   18.98    1.34
  -1  -3  12   19.49    1.35
  -2   3  12    2.85    0.53
   2  -3  12    2.67    0.64
  -2   3  12    3.63    0.71
   2   3 -12    2.92    0.61
  -2  -3 -12    2.98    0.73
   2   3 -12    3.01    0.65
   2   3  12    4.82    0.79
   2  -3 -12    6.60    0.96
  -2   3 -12    5.38    0.72
   2   3  12    4.37    0.62
  -2   3 -12    3.96    0.72
  -2  -3  12    3.89    0.74
   3   3 -12   36.23    1.77
  -3  -3 -12   37.71    2.01
   3   3 -12   39.13    1.84
   3  -3  12   36.45    1.60
   3  -3  12   38.12    1.82
  -3   3  12   41.61    1.88
  -3   3  12   34.75    1.59
  -3   3 -12   40.06    1.94
   3  -3 -12   32.45    1.83
   3   3  12   39.94    1.67
  -3  -3  12   38.99    1.86
   3   3  12   40.31    1.88
  -3   3 -12   39.11    1.64
  -4  -3 -12    9.01    1.13
   4  -3  12   10.87    1.09
   4  -3  12   10.50    1.01
   4   3 -12   12.53    1.08
  -4   3  12   11.87    1.17
   4   3 -12   10.89    1.14
  -4   3  12    9.29    0.97
  -4   3 -12   10.27    0.96
  -4  -3  12   10.30    1.12
   4   3  12    9.63    1.07
   4  -3 -12    8.37    1.11
  -4   3 -12    8.22    1.03
   4   3  12   10.78    0.94
  -5   3  12   17.39    1.30
   5  -3  12   19.03    1.34
   5   3 -12   21.30    1.46
   5  -3  12   18.89    1.27
  -5   3  12   17.63    1.25
  -5  -3 -12   19.27    1.48
   5   3 -12   18.89    1.39
  -5   3 -12   18.64    1.39
   5  -3 -12   18.38    1.44
   5   3  12   18.57    1.30
   5   3  12   19.79    1.30
  -5  -3  12   20.12    1.39
  -5   3 -12   18.50    1.14
  -6   3  12    3.25    0.75
  -6   3  12    3.27    0.73
   6   3 -12    3.82    0.86
   6   3 -12    3.97    0.81
  -6  -3 -12    3.49    0.83
   6  -3  12    4.43    0.84
   6  -3 -12    4.89    0.94
  -6   3 -12    4.43    0.84
   6   3  12    4.54    0.82
   6   3  12    4.41    0.83
  -6  -3  12    4.40    0.82
  -7   3  12   26.37    1.66
  -7  -3 -12   27.46    1.88
   7   3 -12   24.56    1.71
   7  -3  12   26.59    1.78
   7   3  12   25.58    1.73
  -7   3 -12   27.30    1.73
  -7  -3  12   26.29    1.61
   7  -3 -12   29.01    1.89
  -8   3  12   -0.04    0.49
  -8  -3 -12    0.59    0.63
   8  -3  12    0.72    0.64
   8   3 -12    0.11    0.53
  -8  -3  12   -0.63    0.39
   8  -3 -12    0.12    0.56
   8   3  12    0.21    0.59
  -8   3 -12   -0.01    0.55
  -9   3  12    5.19    1.03
   9   3 -12    3.40    0.92
  -9  -3 -12    7.47    1.29
   9  -3  12    4.94    1.06
  -9   3 -12    5.88    1.06
   9   3  12    5.41    1.11
   9  -3 -12    8.13    1.36
  -9  -3  12    4.95    0.97
 -10   3  12    7.16    1.17
  10   3 -12    9.70    1.48
  10  -3  12    5.91    1.19
 -10  -3 -12    8.08    1.40
 -10  -3  12    8.61    1.30
  10  -3 -12    7.51    1.37
 -10   3 -12    7.65    1.29
  10   3  12    6.23    1.24
   0  -4  12    0.24    0.48
   0  -4 -12    0.00    0.38
   0   4  12    1.41    0.52
   0   4 -12    0.30    0.35
   0   4 -12    0.13    0.37
  -1   4  12    8.89    1.01
  -1  -4 -12    9.60    1.17
   1  -4  12    8.41    0.98
   1   4 -12    9.38    1.01
   1   4 -12    9.05    0.96
   1   4  12    8.77    1.02
  -1  -4  12    8.86    1.02
  -1   4 -12    7.88    0.91
   1  -4 -12    8.45    1.07
  -1   4 -12    9.26    0.98
  -2   4  12   13.55    1.14
   2   4 -12   15.01    1.10
  -2   4  12   14.72    0.96
   2  -4  12   13.31    1.23
   2   4 -12   16.48    1.19
  -2  -4 -12   16.24    1.34
   2   4  12   18.75    1.30
   2  -4 -12   18.52    1.37
  -2   4 -12   19.75    1.27
  -2  -4  12   17.78    1.26
   2   4  12   19.76    1.12
  -2   4 -12   20.33    1.23
   3  -4  12    0.44    0.53
   3   4 -12    1.97    0.57
  -3   4  12    0.89    0.42
  -3  -4 -12   -0.18    0.47
   3  -4  12    0.27    0.36
   3   4 -12    1.30    0.48
  -3   4  12    0.78    0.49
   3  -4 -12    0.57    0.46
  -3   4 -12    1.42    0.54
  -3   4 -12    1.69    0.48
  -3  -4  12    0.90    0.49
   3   4  12    1.76    0.59
   3   4  12    1.23    0.46
   4   4 -12   45.23    2.09
  -4  -4 -12   43.29    2.19
   4  -4  12   44.45    1.98
  -4   4  12   40.12    1.91
   4  -4  12   42.81    1.86
   4   4 -12   43.73    1.99
  -4   4  12   43.55    1.87
  -4   4 -12   47.91    2.14
  -4  -4  12   50.19    2.16
   4  -4 -12   48.33    2.30
   4   4  12   49.02    2.04
  -4   4 -12   46.14    1.91
   4   4  12   51.78    2.14
   5   4 -12   12.84    1.27
   5   4 -12   11.61    1.25
  -5   4  12   10.66    1.10
   5  -4  12    9.57    1.04
  -5   4  12    9.91    1.07
   5  -4  12   11.24    1.10
  -5  -4 -12   11.43    1.32
  -5  -4  12   11.24    1.15
  -5   4 -12   10.60    1.18
  -5   4 -12   12.54    0.97
   5  -4 -12   10.89    1.25
   5   4  12   11.09    1.15
   5   4  12   13.96    1.28
   6   4 -12    4.50    0.88
  -6  -4 -12    6.08    1.05
   6  -4  12    6.45    0.97
   6   4 -12    7.15    1.05
  -6   4  12    5.83    0.88
  -6   4  12    5.13    0.85
  -6   4 -12    7.29    0.88
   6   4  12    6.02    0.93
   6  -4 -12    6.11    1.06
  -6   4 -12    7.14    1.03
   6   4  12    6.35    0.88
  -6  -4  12    7.11    1.00
  -7   4  12    3.90    0.82
   7  -4  12    1.52    0.71
   7   4 -12    3.22    0.84
  -7  -4 -12    2.71    0.80
   7   4 -12    2.36    0.71
  -7  -4  12    2.62    0.72
   7   4  12    1.90    0.63
   7   4  12    3.36    0.81
  -7   4 -12    2.15    0.69
   7  -4 -12    5.10    0.98
  -8  -4 -12    7.04    1.23
  -8   4  12    7.95    1.11
   8  -4  12    7.23    1.14
   8   4 -12    5.82    1.04
  -8  -4  12    5.83    1.06
   8  -4 -12    6.44    1.12
   8   4  12    7.39    1.13
  -8   4 -12    6.65    1.06
  -9  -4 -12    2.01    0.81
   9   4 -12    1.12    0.71
  -9   4  12    1.32    0.69
   9  -4  12    0.39    0.69
  -9   4 -12    1.22    0.70
  -9  -4  12    1.19    0.64
   9   4  12    0.36    0.65
   9  -4 -12    0.79    0.74
 -10   4  12    4.68    1.03
  10  -4  12    3.86    1.06
  10   4 -12    5.38    1.12
 -10  -4 -12    5.16    1.17
 -10   4 -12    5.87    1.12
  10   4  12    5.96    1.18
 -10  -4  12    6.41    1.15
  10  -4 -12    5.74    1.24
   0  -5 -12    2.51    0.65
   0   5 -12    3.65    0.64
   0   5 -12    4.78    0.77
   0   5  12    1.65    0.53
   0  -5  12    3.60    0.73
   1  -5  12    9.73    1.05
   1   5 -12   11.30    0.95
  -1  -5 -12   11.30    1.24
   1   5 -12   13.29    1.08
  -1   5  12   10.81    1.12
   1  -5 -12    9.53    1.17
   1   5  12    8.28    0.98
  -1   5 -12   12.94    1.03
  -1   5 -12   10.38    1.03
  -1  -5  12   10.29    1.08
  -2  -5 -12   -0.36    0.44
  -2   5  12    0.30    0.35
  -2   5  12    0.17    0.46
   2   5 -12    0.38    0.36
   2   5 -12    1.01    0.50
   2  -5  12   -0.36    0.44
   2  -5 -12    0.60    0.51
  -2   5 -12    0.47    0.39
   2   5  12    0.36    0.49
   2   5  12    0.51    0.36
  -2   5 -12    0.33    0.41
  -2  -5  12   -0.06    0.45
   3   5 -12   24.71    1.42
   3  -5  12   22.14    1.44
  -3   5  12   21.77    1.46
  -3  -5 -12   24.89    1.67
  -3   5  12   24.57    1.30
   3   5 -12   26.22    1.56
   3  -5  12   25.30    1.42
  -3  -5  12   21.63    1.43
  -3   5 -12   23.90    1.42
  -3   5 -12   20.32    1.28
   3  -5 -12   22.42    1.53
   3   5  12   23.54    1.31
   4   5 -12    5.13    0.89
   4  -5  12    6.84    0.94
  -4  -5 -12    6.64    1.06
  -4   5  12    5.17    0.84
   4  -5  12    5.87    0.81
   4   5 -12    5.32    0.82
  -4   5  12    5.75    0.78
  -4   5 -12    4.75    0.81
   4   5  12    7.56    0.96
   4  -5 -12    6.47    1.02
   4   5  12    6.65    0.86
  -4  -5  12    8.03    1.02
  -4   5 -12    6.94    0.87
  -5   5  12    3.41    0.76
   5  -5  12    4.77    0.81
   5   5 -12    4.06    0.81
   5  -5  12    4.51    0.81
  -5   5  12    5.19    0.80
  -5  -5 -12    3.41    0.82
   5   5 -12    4.84    0.85
  -5  -5  12    3.45    0.80
   5   5  12    5.44    0.88
   5  -5 -12    5.70    0.99
   5   5  12    5.92    0.87
  -5   5 -12    4.62    0.83
  -5   5 -12    5.95    0.82
  -6   5  12    5.64    0.87
  -6  -5 -12    5.81    1.02
   6   5 -12    7.63    1.14
   6   5 -12    6.27    0.98
  -6   5  12    8.01    1.03
   6  -5  12    5.65    0.91
  -6  -5  12    9.46    1.14
   6  -5 -12    8.24    1.14
  -6   5 -12    7.26    1.01
   6   5  12    8.12    1.03
  -6   5 -12    7.76    0.96
   6   5  12    8.12    1.07
   7   5 -12   14.46    1.46
  -7  -5 -12    9.59    1.27
   7   5 -12   10.85    1.39
   7  -5  12   10.24    1.25
  -7   5  12   10.13    1.19
  -7   5 -12    9.60    1.08
   7   5  12   12.09    1.36
  -7  -5  12   12.11    1.27
   7  -5 -12   11.42    1.38
  -7   5 -12    8.94    1.14
   7   5  12   10.73    1.13
   8  -5  12   -0.91    0.58
   8   5 -12    0.18    0.56
  -8   5  12    0.79    0.64
  -8  -5 -12    1.47    0.74
   8   5  12    0.20    0.62
   8  -5 -12    1.41    0.75
  -8   5 -12    0.62    0.59
  -8  -5  12    0.73    0.62
  -9   5  12   20.90    1.68
  -9  -5 -12   24.73    1.94
   9  -5  12   23.39    1.90
   9   5 -12   23.01    1.79
   9  -5 -12   23.16    1.91
   9   5  12   21.95    1.84
  -9  -5  12   23.93    1.75
  10   5 -12    3.96    0.96
 -10  -5 -12    3.97    1.06
  10  -5  12    4.67    1.14
 -10   5  12    4.45    1.04
  10   5  12    2.18    0.85
 -10  -5  12    2.46    0.87
  10  -5 -12    2.53    0.96
   0   6 -12    4.96    0.74
   0   6  12    4.06    0.76
   0   6 -12    4.79    0.78
   0  -6  12    4.42    0.82
   0  -6 -12    6.55    1.01
  -1  -6 -12    2.10    0.52
  -1   6  12    1.76    0.58
   1   6 -12    2.06    0.63
   1   6 -12    2.58    0.56
  -1  -6 -12    1.27    0.53
   1  -6  12    1.36    0.60
   1   6  12    2.43    0.63
  -1   6 -12    2.76    0.57
   1  -6 -12    2.46    0.69
  -1  -6  12    2.73    0.69
  -1   6 -12    1.50    0.55
  -2   6  12   38.74    1.90
   2   6 -12   41.88    1.77
  -2  -6 -12   37.95    2.05
   2   6 -12   34.53    1.85
   2  -6  12   38.38    1.83
  -2  -6  12   35.56    1.84
   2   6  12   35.03    1.61
   2  -6 -12   30.04    1.80
  -2   6 -12   36.71    1.68
   2   6  12   33.98    1.78
  -2   6 -12   35.77    1.72
  -3  -6 -12    1.20    0.61
  -3   6  12    0.56    0.39
   3   6 -12    0.65    0.53
  -3   6  12    0.67    0.53
   3   6 -12    0.43    0.39
   3  -6  12    0.44    0.51
   3  -6 -12    0.11    0.44
  -3  -6  12    1.24    0.57
  -3   6 -12    0.51    0.45
   3   6  12    0.92    0.52
   3   6  12    0.22    0.40
  -4   6  12   33.13    1.60
  -4  -6 -12   32.56    1.95
  -4   6  12   29.78    1.64
   4   6 -12   33.07    1.70
   4  -6  12   30.96    1.71
   4   6 -12   31.87    1.81
   4  -6  12   29.74    1.62
   4   6  12   29.93    1.70
   4   6  12   31.60    1.66
  -4   6 -12   29.46    1.61
  -4  -6  12   30.00    1.74
   4  -6 -12   31.25    1.86
  -5   6  12   10.91    1.12
   5   6 -12   10.57    1.16
   5  -6  12   11.53    1.14
  -5  -6 -12    9.57    1.26
   5  -6  12   11.48    1.13
   5   6 -12   11.03    1.31
  -5   6  12   10.91    1.10
   5   6  12   10.05    1.15
  -5   6 -12   11.99    1.19
   5  -6 -12   11.25    1.33
  -5  -6  12   11.07    1.18
   5   6  12   11.89    1.24
   6   6 -12    0.86    0.50
  -6  -6 -12   -0.19    0.50
  -6   6  12   -0.21    0.45
   6  -6  12    0.83    0.60
  -6   6  12    0.06    0.45
   6   6 -12    0.76    0.57
  -6   6 -12    0.07    0.48
   6   6  12    0.01    0.48
  -6  -6  12    0.92    0.58
   6  -6 -12    0.11    0.52
   6   6  12    1.16    0.59
   7  -6  12    6.67    1.05
  -7  -6 -12    6.55    1.13
  -7   6  12    6.46    0.99
   7   6 -12    7.39    1.10
   7   6 -12    5.93    1.11
   7  -6 -12    7.38    1.24
  -7   6 -12    6.50    0.98
   7   6  12    6.82    1.01
  -7  -6  12    6.09    0.99
   7   6  12    8.83    1.20
   8   6 -12   14.76    1.65
   8  -6  12   15.31    1.55
   8   6 -12   14.68    1.56
  -8   6  12   17.05    1.61
  -8  -6 -12   12.81    1.54
   8  -6 -12   15.41    1.70
   8   6  12   16.64    1.69
  -8  -6  12   14.92    1.44
   9   6 -12    1.60    0.73
  -9  -6 -12    0.48    0.67
  -9   6  12    1.49    0.78
   9  -6  12    1.69    0.88
  -9  -6  12    0.49    0.61
   9  -6 -12    1.40    0.78
   9   6  12    0.66    0.69
  10   6 -12    1.52    0.85
 -10   6  12    1.72    0.83
  10  -6  12    0.76    0.89
 -10  -6 -12    0.87    0.74
 -10  -6  12    2.09    0.79
  10  -6 -12    1.17    0.87
  10   6  12    1.72    0.89
   0   7 -12    0.79    0.46
   0   7  12    1.02    0.54
   0  -7  12    1.58    0.63
   0  -7 -12    0.48    0.52
  -1   7  12   19.89    1.39
  -1  -7 -12   22.87    1.30
   1   7 -12   20.88    1.45
   1  -7  12   23.08    1.50
  -1  -7 -12   23.73    1.61
   1   7  12   20.36    1.44
  -1  -7  12   19.31    1.43
  -1   7 -12   25.86    1.51
   1  -7 -12   20.48    1.51
   2   7 -12    3.06    0.73
  -2   7  12    4.05    0.76
  -2  -7 -12    3.42    0.83
   2  -7  12    4.49    0.84
  -2   7 -12    4.30    0.79
   2   7  12    4.17    0.80
   2  -7 -12    4.31    0.85
  -2  -7  12    4.72    0.86
  -3   7  12   21.90    1.43
   3   7 -12   24.07    1.57
   3  -7  12   24.65    1.51
  -3  -7 -12   20.68    1.63
  -3  -7  12   22.61    1.52
   3   7  12   21.93    1.52
  -3   7 -12   20.88    1.39
   3   7  12   23.71    1.43
   3  -7 -12   22.22    1.56
   4  -7  12    4.73    0.78
  -4   7  12    3.19    0.65
   4  -7  12    4.35    0.82
  -4  -7 -12    2.39    0.76
  -4   7  12    1.89    0.61
   4   7 -12    3.97    0.81
   4   7  12    2.60    0.74
   4   7  12    2.53    0.66
  -4  -7  12    2.74    0.75
   4  -7 -12    2.88    0.79
  -4   7 -12    3.22    0.72
  -5  -7 -12    6.38    1.09
   5   7 -12    5.42    0.96
   5  -7  12    6.42    0.95
  -5   7  12    6.26    0.90
  -5   7  12    8.26    1.03
   5  -7  12    4.92    0.89
  -5   7 -12    5.78    0.89
   5   7  12    4.69    0.84
  -5  -7  12    4.87    0.92
   5  -7 -12    5.00    0.97
   5   7  12    3.87    0.82
  -6  -7 -12   11.84    1.43
   6  -7  12   11.70    1.27
   6   7 -12   13.36    1.52
   6   7 -12   13.96    1.56
  -6   7  12   10.96    1.20
   6  -7 -12   10.44    1.33
   6   7  12   10.36    1.16
  -6  -7  12   12.03    1.30
   6   7  12   12.19    1.35
  -6   7 -12   11.94    1.26
   7   7 -12    3.82    0.85
   7  -7  12    4.39    0.94
  -7  -7 -12    3.90    0.96
  -7   7  12    3.98    0.86
   7   7 -12    2.95    0.86
  -7  -7  12    3.24    0.86
  -7   7 -12    3.88    0.87
   7  -7 -12    3.27    0.93
   7   7  12    3.66    0.82
   7   7  12    3.56    0.91
   8   7 -12    1.82    0.75
  -8   7  12    0.71    0.66
   8   7 -12    1.49    0.74
   8  -7  12    1.39    0.79
  -8  -7 -12    1.10    0.72
  -8  -7  12    0.50    0.64
   8  -7 -12    0.07    0.62
  -8   7 -12    3.11    0.81
   8   7  12    2.04    0.83
  -9  -7 -12   16.99    1.91
  -9   7  12   21.34    1.77
   9  -7  12   18.60    1.81
   9   7 -12   20.53    1.75
   9  -7 -12   18.39    1.92
   9   7  12   17.14    1.81
   0   8  12    8.34    1.10
   0  -8  12    8.13    1.03
   0   8 -12    7.75    1.04
   0  -8 -12    9.82    1.22
  -1  -8 -12   13.85    1.11
   1  -8  12   13.48    1.32
  -1   8  12   13.06    1.28
  -1  -8 -12   14.01    1.49
   1   8 -12   13.86    1.42
   1  -8 -12   15.80    1.53
   1   8  12   11.62    1.19
  -1   8 -12   11.21    1.17
  -1  -8  12   11.08    1.18
  -2   8  12   25.46    1.57
   2  -8  12   26.03    1.62
  -2  -8 -12   25.63    1.74
  -2  -8 -12   24.65    1.47
   2   8 -12   26.21    1.65
   2  -8 -12   24.39    1.69
  -2  -8  12   23.68    1.60
   2   8  12   26.10    1.63
  -2   8 -12   25.85    1.57
  -3   8  12    2.15    0.65
  -3  -8 -12    2.47    0.75
   3  -8  12    1.61    0.66
   3   8 -12    2.00    0.67
   3  -8 -12    2.28    0.73
  -3  -8  12    2.19    0.76
  -3   8 -12    2.87    0.69
   3   8  12    3.39    0.83
   4   8 -12   19.35    1.50
  -4   8  12   15.90    1.30
   4  -8  12   15.50    1.29
  -4  -8 -12   18.04    1.55
   4  -8  12   18.92    1.38
   4   8  12   17.21    1.42
  -4  -8  12   17.56    1.55
   4  -8 -12   15.15    1.56
   4   8  12   14.22    1.25
  -4   8 -12   15.88    1.44
  -5  -8 -12    4.20    0.94
  -5   8  12    4.43    0.80
  -5   8  12    5.22    0.88
   5  -8  12    3.75    0.76
   5   8 -12    4.14    0.89
  -5   8 -12    5.59    0.92
   5   8  12    5.86    0.99
   5  -8 -12    3.91    0.86
  -5  -8  12    4.62    0.96
   5   8  12    2.96    0.78
   6   8 -12    3.30    0.89
  -6   8  12    2.52    0.73
  -6  -8 -12    2.16    0.79
   6  -8  12    3.33    0.82
  -6   8 -12    2.67    0.70
   6  -8 -12    4.81    1.02
  -6  -8  12    3.77    0.91
   6   8  12    3.28    0.80
   6   8  12    2.90    0.81
  -7  -8 -12   13.25    1.62
   7   8 -12   10.91    1.48
   7  -8  12   10.06    1.32
  -7   8  12   12.44    1.39
  -7  -8  12    9.40    1.25
   7   8  12    9.95    1.32
   7  -8 -12   11.47    1.44
   7   8  12    9.30    1.13
  -7   8 -12   11.28    1.29
  -8  -8 -12   13.80    1.72
   8   8 -12   14.43    1.72
  -8   8  12   14.35    1.52
   8  -8  12   13.86    1.54
   8  -8 -12   10.79    1.45
   8   8  12   12.04    1.49
  -8   8 -12   12.13    1.39
  -8  -8  12   10.60    1.34
  -9  -8 -12    1.44    0.78
   9  -8  12    0.70    0.81
   9   8 -12    0.04    0.72
  -9   8  12   -0.23    0.68
   9   8  12   -0.51    0.69
  -9   8 -12    0.94    0.68
   9  -8 -12    0.67    0.75
   0   9 -12    1.76    0.64
   0   9  12    2.79    0.75
   0  -9 -12    3.99    0.83
   0  -9  12    2.96    0.82
   1  -9  12   30.80    1.76
   1   9 -12   31.09    1.85
  -1   9  12   29.70    1.73
  -1  -9 -12   30.84    1.64
  -1  -9 -12   25.52    1.75
  -1   9 -12   30.76    1.81
   1   9  12   32.02    1.81
   1  -9 -12   30.74    1.87
  -1  -9  12   30.76    1.84
  -2   9  12    7.32    1.01
   2  -9  12   11.14    1.21
   2   9 -12    8.81    1.13
  -2  -9 -12    9.51    1.25
  -2  -9 -12    8.91    1.06
  -2  -9  12   11.46    1.26
   2   9  12   11.49    1.24
  -2   9 -12   13.54    1.35
   2  -9 -12   13.84    1.46
  -3  -9 -12   13.18    1.49
  -3   9  12   12.23    1.24
  -3  -9 -12   11.08    1.23
   3   9 -12   11.80    1.36
   3  -9  12   14.61    1.33
   3  -9 -12    9.26    1.24
  -3   9 -12   12.83    1.35
  -3  -9  12   11.97    1.32
   3   9  12   12.53    1.34
   4  -9  12    3.34    0.75
   4   9 -12    2.83    0.77
  -4   9  12    3.20    0.75
   4  -9  12    2.63    0.77
  -4  -9 -12    3.22    0.90
  -4  -9  12    5.34    0.99
   4   9  12    4.47    0.88
   4  -9 -12    3.39    0.83
  -4   9 -12    3.76    0.80
   4   9  12    4.46    0.89
   5  -9  12    9.09    1.15
   5   9 -12   11.03    1.40
  -5  -9 -12    8.97    1.29
  -5   9  12    9.04    1.10
   5   9  12    9.28    1.17
  -5  -9  12   12.03    1.37
  -5   9 -12   12.35    1.33
   5   9  12   11.03    1.29
   5  -9 -12   13.53    1.48
  -6  -9 -12    0.90    0.71
   6  -9  12    0.63    0.66
   6   9 -12    0.99    0.72
  -6   9  12    0.85    0.61
  -6  -9  12    0.89    0.76
   6   9  12    0.34    0.53
   6   9  12    1.00    0.64
   6  -9 -12    0.31    0.65
  -6   9 -12    1.37    0.63
   7  -9  12    9.26    1.26
  -7  -9 -12    8.59    1.31
   7   9 -12   14.13    1.64
  -7   9  12    9.78    1.29
   7   9  12   10.44    1.36
   7   9  12    7.95    1.13
  -7  -9  12   11.72    1.44
  -7   9 -12    8.58    1.22
   7  -9 -12   11.56    1.55
  -8  -9 -12    4.01    1.08
   8  -9  12    5.42    1.11
  -8   9  12    2.49    0.92
   8   9 -12    4.13    0.98
  -8   9 -12    4.65    0.98
  -8  -9  12    3.00    0.96
   8   9  12    3.63    0.96
   8  -9 -12    4.98    1.14
   0  10  12   36.26    2.02
   0 -10  12   41.35    2.11
   0  10 -12   43.59    2.21
   0 -10 -12   37.96    2.14
  -1  10  12    3.87    0.78
   1  10 -12    4.57    0.92
  -1 -10 -12    4.60    0.84
  -1 -10 -12    6.54    1.06
   1 -10  12    5.72    1.02
  -1  10 -12    7.07    1.09
  -1 -10  12    7.20    1.09
   1  10  12    5.57    0.96
   1 -10 -12    5.03    0.96
  -2  10  12   18.06    1.44
  -2 -10 -12   19.93    1.60
   2  10 -12   20.65    1.59
   2 -10  12   18.41    1.46
  -2 -10 -12   20.23    1.46
  -2 -10  12   19.34    1.60
   2 -10 -12   18.52    1.51
   2  10  12   19.62    1.57
  -2  10 -12   22.28    1.57
  -3  10  12    3.02    0.73
   3  10 -12    2.25    0.73
   3 -10  12    3.57    0.81
  -3 -10 -12    2.59    0.78
  -3 -10 -12    3.71    0.79
   3  10  12    4.02    0.93
  -3 -10  12    3.53    0.92
  -3  10 -12    3.05    0.76
   3 -10 -12    1.74    0.69
   4  10 -12    8.04    1.24
   4 -10  12    8.62    1.10
  -4  10  12    6.17    0.94
  -4 -10 -12    6.94    1.08
  -4 -10 -12    8.20    1.28
   4  10  12    9.09    1.20
  -4  10 -12    7.86    1.13
   4 -10 -12    7.21    1.13
  -4 -10  12    7.99    1.19
  -5  10  12    3.25    0.77
   5 -10  12    2.58    0.79
   5  10 -12    1.71    0.76
  -5 -10 -12    1.66    0.78
  -5 -10  12    4.12    0.99
   5  10  12    3.36    0.85
   5  10  12    3.54    0.85
   5 -10 -12    3.83    0.96
  -5  10 -12    2.75    0.76
   6 -10  12   17.97    1.65
  -6 -10 -12   16.79    1.77
   6  10 -12   16.50    1.72
   6  10  12   16.07    1.68
  -6 -10  12   19.89    1.69
   6  10  12   14.91    1.55
   6 -10 -12   19.79    1.71
  -6  10 -12   21.85    1.64
  -7  10  12    2.64    0.87
   7  10 -12    4.27    1.01
   7 -10  12    3.01    0.86
  -7 -10 -12    2.99    0.90
  -7 -10  12    2.60    0.90
   7  10  12    2.87    0.87
  -7  10 -12    5.59    1.06
   7 -10 -12    3.34    0.94
   7  10  12    3.98    0.95
  -8 -10 -12    0.96    0.72
  -8  10  12    1.43    0.80
   8 -10  12    1.17    0.88
   8  10 -12   -0.16    0.65
  -8  10 -12    1.77    0.81
   8  10  12    0.80    0.68
  -8 -10  12    0.19    0.76
   8 -10 -12    1.66    0.86
   0  11 -12    8.84    1.23
   0 -11  12   12.28    1.35
   0  11  12   11.17    1.34
   0 -11 -12   12.68    1.46
  -1  11  12   25.38    1.71
   1 -11  12   25.65    1.75
   1  11 -12   23.09    1.74
  -1 -11 -12   22.95    1.72
  -1 -11 -12   25.50    1.60
   1 -11 -12   23.19    1.67
   1  11  12   20.30    1.59
  -1  11 -12   24.48    1.69
  -1 -11  12   23.23    1.72
   2 -11  12    7.57    1.16
  -2  11  12    7.63    1.10
  -2 -11 -12    8.97    1.29
   2  11 -12    7.99    1.22
  -2 -11 -12    8.69    1.13
   2  11  12    8.12    1.14
  -2  11 -12    7.34    1.09
  -2 -11  12    6.97    1.08
   2 -11 -12    7.86    1.13
   3 -11  12    5.08    0.94
  -3  11  12    6.33    1.03
  -3 -11 -12    5.79    1.09
   3  11 -12    6.47    1.17
  -3 -11 -12    7.98    1.16
   3 -11 -12    7.55    1.13
  -3  11 -12    6.95    1.10
  -3 -11  12    6.39    1.06
   3  11  12    5.43    0.98
  -4 -11 -12    0.91    0.57
  -4  11  12    0.92    0.65
   4  11 -12    0.95    0.66
  -4 -11 -12    0.52    0.66
   4 -11  12    0.86    0.68
  -4  11 -12    0.59    0.60
   4 -11 -12    1.63    0.72
  -4 -11  12    1.72    0.78
   4  11  12    1.33    0.71
   5  11 -12   15.42    1.73
  -5 -11 -12   12.06    1.44
  -5  11  12   14.25    1.40
  -5 -11 -12   12.15    1.54
   5 -11  12   13.65    1.38
   5  11  12   11.05    1.39
  -5 -11  12   10.62    1.38
   5 -11 -12    9.55    1.32
  -5  11 -12   11.78    1.41
  -6 -11 -12   -0.20    0.60
   6  11 -12    0.47    0.63
   6 -11  12    1.45    0.77
   6  11  12    0.70    0.65
  -6  11 -12   -0.22    0.57
   6  11  12    0.16    0.66
  -6 -11  12   -0.31    0.72
   6 -11 -12    0.87    0.72
  -7 -11 -12    4.85    1.13
   7  11 -12    6.42    1.22
   7 -11  12    5.49    1.10
  -7  11 -12    5.63    1.10
   7 -11 -12    5.67    1.17
   7  11  12    3.29    0.95
  -7 -11  12    5.99    1.17
   7  11  12    6.27    1.18
   0 -12 -12   25.98    1.85
   0  12 -12   24.30    1.80
   0  12  12   24.77    1.73
   0 -12  12   28.10    1.84
  -1 -12 -12    2.33    0.71
  -1  12  12    1.46    0.66
   1 -12  12    2.27    0.84
  -1 -12 -12    2.89    0.82
   1  12 -12    2.62    0.85
  -1  12 -12    1.60    0.67
   1 -12 -12    2.96    0.84
  -1 -12  12    2.19    0.85
   1  12  12    3.17    0.85
   2  12 -12    8.18    1.24
   2 -12  12   12.23    1.37
  -2 -12 -12    8.66    1.19
  -2 -12 -12    6.79    1.14
  -2  12  12    7.44    1.08
   2  12  12    8.49    1.23
   2 -12 -12    7.20    1.12
  -2  12 -12   10.56    1.37
  -2 -12  12    8.47    1.28
  -3 -12 -12   14.22    1.53
   3  12 -12   10.16    1.32
  -3  12  12   13.82    1.42
   3 -12  12   10.88    1.33
  -3 -12 -12   11.16    1.44
   3  12  12   13.26    1.53
   3 -12 -12   11.07    1.37
  -3  12 -12    9.49    1.23
  -3 -12  12   12.34    1.42
  -4 -12 -12    1.55    0.77
  -4  12  12    0.63    0.57
   4 -12  12    0.29    0.66
  -4 -12 -12    1.08    0.67
   4  12 -12    1.58    0.76
   4 -12 -12    0.29    0.56
  -4  12 -12    0.20    0.56
  -4 -12  12    0.51    0.72
   4  12  12    0.39    0.72
   5  12 -12    1.17    0.76
  -5 -12 -12   -0.05    0.60
  -5 -12 -12    1.33    0.71
   5 -12  12    1.19    0.76
   5  12  12    1.69    0.75
   5 -12 -12    0.69    0.63
  -5  12 -12    0.55    0.67
  -5 -12  12    1.61    0.81
  -6 -12 -12   13.32    1.70
   6  12 -12   11.88    1.54
   6 -12  12   13.67    1.52
  -6 -12 -12   13.65    1.58
   6 -12 -12   15.62    1.70
  -6  12 -12   15.51    1.67
  -6 -12  12   16.92    1.73
   6  12  12   13.83    1.55
   7 -12  12   -1.04    0.71
   7  12 -12    1.31    0.84
  -7 -12 -12   -0.68    0.63
  -7  12 -12    0.60    0.66
   7  12  12    1.28    0.87
  -7 -12  12   -0.23    0.77
   7 -12 -12    0.07    0.65
   0  13 -12    8.89    1.32
   0  13  12    9.84    1.29
   0 -13  12    8.04    1.19
   0 -13 -12    7.67    1.17
   1 -13  12   15.57    1.60
  -1 -13 -12   13.36    1.47
   1  13 -12   16.60    1.86
  -1  13  12   12.58    1.42
  -1 -13 -12   14.40    1.60
   1 -13 -12   12.13    1.48
   1  13  12   13.23    1.53
  -1 -13  12   12.91    1.48
  -1  13 -12   12.28    1.52
   2 -13  12    4.04    0.99
  -2 -13 -12    5.18    0.98
  -2 -13 -12    4.50    0.95
  -2  13  12    3.80    0.90
   2  13 -12    4.49    1.07
  -2 -13  12    3.89    0.99
  -2  13 -12    2.76    0.83
   2  13  12    2.91    0.97
   2 -13 -12    3.58    0.91
  -3 -13 -12    1.32    0.73
   3  13 -12    1.85    0.81
   3 -13  12    1.25    0.86
  -3  13  12    1.57    0.69
  -3 -13 -12    1.60    0.77
  -3 -13  12    1.86    0.85
   3  13  12    2.45    0.88
  -3  13 -12    1.08    0.70
   3 -13 -12    2.44    0.87
  -4 -13 -12    1.43    0.74
  -4 -13 -12    1.40    0.84
  -4  13  12    1.69    0.72
   4  13 -12    2.61    0.92
  -4  13 -12    1.74    0.80
  -4 -13  12    1.59    0.82
   4  13  12    1.68    0.84
   5  13 -12   12.25    1.72
  -5 -13 -12   11.70    1.60
  -5 -13 -12    8.29    1.30
  -5 -13  12   11.39    1.50
   5  13  12    8.61    1.37
  -5  13 -12   11.02    1.40
   6  13 -12    0.17    0.63
  -6 -13 -12    1.07    0.72
  -6 -13 -12   -0.44    0.67
   6 -13  12    0.09    0.71
   6  13  12   -0.21    0.75
  -6  13 -12    0.06    0.63
  -6 -13  12    1.08    0.88
   0  14 -12    9.75    1.42
   0  14  12   11.44    1.47
   0 -14  12    9.87    1.36
   1  14 -12    4.33    1.10
   1 -14  12    4.10    1.04
  -1  14  12    3.63    0.96
  -1 -14 -12    2.04    0.76
  -1  14 -12    4.32    1.02
  -1 -14  12    3.88    1.05
   1  14  12    5.24    1.09
   2 -14  12   15.78    1.70
  -2 -14 -12   18.35    1.78
   2  14 -12   19.18    1.91
  -2  14  12   17.59    1.72
   2  14  12   17.62    1.74
  -2  14 -12   21.50    1.77
  -2 -14  12   20.57    1.90
  -3  14  12    3.46    0.92
   3 -14  12    1.94    0.89
  -3 -14 -12    3.30    0.93
   3  14 -12    2.68    0.88
  -3  14 -12    0.83    0.65
   3  14  12    1.26    0.82
  -3 -14  12    1.96    0.88
  -4 -14 -12    5.70    1.13
  -4  14  12    2.75    0.80
   4  14 -12    4.45    1.14
  -4 -14  12    2.07    0.91
  -4  14 -12    2.91    0.93
   4  14  12    3.31    1.06
   0  15 -12    0.30    0.67
   0  15  12   -0.27    0.70
   0 -15  12   -0.42    0.73
  -1  15  12    9.41    1.31
   1 -15  12   11.32    1.47
  -1 -15 -12    9.21    1.37
   1  15 -12    9.92    1.48
   1  15  12   10.31    1.43
  -1  15 -12   11.85    1.64
  -1 -15  12   12.77    1.58
  -2  15  12    2.10    0.85
   2  15 -12    1.86    0.87
  -2 -15 -12    0.31    0.72
   2 -15  12    1.19    0.91
  -2 -15  12    0.48    0.85
   2  15  12    0.81    0.85
  -2  15 -12    2.79    0.86
  -3 -15 -12    8.50    1.38
   3 -15  12    5.84    1.20
  -3  15  12    5.10    1.04
   3  15 -12    8.66    1.48
  -3 -15  12    6.97    1.42
   3  15  12    5.06    1.20
  -3  15 -12    4.05    1.01
   0   0  13   -0.28    0.42
   0   0 -13    0.13    0.31
   0   0 -13   -0.31    0.36
   1   0 -13   16.14    1.08
   1   0  13   16.84    1.26
  -1   0  13   15.92    1.27
  -1   0 -13   17.38    1.05
  -1   0 -13   16.06    1.28
   1   0 -13   17.19    1.28
   2   0 -13   42.02    1.81
  -2   0 -13   43.62    2.12
   2   0 -13   40.69    2.02
   2   0  13   42.68    1.98
  -2   0  13   44.95    2.04
  -3   0 -13    0.61    0.51
  -3   0  13   -0.45    0.45
   3   0 -13    0.84    0.47
   3   0  13    1.40    0.56
   3   0 -13    1.56    0.50
   4   0 -13   18.79    1.32
   4   0 -13   19.26    1.41
   4   0  13   17.75    1.21
  -4   0  13   18.39    1.33
  -4   0 -13   17.48    1.43
   4   0  13   18.24    1.32
   5   0 -13   12.22    1.37
   5   0  13   10.41    1.11
  -5   0  13    9.73    1.09
   5   0  13   10.57    1.11
  -5   0 -13   10.56    1.26
  -5   0  13   12.01    1.23
  -6   0  13    6.55    0.93
  -6   0 -13    6.00    1.03
   6   0  13    4.59    0.87
  -6   0  13    5.44    0.88
   6   0  13    5.20    0.85
   6   0 -13    5.19    0.98
   7   0 -13    8.83    1.25
  -7   0  13    9.25    1.16
  -7   0  13    8.40    1.07
   7   0  13    7.00    1.07
  -7   0 -13    8.77    1.23
  -8   0 -13    0.95    0.67
  -8   0  13    0.49    0.55
   8   0  13   -0.44    0.54
   8   0 -13    0.44    0.67
   9   0  13    0.01    0.71
  -9   0  13   -0.11    0.58
  -9   0 -13   -0.29    0.57
   9   0 -13    0.18    0.67
 -10   0 -13   10.97    1.51
 -10   0  13   10.95    1.42
  10   0 -13   10.11    1.53
  10   0  13   10.32    1.49
   0  -1 -13    4.03    0.76
   0   1 -13    3.57    0.74
   0  -1 -13    3.59    0.59
   0   1 -13    3.51    0.62
   0  -1  13    3.70    0.76
   0   1  13    3.99    0.74
   1  -1  13   11.44    1.17
   1   1 -13    8.70    0.93
   1   1 -13    8.06    0.98
  -1   1  13    7.50    0.94
  -1  -1 -13   10.16    1.15
   1   1  13    9.07    1.04
   1  -1 -13    8.87    0.91
  -1   1 -13    9.97    0.94
   1  -1 -13    8.17    1.03
  -1  -1  13    9.59    1.07
  -1   1 -13    8.26    1.02
   2   1 -13   11.38    1.21
  -2   1  13    9.83    1.03
  -2  -1 -13   10.33    1.20
   2   1 -13    7.33    0.90
   2  -1  13    8.46    1.00
   2   1  13    9.99    1.05
   2  -1 -13    9.97    0.98
  -2   1 -13   10.89    0.97
   2  -1 -13    7.72    1.02
  -2  -1  13   11.17    1.17
  -2   1 -13    9.87    1.13
   3   1 -13    2.15    0.59
   3  -1  13    1.31    0.57
  -3  -1 -13    2.87    0.78
  -3   1  13    3.91    0.74
   3   1 -13    3.08    0.71
   3  -1 -13    2.34    0.64
  -3  -1  13    0.72    0.56
   3  -1 -13    0.77    0.45
  -3   1 -13    2.46    0.73
   3   1  13    2.06    0.66
   4  -1  13    2.21    0.58
   4   1 -13    2.94    0.70
   4   1 -13    2.82    0.69
  -4   1  13    2.25    0.64
  -4   1  13    2.16    0.60
   4  -1  13    2.30    0.66
  -4  -1 -13    3.25    0.79
   4  -1 -13    3.04    0.74
  -4  -1  13    3.35    0.76
  -4   1 -13    1.97    0.67
   4   1  13    0.59    0.48
   4   1  13    3.32    0.73
   5  -1  13   14.82    1.25
   5  -1  13   15.17    1.20
  -5   1  13   15.37    1.25
  -5  -1 -13   12.13    1.37
  -5   1  13   16.87    1.30
   5   1 -13   12.45    1.33
   5   1 -13   15.84    1.50
   5   1  13   15.26    1.21
  -5  -1  13   13.13    1.26
  -5   1 -13   13.66    1.42
   5   1  13   16.56    1.29
   5  -1 -13   12.51    1.38
   6   1 -13    5.04    0.97
   6  -1  13    6.19    0.94
  -6   1  13    5.17    0.86
  -6   1  13    4.04    0.79
  -6  -1 -13    6.78    1.11
   6  -1  13    5.46    0.89
  -6  -1  13    7.24    1.02
   6   1  13    6.24    0.93
   6  -1 -13    7.84    1.19
  -6   1 -13    4.57    0.90
   6   1  13    6.85    0.96
  -6  -1  13    8.29    1.06
  -7   1  13    6.12    0.91
   7  -1  13    3.89    0.85
   7   1 -13    1.76    0.70
  -7   1  13    3.19    0.81
  -7  -1 -13    3.83    0.89
  -7  -1  13    3.69    0.79
  -7   1 -13    3.12    0.85
   7   1  13    3.24    0.83
  -7  -1  13    3.65    0.84
   7  -1 -13    3.04    0.84
   8   1 -13    5.70    1.11
  -8   1  13    5.81    0.97
   8  -1  13    4.97    1.00
  -8  -1 -13    5.22    1.04
  -8  -1  13    5.43    1.00
   8   1  13    5.74    1.08
   8  -1 -13    3.36    0.90
  -8   1 -13    4.96    1.03
  -9   1  13    3.87    0.93
  -9  -1 -13    4.92    1.08
   9   1 -13    4.73    1.06
   9  -1  13    3.58    1.00
   9   1  13    2.70    0.90
  -9   1 -13    6.66    1.16
   9  -1 -13    5.76    1.20
  -9  -1  13    5.20    1.01
  10  -1  13    0.12    0.75
 -10  -1 -13    0.51    0.72
  10   1 -13    0.13    0.69
 -10   1  13   -0.05    0.67
  10   1  13    0.66    0.77
 -10   1 -13    1.07    0.74
  10  -1 -13    1.41    0.85
 -10  -1  13    0.83    0.72
   0  -2 -13   23.79    1.31
   0  -2  13   25.76    1.54
   0  -2 -13   23.26    1.52
   0   2  13   21.29    1.43
   0   2 -13   24.27    1.47
   0   2 -13   25.07    1.34
  -1   2  13    3.63    0.75
   1  -2  13    2.96    0.73
  -1  -2 -13    4.93    0.89
   1   2 -13    5.35    0.84
   1   2 -13    3.19    0.62
   1  -2 -13    4.42    0.84
  -1   2 -13    6.08    0.76
  -1   2 -13    6.11    0.90
  -1  -2  13    5.59    0.87
   1  -2 -13    5.05    0.70
   1   2  13    4.73    0.80
   2   2 -13    8.18    0.94
  -2  -2 -13    8.12    1.08
   2   2 -13    8.02    1.02
  -2   2  13    9.12    1.02
   2  -2  13    7.43    0.94
  -2  -2  13    9.44    1.10
   2  -2 -13    6.53    0.99
   2  -2 -13    6.96    0.81
  -2   2 -13    9.42    1.11
   2   2  13    8.02    1.03
  -2   2 -13    6.32    0.79
  -3   2  13   11.93    1.19
   3  -2  13   13.07    1.27
   3   2 -13   11.13    1.21
  -3   2  13   11.93    0.99
   3   2 -13   11.22    1.15
  -3  -2 -13   10.68    1.28
   3   2  13   10.51    1.13
   3  -2 -13    8.58    1.11
  -3  -2  13    9.69    1.14
  -3   2 -13    9.56    0.94
  -3   2 -13   10.46    1.24
   4  -2  13    6.74    0.91
  -4  -2 -13    8.47    1.20
  -4   2  13    9.92    1.02
   4   2 -13   10.10    1.22
   4  -2  13    9.98    1.08
   4   2 -13    7.79    1.04
  -4   2  13   10.79    1.17
  -4   2 -13    7.86    1.07
   4   2  13    9.23    0.97
   4  -2 -13    9.03    1.18
  -4  -2  13    9.41    1.14
   4   2  13    7.38    0.98
   5   2 -13    4.70    0.89
   5  -2  13    2.94    0.74
  -5   2  13    3.96    0.79
  -5   2  13    3.53    0.72
   5   2 -13    5.32    0.93
  -5  -2 -13    3.12    0.82
   5  -2  13    3.24    0.70
   5  -2 -13    1.51    0.69
  -5   2 -13    3.63    0.84
  -5  -2  13    4.12    0.81
   5   2  13    4.11    0.79
   5   2  13    3.82    0.72
   6  -2  13    9.86    1.14
  -6   2  13   11.09    1.20
  -6  -2 -13   10.86    1.31
   6  -2  13   11.22    1.27
   6   2 -13   11.33    1.38
  -6   2  13    9.60    1.10
   6   2 -13   12.56    1.43
  -6  -2  13   11.02    1.23
   6   2  13   11.25    1.22
  -6   2 -13    9.88    1.24
   6   2  13    9.90    1.13
   6  -2 -13   10.67    1.35
  -7   2  13    4.32    0.87
   7  -2  13    4.59    0.90
  -7  -2 -13    6.69    1.15
   7   2 -13    6.27    1.08
   7  -2 -13    3.94    0.93
  -7  -2  13    5.40    0.92
  -7  -2  13    5.81    0.99
   7   2  13    4.89    0.96
  -7   2 -13    4.90    0.98
   8   2 -13    1.65    0.73
  -8   2  13    2.36    0.74
   8  -2  13    1.20    0.68
  -8  -2 -13    2.27    0.84
   8   2  13    2.11    0.83
  -8   2 -13    2.62    0.82
  -8  -2  13    2.34    0.74
   8  -2 -13    4.16    1.00
  -9   2  13    7.40    1.17
   9   2 -13    8.06    1.35
  -9  -2 -13    6.47    1.23
   9  -2  13    6.41    1.16
  -9   2 -13    9.98    1.38
   9  -2 -13    9.93    1.47
  -9  -2  13    8.87    1.29
   9   2  13    7.65    1.32
 -10  -2 -13    6.19    1.24
  10   2 -13    5.97    1.25
  10  -2  13    4.88    1.10
 -10   2  13    4.55    1.10
  10   2  13    3.74    1.15
 -10   2 -13    6.90    1.25
 -10  -2  13    4.51    1.04
  10  -2 -13    5.92    1.26
   0   3  13    5.54    0.85
   0  -3 -13    5.48    0.90
   0   3 -13    6.06    0.80
   0  -3  13    6.38    0.94
   0   3 -13    8.82    1.04
   1   3 -13   10.70    1.08
   1   3 -13   13.10    1.08
  -1   3  13   11.71    1.22
  -1  -3 -13   10.47    1.21
   1  -3  13   12.31    1.24
  -1   3 -13   11.79    1.18
   1   3  13   13.33    1.26
  -1   3 -13   12.53    1.15
  -1  -3  13    9.50    1.09
   1  -3 -13   10.69    1.21
  -2   3  13    5.04    0.86
  -2  -3 -13    4.79    0.91
  -2   3  13    4.80    0.67
   2   3 -13    4.14    0.76
   2  -3  13    5.66    0.88
   2   3 -13    5.55    0.86
  -2   3 -13    4.51    0.72
  -2   3 -13    5.28    0.85
   2  -3 -13    5.99    0.96
   2   3  13    4.31    0.76
  -2  -3  13    4.88    0.87
   3   3 -13   14.20    1.30
   3   3 -13   13.84    1.16
  -3   3  13   15.34    1.08
   3  -3  13   13.81    1.18
  -3  -3 -13   14.74    1.53
  -3   3  13   13.57    1.28
   3   3  13   15.20    1.29
  -3   3 -13   15.02    1.27
  -3  -3  13   13.44    1.29
   3  -3 -13   13.18    1.38
  -3   3 -13   15.55    1.08
  -4   3  13    0.19    0.40
  -4   3  13   -0.40    0.44
   4  -3  13    0.38    0.54
   4   3 -13    0.06    0.37
  -4  -3 -13   -0.79    0.42
   4   3 -13   -0.12    0.43
   4   3  13    0.25    0.50
  -4  -3  13    0.09    0.51
  -4   3 -13   -0.04    0.34
   4   3  13    0.01    0.38
  -4   3 -13   -0.42    0.41
   4  -3 -13    0.37    0.51
  -5  -3 -13    2.75    0.82
   5  -3  13    4.52    0.81
   5  -3  13    3.04    0.73
   5   3 -13    3.86    0.87
  -5   3  13    2.80    0.67
   5   3 -13    3.13    0.76
  -5   3  13    3.47    0.79
   5   3  13    4.20    0.81
   5  -3 -13    4.20    0.88
   5   3  13    4.56    0.77
  -5  -3  13    2.77    0.77
  -5   3 -13    3.71    0.83
   6  -3  13   16.06    1.37
  -6   3  13   12.70    1.29
   6   3 -13   13.46    1.39
  -6   3  13   14.29    1.38
  -6  -3 -13   13.38    1.52
   6   3 -13   14.94    1.47
   6   3  13   13.00    1.31
  -6  -3  13   13.34    1.34
   6   3  13   12.80    1.23
   6  -3 -13   14.73    1.56
  -6   3 -13   11.61    1.29
  -7   3  13    7.78    1.08
   7  -3  13    6.20    1.03
   7   3 -13    9.03    1.29
  -7  -3 -13    8.30    1.29
  -7   3 -13    6.46    1.08
   7   3  13    8.91    1.15
  -7  -3  13    7.99    1.09
   7  -3 -13   10.13    1.37
  -8  -3 -13    2.15    0.78
  -8   3  13    2.62    0.80
   8  -3  13    1.78    0.74
   8   3 -13    1.90    0.76
   8   3  13    2.03    0.79
  -8  -3  13    2.54    0.79
  -8   3 -13    0.99    0.65
   8  -3 -13    2.10    0.79
   9  -3  13    5.07    1.09
  -9   3  13    4.03    0.95
  -9  -3 -13    3.71    1.02
   9   3 -13    6.09    1.21
   9   3  13    7.18    1.22
  -9   3 -13    5.24    1.08
   9  -3 -13    7.13    1.28
  -9  -3  13    3.93    0.94
 -10   3  13    1.32    0.80
  10   3 -13    1.58    0.83
  10  -3  13    3.87    1.05
 -10  -3 -13    1.19    0.83
 -10  -3  13    1.46    0.73
 -10   3 -13    0.99    0.75
  10  -3 -13    0.88    0.78
  10   3  13    1.11    0.81
   0  -4  13    4.24    0.83
   0   4 -13    3.99    0.74
   0   4 -13    2.12    0.57
   0   4  13    2.69    0.67
   0  -4 -13    3.05    0.72
   1  -4  13    4.59    0.87
   1   4 -13    5.06    0.82
  -1  -4 -13    6.72    1.04
  -1   4  13    6.21    0.94
   1   4 -13    5.43    0.82
  -1   4 -13    7.53    0.93
  -1  -4  13    7.09    0.99
   1   4  13    7.80    1.00
   1  -4 -13    8.02    1.14
  -1   4 -13    9.11    1.01
  -2   4  13    9.51    0.98
   2  -4  13    9.39    1.11
  -2   4  13    8.80    1.04
   2   4 -13    9.71    1.08
  -2  -4 -13   10.26    1.26
   2   4 -13   11.06    1.17
   2  -4 -13    8.28    1.09
  -2   4 -13    9.04    1.04
  -2  -4  13    8.27    1.02
   2   4  13    9.80    1.11
  -2   4 -13    9.65    1.00
   3   4 -13   13.53    1.14
   3   4 -13   15.04    1.40
  -3   4  13   14.82    1.08
   3  -4  13   12.70    1.27
  -3   4  13   15.22    1.25
  -3  -4 -13   12.12    1.39
  -3   4 -13   15.49    1.25
  -3   4 -13   16.87    1.18
   3  -4 -13   15.91    1.35
   3   4  13   15.33    1.12
   3   4  13   12.67    1.24
  -3  -4  13   15.12    1.29
   4   4 -13   -0.01    0.39
   4   4 -13   -0.19    0.36
  -4   4  13    0.36    0.48
   4  -4  13    1.00    0.55
  -4   4  13    0.16    0.42
  -4  -4 -13    1.06    0.60
  -4   4 -13    0.49    0.44
  -4   4 -13    0.30    0.49
   4   4  13   -0.41    0.49
   4   4  13    0.26    0.40
   4  -4 -13    0.76    0.55
  -4  -4  13    0.14    0.52
   5  -4  13    8.97    1.07
   5  -4  13    7.93    1.02
  -5   4  13    8.26    0.99
  -5  -4 -13    9.48    1.33
   5   4 -13    8.22    1.10
  -5   4  13    7.49    0.99
   5   4 -13   11.18    1.28
  -5   4 -13    7.47    1.09
   5   4  13    6.18    0.89
  -5  -4  13    8.84    1.14
   5  -4 -13   10.05    1.24
   5   4  13    8.44    1.04
  -5   4 -13    7.95    0.94
   6  -4  13    2.46    0.74
  -6   4  13    1.74    0.65
   6   4 -13    2.65    0.78
   6   4 -13    4.02    0.85
  -6   4  13    2.39    0.71
  -6  -4 -13    2.09    0.73
   6  -4 -13    3.00    0.79
   6   4  13    1.72    0.65
  -6  -4  13    1.71    0.67
  -6   4 -13    1.86    0.64
   6   4  13    1.42    0.60
   7   4 -13    6.05    1.07
  -7  -4 -13    3.53    0.99
   7  -4  13    5.42    1.02
  -7   4  13    5.74    0.98
   7   4 -13    5.78    1.07
   7   4  13    4.41    0.86
   7   4  13    5.58    0.98
   7  -4 -13    5.75    1.10
  -7   4 -13    3.32    0.83
  -7  -4  13    4.28    0.86
  -8  -4 -13    9.84    1.39
  -8   4  13   12.74    1.41
   8  -4  13    9.12    1.29
   8   4 -13   12.55    1.54
   8   4  13   10.80    1.31
  -8  -4  13    9.40    1.26
  -8   4 -13   11.63    1.38
   8  -4 -13   11.07    1.47
  -9  -4 -13    6.01    1.21
   9  -4  13    3.07    0.97
  -9   4  13    3.32    0.94
   9   4 -13    3.39    0.98
   9  -4 -13    7.62    1.36
  -9   4 -13    4.19    1.00
   9   4  13    2.03    0.80
  -9  -4  13    5.15    1.02
 -10  -4 -13    1.68    0.93
  10   4 -13    0.24    0.68
  10  -4  13    0.50    0.78
 -10   4 -13    1.54    0.80
  10   4  13    0.50    0.67
  10  -4 -13    0.68    0.82
   0  -5 -13    1.40    0.57
   0  -5  13    0.61    0.60
   0   5 -13    0.87    0.44
   0   5 -13    1.58    0.56
   0   5  13    0.66    0.53
   1   5 -13   12.43    1.05
  -1  -5 -13   15.87    1.30
  -1   5  13   13.09    1.25
   1  -5  13   14.23    1.33
   1   5 -13   13.80    1.28
  -1  -5  13   10.59    1.14
   1   5  13   14.85    1.26
  -1   5 -13   15.39    1.19
   1  -5 -13   15.83    1.34
  -1   5 -13   14.70    1.13
  -2  -5 -13    7.63    1.12
   2   5 -13    7.99    1.02
   2   5 -13    6.73    0.91
  -2   5  13    7.64    1.05
   2  -5  13    7.37    1.01
  -2  -5  13    6.11    0.91
  -2   5 -13    7.99    0.99
  -2   5 -13    7.18    0.91
   2  -5 -13    6.24    0.98
   2   5  13    4.86    0.85
  -3   5  13    3.19    0.63
   3  -5  13    3.62    0.82
  -3  -5 -13    3.44    0.84
   3   5 -13    4.21    0.77
   3   5 -13    3.70    0.80
  -3   5  13    2.81    0.72
  -3   5 -13    4.20    0.79
  -3  -5  13    3.46    0.81
  -3   5 -13    4.21    0.72
   3  -5 -13    4.59    0.89
   3   5  13    3.94    0.78
   3   5  13    4.03    0.70
   4   5 -13   10.32    1.20
  -4   5  13    8.37    0.93
   4   5 -13   10.01    1.16
  -4   5  13    7.61    1.01
   4  -5  13    5.35    0.90
  -4  -5 -13    7.03    1.13
   4  -5 -13    6.35    1.02
  -4  -5  13    6.52    1.04
  -4   5 -13    7.84    1.06
   4   5  13    7.22    1.03
   4   5  13    6.49    0.87
  -4   5 -13    9.61    1.05
  -5   5  13   -0.03    0.43
   5  -5  13   -0.60    0.45
   5   5 -13   -0.03    0.41
   5   5 -13   -0.14    0.46
   5  -5  13    0.09    0.46
  -5   5  13   -0.08    0.49
  -5  -5 -13    0.38    0.54
   5  -5 -13    0.44    0.57
  -5  -5  13   -0.14    0.51
   5   5  13    0.14    0.54
   5   5  13   -0.01    0.44
  -5   5 -13   -0.05    0.41
  -5   5 -13   -0.21    0.43
  -6   5  13   10.54    1.19
   6   5 -13   16.29    1.64
  -6  -5 -13   11.87    1.41
   6   5 -13   13.31    1.44
   6  -5  13   14.84    1.40
  -6   5  13   12.54    1.27
   6   5  13   13.86    1.34
  -6  -5  13   16.24    1.48
   6   5  13   13.43    1.34
  -6   5 -13   11.68    1.31
   6  -5 -13   13.40    1.54
  -6   5 -13   12.94    1.23
   7   5 -13   10.32    1.33
  -7   5  13   11.58    1.28
   7  -5  13   11.30    1.35
   7   5 -13    9.46    1.29
  -7  -5 -13    9.78    1.39
   7   5  13   10.07    1.20
   7   5  13   10.96    1.32
  -7  -5  13   12.44    1.38
   7  -5 -13   11.39    1.46
  -8  -5 -13    0.97    0.71
   8  -5  13    2.22    0.85
   8   5 -13    2.10    0.82
  -8   5  13    0.74    0.70
   8   5  13    2.51    0.82
   8  -5 -13    2.45    0.89
   9   5 -13    4.50    1.03
   9  -5  13    4.00    1.07
  -9  -5 -13    4.78    1.20
  -9   5  13    4.27    1.00
   9  -5 -13    3.32    1.02
  -9  -5  13    2.35    0.76
   9   5  13    3.78    1.02
   0   6 -13    2.35    0.61
   0  -6  13    1.62    0.68
   0   6 -13    2.89    0.69
   0   6  13    0.91    0.55
   0  -6 -13    1.95    0.68
   1   6 -13    1.39    0.54
   1  -6  13    2.19    0.68
  -1   6  13    1.36    0.60
   1   6 -13    1.79    0.53
  -1  -6 -13    2.00    0.70
  -1   6 -13    1.85    0.62
  -1  -6  13    0.81    0.58
   1   6  13    1.20    0.58
   1  -6 -13    2.22    0.66
   2  -6  13   15.18    1.39
  -2  -6 -13   16.97    1.44
   2   6 -13   15.21    1.13
   2   6 -13   15.64    1.46
  -2   6  13   12.33    1.27
  -2   6 -13   13.77    1.30
  -2  -6  13   16.55    1.38
   2   6  13   11.52    1.23
   2  -6 -13   14.67    1.46
   3   6 -13    6.29    1.00
  -3  -6 -13    6.13    1.08
  -3   6  13    5.70    0.95
   3   6 -13    6.43    0.90
   3  -6  13    5.38    0.94
   3   6  13    5.24    0.77
  -3   6 -13    4.09    0.75
  -3  -6  13    6.20    0.99
   3  -6 -13    3.89    0.82
   3   6  13    5.76    0.96
   4  -6  13    2.01    0.73
  -4   6  13    2.26    0.65
  -4  -6 -13    2.56    0.79
  -4   6  13    1.66    0.56
   4   6 -13    2.61    0.68
   4   6 -13    2.82    0.68
  -4   6 -13    1.49    0.56
  -4  -6  13    2.81    0.81
   4   6  13    2.65    0.66
   4  -6 -13    3.02    0.77
   4   6  13    2.93    0.77
   5   6 -13    2.21    0.78
  -5  -6 -13    0.99    0.71
   5   6 -13    1.26    0.57
   5  -6  13    3.07    0.73
   5  -6  13    3.03    0.73
  -5   6  13    1.95    0.61
  -5   6  13    1.54    0.62
   5  -6 -13    1.35    0.64
   5   6  13    1.15    0.63
   5   6  13    1.85    0.67
  -5   6 -13    1.85    0.64
  -5  -6  13    1.42    0.71
  -6   6  13    1.32    0.65
  -6   6  13    2.93    0.76
  -6  -6 -13    2.85    0.90
   6   6 -13    3.16    0.89
   6   6 -13    3.95    0.84
   6  -6  13    1.56    0.69
   6   6  13    3.50    0.81
   6   6  13    2.64    0.77
  -6   6 -13    4.34    0.85
   6  -6 -13    1.73    0.73
  -6  -6  13    3.22    0.84
   7   6 -13    5.78    1.06
   7   6 -13    7.48    1.11
  -7  -6 -13    4.67    1.05
  -7   6  13    5.44    0.98
   7  -6  13    8.01    1.17
   7  -6 -13    6.74    1.21
  -7  -6  13    5.88    1.04
   7   6  13    5.42    0.92
   7   6  13    3.91    0.88
  -8   6  13    7.36    1.15
   8  -6  13   10.29    1.37
   8   6 -13    9.47    1.34
  -8  -6 -13    7.92    1.35
   8   6 -13    7.89    1.27
   8  -6 -13    9.94    1.43
  -8  -6  13    8.93    1.21
   8   6  13   10.41    1.39
   9  -6  13    0.98    0.83
  -9   6  13    0.82    0.76
  -9  -6 -13   -0.25    0.58
   9   6 -13    0.64    0.67
   9  -6 -13    0.72    0.72
   9   6  13    1.80    0.78
  -9  -6  13    1.09    0.69
   0  -7 -13    0.16    0.51
   0  -7  13    0.50    0.60
   0   7  13    2.13    0.68
   0   7 -13    0.74    0.53
  -1  -7 -13   12.24    1.36
  -1   7  13    9.81    1.13
   1   7 -13   10.71    1.24
   1  -7  13   11.15    1.24
   1  -7 -13   12.55    1.37
   1   7  13   11.02    1.26
  -1   7 -13   11.08    1.20
  -1  -7  13   11.69    1.28
   2   7 -13   14.77    1.45
   2  -7  13   16.40    1.47
  -2  -7 -13   17.26    1.70
  -2   7  13   16.07    1.32
  -2  -7  13   14.69    1.38
   2   7  13   17.53    1.44
  -2   7 -13   17.64    1.35
   2  -7 -13   18.19    1.48
   3  -7  13    3.97    0.85
   3   7 -13    2.73    0.72
  -3   7  13    4.53    0.84
  -3  -7 -13    2.97    0.80
  -3  -7  13    2.08    0.73
   3   7  13    2.27    0.70
   3   7  13    3.47    0.69
   3  -7 -13    1.61    0.67
  -3   7 -13    2.42    0.67
   4   7 -13    0.61    0.57
   4  -7  13    0.26    0.57
  -4  -7 -13    0.52    0.62
  -4   7  13   -0.10    0.43
  -4  -7  13    1.05    0.66
   4  -7 -13    0.44    0.54
  -4   7 -13    0.68    0.53
   4   7  13    0.07    0.43
   4   7  13    0.41    0.56
  -5   7  13    1.06    0.56
   5   7 -13    1.40    0.68
  -5  -7 -13    2.19    0.78
  -5   7  13    1.59    0.63
   5  -7  13    2.26    0.76
   5   7  13    0.68    0.56
  -5   7 -13    0.77    0.59
   5   7  13    2.18    0.72
  -5  -7  13    1.36    0.69
   5  -7 -13    1.31    0.66
  -6  -7 -13   -0.21    0.62
   6  -7  13    0.77    0.63
  -6   7  13    0.21    0.53
   6   7 -13    0.27    0.55
  -6  -7  13    1.12    0.72
  -6   7 -13   -0.29    0.43
   6   7  13    0.31    0.56
   6   7  13    0.90    0.57
   6  -7 -13   -0.65    0.49
  -7  -7 -13   21.40    1.80
   7   7 -13   19.78    1.92
  -7   7  13   15.95    1.55
   7  -7  13   18.48    1.63
  -7   7 -13   18.90    1.49
   7   7  13   14.96    1.59
   7  -7 -13   16.78    1.78
  -7  -7  13   19.73    1.61
   7   7  13   16.88    1.55
   8  -7  13    3.58    0.97
  -8   7  13    3.33    0.92
   8   7 -13    4.26    1.04
  -8  -7 -13    4.10    1.07
   8   7  13    5.32    1.10
  -8  -7  13    5.14    1.09
   8  -7 -13    4.85    1.11
   9  -7  13    2.13    0.91
  -9  -7 -13    1.13    0.82
  -9   7  13    1.23    0.80
   9  -7 -13    2.11    0.94
   9   7  13    2.09    0.80
   0   8 -13    0.62    0.56
   0  -8  13    1.55    0.67
   0   8  13    0.40    0.52
   0  -8 -13    0.46    0.52
  -1  -8 -13    6.90    1.11
   1   8 -13    4.68    0.91
  -1   8  13    6.53    0.98
   1  -8  13    4.34    0.89
   1   8  13    4.06    0.85
   1  -8 -13    4.73    0.93
  -1   8 -13    5.08    0.92
  -1  -8  13    5.06    0.96
  -2  -8 -13    8.65    1.27
   2   8 -13    8.06    1.13
  -2   8  13    6.99    1.02
   2  -8  13    7.33    1.06
   2  -8 -13    8.16    1.15
   2   8  13    6.05    0.99
  -2   8 -13    8.45    1.11
  -2  -8  13    4.61    0.94
   3   8 -13   21.44    1.62
  -3  -8 -13   22.19    1.71
   3  -8  13   24.55    1.64
  -3   8  13   23.09    1.57
  -3  -8  13   24.17    1.71
  -3   8 -13   21.70    1.54
   3  -8 -13   22.44    1.69
   3   8  13   24.05    1.68
  -4   8  13    3.94    0.83
   4   8 -13    3.47    0.83
  -4  -8 -13    5.11    1.07
   4  -8  13    4.99    0.95
  -4   8 -13    3.33    0.77
   4   8  13    5.38    0.94
   4  -8 -13    1.52    0.71
  -4  -8  13    5.77    1.02
   4   8  13    5.31    0.90
  -5  -8 -13   -0.41    0.55
  -5   8  13    0.17    0.52
   5   8 -13    0.95    0.59
  -5  -8  13    0.14    0.63
   5  -8 -13   -0.41    0.54
   5   8  13    0.41    0.62
   5   8  13    0.40    0.50
  -5   8 -13   -0.21    0.51
   6  -8  13    4.12    0.91
  -6   8  13    3.71    0.86
  -6  -8 -13    5.81    1.15
   6   8 -13    6.45    1.18
  -6   8 -13    4.65    0.90
   6  -8 -13    6.60    1.19
  -6  -8  13    4.16    0.96
   6   8  13    5.46    1.01
   6   8  13    4.53    0.94
   7  -8  13    0.54    0.68
   7   8 -13    0.24    0.67
  -7  -8 -13    0.45    0.68
  -7   8  13    0.34    0.68
  -7   8 -13    0.69    0.58
  -7  -8  13    0.10    0.67
   7   8  13    0.24    0.60
   7   8  13    0.24    0.61
   7  -8 -13   -0.67    0.61
  -8   8  13    3.38    0.94
   8  -8  13    6.03    1.16
  -8  -8 -13    4.51    1.14
   8   8 -13    5.06    1.14
   8  -8 -13    7.82    1.34
  -8   8 -13    6.51    1.09
  -8  -8  13    6.64    1.18
   8   8  13    6.46    1.19
   0   9  13    7.35    1.13
   0   9 -13    8.60    1.23
   0  -9 -13    9.53    1.30
   0  -9  13    7.99    1.15
  -1  -9 -13    3.18    0.80
  -1   9  13    5.40    0.93
   1  -9  13    4.81    0.97
   1   9 -13    3.60    0.89
  -1   9 -13    4.66    0.91
   1   9  13    3.72    0.86
   1  -9 -13    3.79    0.91
  -1  -9  13    4.64    0.95
   2  -9  13   14.20    1.41
   2   9 -13   12.76    1.44
  -2  -9 -13   15.96    1.67
  -2  -9 -13   14.15    1.37
  -2   9  13   14.25    1.41
   2   9  13   13.03    1.37
  -2   9 -13   18.12    1.43
   2  -9 -13   13.98    1.49
  -2  -9  13   15.76    1.54
   3   9 -13    4.01    0.87
   3  -9  13    4.59    0.94
  -3  -9 -13    4.26    0.83
  -3  -9 -13    6.06    1.08
  -3   9  13    4.11    0.85
   3   9  13    4.81    0.98
  -3  -9  13    4.72    0.96
   3  -9 -13    5.67    1.07
  -3   9 -13    4.91    0.92
  -4   9  13    1.35    0.62
  -4  -9 -13    1.87    0.83
   4   9 -13    2.33    0.81
   4  -9  13    2.15    0.76
   4  -9 -13    2.28    0.80
  -4   9 -13    2.32    0.70
  -4  -9  13    2.63    0.89
   4   9  13    2.33    0.76
  -5  -9 -13    2.92    0.92
   5   9 -13    2.17    0.78
  -5   9  13    3.17    0.79
   5   9  13    2.78    0.82
  -5   9 -13    2.71    0.75
   5  -9 -13    2.51    0.78
   5   9  13    2.34    0.77
  -5  -9  13    2.56    0.87
   6  -9  13    0.60    0.68
   6   9 -13    0.54    0.66
  -6  -9 -13    1.24    0.78
  -6  -9  13    1.94    0.82
   6   9  13    1.06    0.68
   6  -9 -13    1.47    0.73
   6   9  13    0.89    0.68
  -6   9 -13    0.84    0.65
   7   9 -13    1.37    0.80
   7  -9  13    0.53    0.80
  -7  -9 -13    1.03    0.79
   7  -9 -13    0.62    0.74
  -7   9 -13    2.17    0.79
  -7  -9  13    1.31    0.87
   7   9  13    1.48    0.81
   7   9  13    1.42    0.74
   8   9 -13    3.59    1.03
   8  -9  13    2.91    0.96
  -8  -9 -13    4.48    1.10
  -8   9  13    2.08    0.84
  -8   9 -13    2.76    0.89
   8   9  13    2.38    0.91
   8  -9 -13    4.04    1.10
  -8  -9  13    3.71    1.06
   0 -10 -13    1.01    0.64
   0 -10  13    0.00    0.60
   0  10 -13    0.97    0.61
   0  10  13    0.80    0.60
   1 -10  13    0.79    0.66
  -1  10  13    0.30    0.51
   1  10 -13    0.87    0.63
  -1 -10 -13    0.39    0.58
  -1  10 -13    0.96    0.61
   1 -10 -13    0.36    0.52
   1  10  13    0.43    0.61
  -1 -10  13    1.02    0.73
  -2  10  13    0.83    0.57
   2 -10  13    0.46    0.70
   2  10 -13    2.00    0.73
  -2 -10 -13    1.72    0.75
  -2 -10 -13    2.01    0.69
   2 -10 -13    2.19    0.78
  -2 -10  13    1.64    0.81
  -2  10 -13    2.08    0.77
   2  10  13    1.68    0.73
  -3 -10 -13   18.63    1.86
  -3  10  13   17.20    1.44
   3 -10  13   17.48    1.58
  -3 -10 -13   21.44    1.53
   3  10 -13   21.04    1.67
   3 -10 -13   19.49    1.64
   3  10  13   15.83    1.54
  -3  10 -13   18.76    1.52
  -3 -10  13   18.68    1.76
   4 -10  13    5.11    0.98
   4  10 -13    2.67    0.82
  -4 -10 -13    3.29    0.82
  -4 -10 -13    2.58    0.87
  -4  10  13    4.63    0.90
   4  10  13    3.37    0.86
  -4  10 -13    2.73    0.79
   4 -10 -13    4.10    0.98
  -4 -10  13    2.78    0.92
  -5  10  13    2.48    0.74
  -5 -10 -13    2.64    0.91
   5  10 -13    3.85    1.01
  -5 -10  13    0.78    0.86
  -5  10 -13    3.74    0.89
   5  10  13    2.78    0.86
   5 -10 -13    2.44    0.90
   6  10 -13    5.07    1.12
  -6 -10 -13    5.78    1.18
  -6 -10  13    6.33    1.22
   6  10  13    5.55    1.07
  -6  10 -13    5.75    1.04
   6 -10 -13    7.70    1.31
   6  10  13    6.46    1.15
   7 -10  13    0.79    0.81
  -7 -10 -13    0.83    0.77
   7  10 -13    1.26    0.75
   7 -10 -13    0.77    0.72
   7  10  13    1.66    0.81
  -7  10 -13    2.27    0.83
   7  10  13    1.57    0.85
  -7 -10  13    1.94    0.90
   0  11  13    0.64    0.70
   0  11 -13    1.09    0.68
   0 -11 -13    1.34    0.69
   0 -11  13    0.79    0.79
  -1 -11 -13    3.80    0.90
  -1  11  13    3.26    0.85
   1  11 -13    3.05    0.91
   1 -11  13    3.81    0.92
  -1  11 -13    3.58    0.84
   1 -11 -13    3.81    0.91
   1  11  13    4.63    0.96
  -1 -11  13    2.53    0.94
   2  11 -13    9.51    1.37
  -2  11  13    8.21    1.20
   2 -11  13    9.92    1.28
  -2 -11 -13    9.18    1.16
  -2 -11 -13    8.94    1.31
   2  11  13    7.14    1.18
  -2 -11  13    9.84    1.36
  -2  11 -13    7.86    1.19
   2 -11 -13    7.56    1.15
   3  11 -13    1.91    0.84
   3 -11  13    3.12    0.93
  -3  11  13    1.56    0.71
  -3 -11 -13    1.59    0.74
  -3 -11 -13    2.20    0.73
   3 -11 -13    1.74    0.76
  -3  11 -13    1.76    0.72
  -3 -11  13    2.25    0.93
   3  11  13    2.24    0.81
  -4  11  13    3.88    0.93
  -4 -11 -13    4.24    1.00
   4 -11  13    3.66    0.93
   4  11 -13    4.17    1.06
  -4 -11 -13    2.80    0.78
  -4  11 -13    3.24    0.88
   4  11  13    1.10    0.69
   4 -11 -13    2.80    0.85
  -4 -11  13    2.10    0.86
  -5 -11 -13    7.68    1.32
  -5 -11 -13    8.35    1.28
  -5  11  13    9.67    1.30
   5  11 -13   11.18    1.57
  -5  11 -13    8.95    1.28
  -5 -11  13   10.41    1.38
   5  11  13    8.96    1.28
   5 -11 -13    6.49    1.19
  -6 -11 -13    2.35    0.92
   6  11 -13    5.03    1.11
  -6  11 -13    2.06    0.77
   6 -11 -13    2.08    0.91
   6  11  13    2.05    0.89
  -6 -11  13    2.63    1.08
   7  11 -13   -0.11    0.66
   7  11  13   -0.30    0.68
   7 -11 -13    0.22    0.73
  -7  11 -13   -0.06    0.58
   0 -12  13    0.53    0.76
   0  12  13    0.79    0.69
   0  12 -13    1.70    0.82
   0 -12 -13    0.77    0.60
   1 -12  13    0.88    0.81
   1  12 -13    2.33    0.87
  -1 -12 -13    1.06    0.67
  -1  12  13    1.87    0.79
  -1 -12  13    1.67    0.91
   1  12  13    1.93    0.80
   1 -12 -13    3.58    0.92
  -1  12 -13    2.97    0.90
   2 -12  13    4.14    1.02
  -2 -12 -13    0.46    0.67
  -2  12  13    1.08    0.72
  -2 -12 -13    1.30    0.70
   2  12 -13    3.13    0.95
  -2 -12  13    2.41    0.91
   2  12  13    1.53    0.81
   2 -12 -13    0.66    0.66
  -2  12 -13    1.38    0.73
   3  12 -13    0.45    0.64
  -3  12  13    0.71    0.63
   3 -12  13    2.08    0.86
  -3 -12 -13    2.18    0.75
  -3 -12 -13    2.45    0.86
  -3  12 -13    1.17    0.69
   3 -12 -13    1.99    0.80
   3  12  13    1.53    0.79
  -3 -12  13    3.76    1.00
  -4  12  13   10.22    1.26
  -4 -12 -13    8.94    1.29
   4  12 -13    8.72    1.33
  -4 -12 -13   11.10    1.53
   4 -12  13   10.66    1.47
   4  12  13    7.72    1.32
  -4 -12  13   15.28    1.66
   4 -12 -13   10.75    1.40
  -4  12 -13   11.83    1.45
   5  12 -13    5.78    1.18
  -5 -12 -13    6.22    1.28
  -5 -12 -13    6.90    1.15
   5  12  13    4.18    1.04
  -5 -12  13    7.57    1.31
   5 -12 -13    4.24    1.05
  -5  12 -13    6.01    1.15
  -6 -12 -13    3.06    0.97
   6  12 -13    2.85    0.91
  -6 -12 -13    3.94    1.11
   6  12  13    2.17    0.94
  -6  12 -13    2.18    0.85
  -6 -12  13    2.55    1.03
   6 -12 -13    4.19    1.06
   0 -13  13    3.58    1.02
   0  13  13    2.40    0.83
   0  13 -13    3.21    0.97
   0 -13 -13    2.02    0.81
   1 -13  13    1.47    0.89
   1  13 -13    1.50    0.81
  -1 -13 -13    1.04    0.70
  -1  13  13    1.71    0.75
   1  13  13    2.98    0.87
  -1  13 -13    1.50    0.75
   1 -13 -13    0.76    0.66
  -1 -13  13    1.35    0.94
  -2  13  13    3.33    0.85
   2 -13  13    2.54    0.96
  -2 -13 -13    2.45    0.81
   2  13 -13    2.07    0.85
  -2 -13 -13    3.31    0.93
   2 -13 -13    2.39    0.87
  -2  13 -13    2.64    0.87
   2  13  13    2.66    0.92
  -2 -13  13    2.17    0.99
  -3 -13 -13    5.15    1.11
   3  13 -13    3.66    1.01
   3 -13  13    3.49    1.05
  -3 -13 -13    2.59    0.85
  -3  13  13    4.50    0.94
   3  13  13    3.51    1.04
   3 -13 -13    4.88    1.06
  -3 -13  13    2.96    1.00
  -3  13 -13    2.99    0.91
   4  13 -13   -0.38    0.60
  -4 -13 -13    0.73    0.77
  -4 -13 -13   -0.28    0.60
  -4  13  13   -0.70    0.56
  -4  13 -13    1.00    0.66
  -4 -13  13   -1.04    0.76
   4 -13 -13   -0.28    0.66
   4  13  13    0.57    0.75
  -5 -13 -13    3.65    1.04
   5  13 -13    4.14    1.11
  -5 -13 -13    3.80    1.09
  -5  13 -13    4.18    1.02
   0 -14  13    1.86    0.96
   0  14  13    0.36    0.82
   0  14 -13    2.62    0.97
  -1  14  13    2.38    0.95
   1 -14  13    2.18    0.97
   1  14 -13    3.69    1.07
  -1  14 -13    2.44    0.85
   1  14  13    3.30    1.01
  -1 -14  13    4.52    1.16
   2 -14  13    0.20    0.87
  -2  14  13    0.17    0.73
  -2 -14 -13    0.55    0.63
   2  14 -13    0.28    0.69
  -2 -14  13    1.54    0.95
   2  14  13    1.96    0.85
  -2  14 -13    0.95    0.71
  -3 -14 -13    1.01    0.68
   3 -14  13    1.07    0.89
   3  14 -13    1.05    0.79
  -3  14  13    0.17    0.77
   3  14  13    0.77    0.83
  -3 -14  13    0.48    0.86
  -3  14 -13    0.68    0.70
   0   0 -14   12.10    1.31
   0   0  14   12.28    1.21
   0   0 -14   11.19    0.92
   1   0 -14    1.11    0.47
  -1   0  14    0.33    0.54
  -1   0 -14    1.25    0.56
   1   0  14    0.97    0.61
   1   0 -14    1.80    0.60
  -2   0 -14    4.50    0.86
   2   0  14    6.77    1.02
  -2   0  14    7.77    1.05
   2   0 -14    5.84    0.91
   2   0 -14    7.36    0.90
   3   0 -14    1.07    0.49
   3   0  14    1.06    0.58
  -3   0 -14    0.98    0.61
  -3   0  14    1.47    0.67
   3   0 -14    1.75    0.63
   4   0 -14    7.42    1.07
   4   0  14    6.82    1.00
   4   0 -14    9.78    1.15
  -4   0  14    7.76    1.03
  -4   0 -14    8.59    1.20
  -5   0 -14    3.02    0.81
  -5   0  14    4.09    0.82
   5   0  14    3.57    0.77
  -5   0  14    3.31    0.79
   5   0 -14    3.43    0.84
   6   0 -14   25.06    1.82
  -6   0  14   29.00    1.73
  -6   0 -14   27.23    1.90
   6   0  14   25.42    1.70
  -6   0  14   28.17    1.73
   6   0  14   25.88    1.63
  -7   0  14    0.68    0.59
   7   0  14    0.01    0.60
  -7   0  14    0.74    0.62
  -7   0 -14   -0.04    0.58
   7   0 -14   -0.23    0.56
  -8   0  14    1.11    0.74
   8   0 -14    1.62    0.80
  -8   0 -14   -0.10    0.63
   8   0  14    0.71    0.68
  -9   0  14   -0.23    0.57
  -9   0 -14   -0.27    0.58
   9   0  14   -1.27    0.57
   9   0 -14   -0.50    0.60
   0  -1 -14   17.85    1.41
   0   1 -14   19.01    1.19
   0   1  14   18.13    1.39
   0  -1  14   17.87    1.39
   0   1 -14   18.31    1.37
   1   1 -14   20.05    1.44
  -1   1  14   19.62    1.46
   1  -1  14   20.14    1.44
   1   1 -14   21.40    1.27
  -1  -1 -14   19.91    1.46
  -1   1 -14   23.57    1.30
  -1   1 -14   24.18    1.55
   1   1  14   21.40    1.48
  -1  -1  14   23.36    1.53
   1  -1 -14   23.72    1.31
   1  -1 -14   19.29    1.45
   2   1 -14    3.76    0.73
   2   1 -14    3.69    0.77
  -2   1  14    3.88    0.82
   2  -1  14    3.04    0.72
  -2  -1 -14    3.72    0.80
   2  -1 -14    2.06    0.64
   2   1  14    4.49    0.87
  -2  -1  14    2.49    0.72
  -2   1 -14    2.04    0.66
   2  -1 -14    4.01    0.69
   3   1 -14    1.34    0.58
  -3  -1 -14    2.44    0.77
  -3   1  14    1.35    0.62
   3  -1  14    1.10    0.63
   3   1 -14    1.19    0.54
  -3   1 -14    1.80    0.64
   3  -1 -14    1.27    0.54
   3  -1 -14    0.74    0.54
   3   1  14    2.07    0.72
  -3  -1  14    1.67    0.64
   4  -1  14    2.14    0.70
   4   1 -14    0.08    0.50
  -4  -1 -14    0.59    0.57
  -4   1  14    1.63    0.56
   4   1 -14    1.91    0.66
  -4   1  14    1.64    0.66
   4  -1 -14    0.68    0.54
  -4  -1  14    1.46    0.66
   4   1  14    1.36    0.62
  -4   1 -14    1.70    0.65
   5   1 -14   19.20    1.54
  -5   1  14   22.79    1.48
  -5   1  14   19.81    1.45
   5  -1  14   20.73    1.49
   5   1 -14   21.54    1.54
  -5  -1 -14   21.24    1.69
   5   1  14   19.44    1.45
  -5   1 -14   20.02    1.62
   5  -1 -14   20.26    1.60
  -5  -1  14   18.22    1.43
   6  -1  14    2.08    0.69
  -6   1  14    2.01    0.71
   6   1 -14    1.71    0.73
   6  -1  14    0.03    0.56
  -6   1  14    1.08    0.59
  -6  -1 -14    1.51    0.71
  -6   1 -14    1.71    0.79
   6   1  14    1.41    0.63
   6   1  14    1.15    0.62
  -6  -1  14    1.35    0.65
  -6  -1  14    1.04    0.62
   6  -1 -14    1.31    0.69
   7  -1  14   25.07    1.80
  -7  -1 -14   26.38    1.92
   7   1 -14   26.71    1.96
  -7   1  14   27.11    1.80
  -7   1  14   29.03    1.81
  -7   1 -14   23.85    1.85
   7  -1 -14   32.42    2.08
   7   1  14   23.48    1.68
  -7  -1  14   26.61    1.70
  -7  -1  14   24.58    1.70
   8  -1  14    2.41    0.83
  -8  -1 -14    1.36    0.75
  -8   1  14    2.50    0.80
   8   1 -14    3.16    0.93
  -8   1 -14    2.65    0.89
  -8  -1  14    3.18    0.86
   8   1  14    1.30    0.77
   8  -1 -14    3.12    0.96
  -9  -1 -14    0.20    0.62
   9   1 -14    0.09    0.64
  -9   1  14    0.21    0.61
   9  -1  14    0.46    0.75
  -9  -1  14    0.24    0.60
  -9   1 -14    0.73    0.69
   9  -1 -14   -0.37    0.60
   9   1  14   -0.46    0.66
   0   2 -14   58.42    2.49
   0  -2  14   57.49    2.45
   0  -2 -14   59.80    2.60
   0   2  14   57.06    2.44
   0   2 -14   55.68    2.20
  -1   2  14    7.35    1.02
   1   2 -14    6.23    0.96
   1   2 -14    8.40    0.98
  -1  -2 -14    6.35    1.03
   1  -2  14    6.68    0.96
  -1   2 -14    8.50    1.10
   1  -2 -14    7.54    0.90
   1   2  14    9.46    1.14
   1  -2 -14    7.84    1.10
  -1  -2  14    8.34    1.07
  -1   2 -14    8.97    0.97
   2   2 -14    0.99    0.48
   2  -2  14    0.74    0.59
  -2   2  14    0.39    0.54
  -2  -2 -14    1.02    0.60
   2   2 -14    0.06    0.41
  -2   2 -14    0.70    0.43
  -2   2 -14   -0.10    0.41
  -2  -2  14   -0.28    0.51
   2  -2 -14   -0.45    0.36
   2   2  14    0.71    0.59
  -3   2  14    0.48    0.54
   3  -2  14    1.07    0.60
   3   2 -14    0.32    0.47
  -3  -2 -14    0.56    0.54
  -3   2  14    0.87    0.45
   3   2 -14    0.71    0.49
   3   2  14   -0.18    0.51
  -3   2 -14    0.44    0.52
   3  -2 -14    0.38    0.48
  -3  -2  14    0.51    0.54
   4  -2  14   10.99    1.19
  -4   2  14   10.66    1.10
   4   2 -14   11.36    1.32
  -4  -2 -14   12.53    1.44
  -4   2  14   11.33    1.22
   4   2 -14   13.26    1.31
   4  -2 -14   13.59    1.52
  -4   2 -14   12.39    1.38
  -4  -2  14   13.49    1.37
   4   2  14   12.62    1.27
   5   2 -14    7.97    1.15
   5   2 -14    6.59    1.04
   5  -2  14    7.12    0.98
  -5   2  14    6.88    0.95
  -5   2  14    8.24    1.09
  -5  -2 -14    7.21    1.16
   5  -2 -14    6.76    1.14
  -5  -2  14    4.51    0.91
  -5   2 -14    6.14    1.05
   5   2  14    6.04    0.94
   5   2  14    5.47    0.85
  -6   2  14   13.79    1.36
  -6   2  14   15.94    1.46
  -6  -2 -14   11.99    1.46
   6  -2  14   13.39    1.36
   6   2 -14   13.31    1.47
   6  -2 -14   15.51    1.65
  -6  -2  14   13.70    1.40
   6   2  14   13.03    1.30
  -6   2 -14   16.40    1.66
   6   2  14   13.30    1.32
  -7  -2 -14    4.27    0.98
  -7   2  14    5.13    0.97
   7   2 -14    4.67    1.01
   7  -2  14    5.95    1.02
  -7   2 -14    4.60    0.98
  -7  -2  14    4.88    0.93
   7  -2 -14    5.96    1.13
  -7  -2  14    3.24    0.84
   7   2  14    5.27    1.00
  -8   2  14    2.24    0.80
  -8  -2 -14    3.07    0.97
   8   2 -14    4.69    1.06
   8  -2  14    1.09    0.72
   8   2  14    1.76    0.79
   8  -2 -14    5.18    1.14
  -8   2 -14    3.58    0.98
  -8  -2  14    3.40    0.87
   9  -2  14    1.12    0.79
  -9  -2 -14    0.33    0.69
   9   2 -14    1.69    0.83
  -9   2  14    1.67    0.80
   9  -2 -14   -0.14    0.69
   9   2  14    1.51    0.87
  -9  -2  14   -0.13    0.61
  -9   2 -14    1.59    0.86
   0  -3 -14    0.92    0.53
   0   3 -14    0.32    0.40
   0   3  14   -0.07    0.51
   0   3 -14    1.11    0.49
   0  -3  14    0.24    0.55
   1   3 -14   34.66    1.88
   1  -3  14   38.22    1.98
  -1  -3 -14   34.54    1.99
   1   3 -14   40.32    1.88
  -1   3  14   39.56    2.01
  -1   3 -14   36.24    1.71
   1  -3 -14   33.44    1.94
   1   3  14   37.52    1.93
  -1  -3  14   32.90    1.89
  -1   3 -14   35.20    1.84
   2   3 -14   20.91    1.38
  -2   3  14   19.12    1.44
   2   3 -14   16.05    1.31
   2  -3  14   18.93    1.47
  -2  -3 -14   19.02    1.53
   2  -3 -14   19.47    1.50
   2   3  14   18.11    1.41
  -2   3 -14   18.84    1.40
  -2  -3  14   17.58    1.44
  -2   3 -14   20.03    1.30
  -3   3  14   22.70    1.60
   3   3 -14   19.48    1.44
  -3   3  14   24.58    1.38
  -3  -3 -14   24.10    1.74
   3  -3  14   23.16    1.53
   3   3 -14   20.81    1.45
  -3   3 -14   23.24    1.34
   3  -3 -14   20.55    1.57
   3   3  14   18.09    1.49
  -3   3 -14   22.62    1.53
  -3  -3  14   22.31    1.57
   4  -3  14    4.96    0.92
  -4  -3 -14    6.11    1.11
  -4   3  14    5.27    0.89
   4   3 -14    5.43    0.92
  -4   3  14    5.15    0.81
   4   3 -14    4.01    0.85
   4  -3 -14    5.42    0.97
  -4  -3  14    6.77    1.06
  -4   3 -14    4.94    0.94
   4   3  14    5.65    0.93
  -5   3  14   16.75    1.34
  -5   3  14   14.35    1.38
  -5  -3 -14   15.43    1.67
   5  -3  14   16.70    1.38
   5   3 -14   19.66    1.51
   5   3 -14   16.48    1.40
   5   3  14   14.92    1.39
  -5  -3  14   13.23    1.37
   5   3  14   15.14    1.22
  -5   3 -14   12.56    1.39
   5  -3 -14   16.67    1.71
   6   3 -14    1.21    0.65
  -6   3  14    0.60    0.61
  -6   3  14    1.52    0.62
   6  -3  14    1.42    0.67
   6   3 -14    1.14    0.63
  -6  -3 -14    0.82    0.66
   6  -3 -14    1.07    0.63
   6   3  14    2.19    0.67
   6   3  14    0.56    0.58
  -6   3 -14    0.19    0.53
  -6  -3  14    0.29    0.63
   7   3 -14   15.08    1.64
  -7   3  14   14.25    1.44
   7  -3  14   11.68    1.34
  -7  -3 -14    9.76    1.37
   7  -3 -14   15.21    1.76
   7   3  14   17.87    1.48
  -7   3 -14   16.33    1.64
  -7  -3  14   12.07    1.36
   8  -3  14    6.15    1.13
   8   3 -14    6.68    1.24
  -8   3  14    7.02    1.14
  -8  -3 -14    5.86    1.19
  -8  -3  14    7.57    1.17
   8  -3 -14    7.75    1.33
   8   3  14    6.06    1.11
  -8   3 -14    6.09    1.14
  -9   3  14    4.37    1.03
   9   3 -14    3.66    1.05
   9  -3  14    2.26    0.87
  -9  -3 -14    3.96    1.12
   9  -3 -14    3.60    1.12
  -9  -3  14    5.01    1.00
   9   3  14    3.13    0.92
  -9   3 -14    3.09    0.95
   0  -4  14   23.63    1.65
   0   4  14   25.37    1.62
   0   4 -14   25.75    1.54
   0   4 -14   26.96    1.56
   0  -4 -14   23.75    1.66
   1   4 -14   14.72    1.20
   1  -4  14   13.58    1.35
  -1   4  14   13.14    1.28
  -1  -4 -14   16.76    1.41
   1   4 -14   14.76    1.19
   1   4  14   12.56    1.32
  -1  -4  14   14.03    1.40
  -1   4 -14   16.63    1.27
  -1   4 -14   16.92    1.24
   1  -4 -14   16.13    1.39
   2  -4  14   17.82    1.46
   2   4 -14   17.49    1.30
  -2  -4 -14   18.58    1.52
   2   4 -14   18.08    1.37
  -2   4  14   17.09    1.36
   2   4  14   13.83    1.36
   2  -4 -14   18.45    1.48
  -2   4 -14   18.92    1.33
  -2  -4  14   17.53    1.49
  -2   4 -14   18.76    1.36
  -3  -4 -14    0.79    0.63
   3   4 -14    2.01    0.66
   3  -4  14    1.90    0.68
  -3   4  14    1.90    0.68
   3   4 -14    2.18    0.63
   3   4  14    0.89    0.63
  -3  -4  14    1.66    0.70
  -3   4 -14    1.61    0.59
  -3   4 -14    1.23    0.55
   3  -4 -14    1.87    0.66
  -4   4  14   43.73    1.99
  -4  -4 -14   45.51    2.46
   4   4 -14   44.95    2.19
   4   4 -14   47.24    2.25
  -4   4  14   44.24    2.13
   4  -4  14   44.64    2.12
   4   4  14   52.23    2.35
  -4  -4  14   46.02    2.28
   4  -4 -14   48.72    2.47
  -4   4 -14   48.28    2.32
  -4   4 -14   47.58    2.07
  -5  -4 -14    3.95    0.95
   5   4 -14    3.66    0.85
  -5   4  14    3.04    0.73
   5  -4  14    3.41    0.81
  -5   4  14    4.62    0.89
   5   4 -14    3.10    0.79
   5  -4 -14    4.01    0.93
  -5  -4  14    3.28    0.84
   5   4  14    3.91    0.78
  -5   4 -14    4.11    0.91
   5   4  14    4.29    0.85
   6   4 -14    1.89    0.74
  -6   4  14    0.19    0.55
  -6   4  14    1.42    0.68
   6   4 -14    1.73    0.69
  -6  -4 -14    1.85    0.86
   6   4  14    1.42    0.63
  -6  -4  14    1.72    0.77
  -6   4 -14    0.98    0.65
   6   4  14    0.31    0.59
   6  -4 -14    1.68    0.75
  -7  -4 -14    1.11    0.71
   7   4 -14    0.70    0.65
   7   4 -14    0.57    0.64
  -7   4  14    0.69    0.57
   7  -4  14    0.18    0.67
   7  -4 -14    0.54    0.68
  -7   4 -14    0.45    0.57
  -7  -4  14   -0.06    0.64
   7   4  14    1.36    0.68
   8   4 -14    7.22    1.21
  -8  -4 -14    5.50    1.13
  -8   4  14    7.34    1.15
   8  -4  14    8.39    1.25
   8  -4 -14    9.40    1.48
  -8   4 -14    7.55    1.22
   8   4  14    6.14    1.07
  -8  -4  14    9.48    1.28
  -9   4  14    0.81    0.72
  -9  -4 -14   -0.19    0.69
   9  -4  14    0.78    0.76
   9   4 -14    0.93    0.72
   9  -4 -14   -0.07    0.72
   9   4  14    0.88    0.66
  -9  -4  14    0.71    0.66
  -9   4 -14   -0.10    0.68
   0  -5 -14    1.25    0.64
   0   5  14    0.88    0.58
   0   5 -14    0.62    0.46
   0  -5  14    0.97    0.64
   0   5 -14    1.70    0.61
  -1  -5 -14    9.59    1.28
   1  -5  14    9.94    1.25
  -1   5  14    7.96    1.07
   1   5 -14    7.65    1.01
   1   5 -14   11.11    1.17
   1   5  14   10.18    1.19
  -1   5 -14   11.52    1.19
  -1   5 -14   10.63    1.18
   1  -5 -14   11.39    1.34
  -1  -5  14    9.45    1.23
   2  -5  14   11.09    1.28
  -2  -5 -14    9.32    1.27
   2   5 -14    7.41    1.00
   2   5 -14   10.30    1.18
  -2   5  14    9.67    1.20
  -2  -5  14    8.79    1.15
   2   5  14    8.13    1.07
  -2   5 -14   10.09    1.14
  -2   5 -14    9.36    1.06
   2  -5 -14   10.74    1.33
  -3   5  14   61.42    2.63
   3  -5  14   58.94    2.57
   3   5 -14   63.33    2.65
   3   5 -14   64.55    2.59
  -3  -5 -14   61.50    2.87
   3   5  14   61.25    2.60
   3  -5 -14   60.26    2.78
  -3  -5  14   62.68    2.66
  -3   5 -14   60.08    2.53
  -3   5 -14   61.89    2.47
  -4  -5 -14    2.87    0.82
   4   5 -14    3.98    0.79
   4   5 -14    2.94    0.82
  -4   5  14    3.54    0.76
  -4   5  14    1.87    0.76
   4  -5  14    5.07    0.93
   4   5  14    4.36    0.87
  -4  -5  14    4.46    0.93
  -4   5 -14    5.71    0.90
   4  -5 -14    5.04    0.97
  -4   5 -14    3.83    0.83
  -5  -5 -14   11.94    1.50
   5   5 -14   10.29    1.25
  -5   5  14   12.12    1.30
   5  -5  14    9.15    1.12
   5   5 -14   13.50    1.45
  -5   5  14   10.16    1.10
   5   5  14   12.29    1.31
  -5  -5  14   13.82    1.44
  -5   5 -14   12.37    1.24
   5   5  14   13.31    1.30
   5  -5 -14   14.61    1.58
   6   5 -14    1.23    0.73
   6   5 -14    1.02    0.69
  -6  -5 -14    0.08    0.65
  -6   5  14    0.47    0.58
  -6   5  14    0.68    0.61
  -6  -5  14    0.48    0.62
   6   5  14    0.63    0.66
   6   5  14    0.60    0.57
   6  -5 -14    1.11    0.72
  -7   5  14    2.30    0.76
   7   5 -14    3.26    0.87
   7   5 -14    3.70    0.95
  -7  -5 -14    2.11    0.80
   7  -5  14    3.07    0.88
  -7  -5  14    3.28    0.92
   7   5  14    2.46    0.83
   7   5  14    3.70    0.87
   7  -5 -14    4.30    1.03
  -8   5  14    0.66    0.68
   8  -5  14   -0.15    0.70
  -8  -5 -14    0.32    0.69
   8   5 -14    0.77    0.68
   8   5  14    0.90    0.73
   8  -5 -14    0.73    0.80
  -9  -5 -14   13.36    1.78
   9   5 -14   15.55    1.78
  -9   5  14   14.03    1.62
   9  -5  14   12.67    1.57
   9  -5 -14   14.15    1.77
   9   5  14   13.24    1.62
  -9  -5  14   11.42    1.43
   0  -6 -14    2.57    0.76
   0   6 -14    3.71    0.78
   0   6  14    2.18    0.69
   0  -6  14    1.48    0.71
  -1  -6 -14    0.36    0.58
   1   6 -14    0.09    0.46
  -1   6  14    0.45    0.55
   1  -6  14    0.05    0.60
   1  -6 -14    0.25    0.53
  -1   6 -14    0.23    0.47
  -1  -6  14    0.35    0.60
   1   6  14    0.77    0.60
  -2  -6 -14   35.91    2.15
   2  -6  14   41.84    2.11
  -2   6  14   37.25    2.01
   2   6 -14   38.94    2.04
   2   6  14   38.52    2.04
  -2   6 -14   37.56    1.93
   2  -6 -14   35.78    2.11
  -2  -6  14   38.00    2.08
   3  -6  14    5.65    1.01
   3   6 -14    5.54    0.96
   3   6 -14    6.99    1.03
  -3  -6 -14    4.63    0.99
  -3   6  14    5.65    0.98
   3  -6 -14    6.36    1.07
   3   6  14    7.62    1.14
  -3  -6  14    4.90    0.97
  -3   6 -14    5.42    0.91
  -4  -6 -14   32.28    2.16
   4   6 -14   33.45    1.95
   4  -6  14   34.19    1.95
   4   6 -14   34.07    1.85
  -4   6  14   32.74    1.87
  -4  -6  14   38.27    2.10
   4  -6 -14   37.25    2.18
  -4   6 -14   32.88    1.81
   4   6  14   33.45    1.95
   5   6 -14    0.66    0.56
  -5   6  14    0.10    0.53
  -5  -6 -14    0.16    0.60
   5   6 -14    0.78    0.62
  -5   6  14    0.53    0.58
   5  -6  14    0.32    0.62
   5   6  14    0.69    0.49
   5  -6 -14    0.69    0.65
   5   6  14    0.61    0.63
  -5  -6  14    0.24    0.66
  -5   6 -14    0.42    0.49
  -6  -6 -14   -0.57    0.55
  -6   6  14    0.78    0.56
  -6   6  14    0.15    0.53
   6   6 -14    0.72    0.61
   6   6 -14    0.62    0.58
   6   6  14    0.12    0.62
   6   6  14   -0.46    0.53
  -6  -6  14    1.72    0.77
   6  -6 -14    0.00    0.57
   7   6 -14    1.26    0.71
  -7   6  14    0.93    0.66
  -7  -6 -14    1.64    0.81
   7  -6  14    0.30    0.73
   7   6 -14    1.31    0.69
   7   6  14    1.65    0.73
   7  -6 -14   -0.50    0.66
   7   6  14    1.33    0.71
  -7  -6  14    0.66    0.74
  -8  -6 -14   15.80    1.82
   8   6 -14   15.91    1.76
   8  -6  14   16.83    1.74
   8   6 -14   17.93    1.93
  -8   6  14   14.40    1.56
   8   6  14   14.09    1.58
   8  -6 -14   17.82    1.94
  -8  -6  14   16.52    1.63
   0  -7 -14    0.27    0.55
   0   7  14   -0.04    0.54
   0   7 -14   -0.40    0.47
   0  -7  14    0.31    0.63
   1  -7  14   10.13    1.22
  -1   7  14    7.71    1.09
   1   7 -14   10.42    1.27
  -1  -7 -14   11.43    1.41
  -1  -7  14    8.18    1.19
   1  -7 -14    7.96    1.15
  -1   7 -14    7.99    1.09
   1   7  14    8.50    1.18
  -2   7  14    2.23    0.76
   2  -7  14    2.93    0.87
  -2  -7 -14    4.82    1.04
   2   7 -14    3.66    0.81
   2  -7 -14    3.95    0.89
  -2   7 -14    3.89    0.81
   2   7  14    3.46    0.84
  -2  -7  14    2.68    0.84
  -3   7  14   48.48    2.29
   3   7 -14   48.39    2.37
  -3  -7 -14   42.41    2.45
   3  -7  14   49.99    2.38
   3   7  14   43.57    2.25
   3  -7 -14   45.83    2.43
  -3   7 -14   45.28    2.20
  -3  -7  14   45.44    2.35
  -4   7  14    3.17    0.78
  -4  -7 -14    2.60    0.88
   4  -7  14    2.90    0.87
   4   7 -14    3.08    0.82
  -4   7 -14    3.60    0.81
  -4  -7  14    2.24    0.83
   4   7  14    1.39    0.72
   4  -7 -14    2.66    0.83
   5   7 -14    3.16    0.93
   5  -7  14    3.13    0.92
  -5  -7 -14    5.21    1.14
  -5   7  14    1.94    0.67
   5  -7 -14    4.18    0.95
  -5  -7  14    4.60    1.02
   5   7  14    4.69    0.98
  -5   7 -14    4.13    0.85
   5   7  14    3.88    0.84
   6   7 -14    1.51    0.71
  -6  -7 -14    2.73    0.90
   6   7  14    2.13    0.72
   6   7  14    1.35    0.65
  -6   7 -14    1.44    0.65
   6  -7 -14    1.39    0.81
  -6  -7  14    0.95    0.77
   7   7 -14    2.98    0.89
  -7  -7 -14    3.09    1.02
  -7   7  14    0.87    0.72
   7   7  14    0.90    0.71
   7  -7 -14    1.33    0.82
  -7  -7  14    2.35    0.89
   7   7  14    1.29    0.77
  -8  -7 -14    4.53    1.11
  -8   7  14    2.10    0.92
   8   7 -14    4.01    1.02
   8  -7  14    2.00    0.95
  -8  -7  14    2.40    0.90
   8   7  14    3.69    1.05
   8  -7 -14    2.92    0.98
   0   8 -14   10.28    1.29
   0   8  14    9.85    1.25
   0  -8  14   10.10    1.27
   0  -8 -14   11.21    1.42
   1  -8  14    4.66    0.99
  -1   8  14    3.44    0.85
   1   8 -14    4.86    0.92
  -1  -8 -14    4.01    0.89
  -1  -8  14    5.50    1.02
   1   8  14    2.93    0.86
   1  -8 -14    3.35    0.88
  -1   8 -14    6.13    1.04
  -2  -8 -14   24.28    1.79
   2  -8  14   20.37    1.63
  -2   8  14   18.50    1.58
   2   8 -14   21.88    1.66
   2   8  14   18.89    1.61
  -2  -8  14   20.43    1.68
   2  -8 -14   21.79    1.73
  -2   8 -14   21.18    1.55
   3  -8  14    0.84    0.72
  -3  -8 -14   -0.33    0.57
   3   8 -14    0.43    0.55
  -3   8  14    0.01    0.59
  -3   8 -14    0.07    0.50
  -3  -8  14   -0.61    0.62
   3   8  14    0.17    0.65
   3  -8 -14   -0.03    0.55
  -4  -8 -14   15.22    1.69
   4   8 -14   15.58    1.67
  -4   8  14   17.87    1.62
   4  -8  14   18.75    1.53
  -4  -8  14   15.64    1.59
   4  -8 -14   16.85    1.73
   4   8  14   12.95    1.40
  -4   8 -14   15.91    1.54
   5   8 -14    3.90    0.92
  -5  -8 -14    4.17    1.05
  -5   8  14    3.74    0.87
   5   8  14    4.20    0.92
   5   8  14    3.78    0.84
  -5   8 -14    4.60    0.89
  -5  -8  14    4.15    0.98
   5  -8 -14    2.98    0.90
   6   8 -14    0.65    0.68
  -6  -8 -14    0.14    0.63
   6  -8 -14    0.45    0.66
  -6   8 -14   -0.61    0.53
  -6  -8  14    0.41    0.74
   6   8  14   -0.79    0.63
   6   8  14   -1.21    0.50
  -7  -8 -14   11.15    1.65
   7   8 -14   11.08    1.50
  -7  -8  14   12.63    1.49
  -7   8 -14   10.76    1.33
   7   8  14    8.47    1.25
   7  -8 -14    8.93    1.39
   7   8  14    8.94    1.25
   8  -8 -14    3.23    1.07
   0   9 -14    1.56    0.68
   0  -9  14    3.38    0.92
   0   9  14    2.01    0.76
   0  -9 -14    1.88    0.77
  -1  -9 -14   10.23    1.34
  -1   9  14    9.67    1.27
   1  -9  14    9.59    1.29
   1   9 -14   11.20    1.42
   1  -9 -14   10.24    1.35
   1   9  14    7.40    1.12
  -1  -9  14   10.93    1.38
  -1   9 -14   10.06    1.30
   2  -9  14    5.81    1.08
  -2   9  14    5.33    1.03
  -2  -9 -14    5.87    1.10
   2   9 -14    4.24    0.96
  -2   9 -14    4.45    0.92
   2  -9 -14    4.76    1.00
  -2  -9  14    5.96    1.11
   2   9  14    4.02    0.94
   3   9 -14    7.95    1.24
  -3   9  14    7.99    1.16
  -3  -9 -14    8.83    1.34
   3  -9  14    9.69    1.24
  -3   9 -14    7.94    1.16
  -3  -9  14    7.51    1.22
   3   9  14    7.11    1.15
   3  -9 -14    4.67    1.00
   4  -9  14    6.56    1.14
  -4   9  14    5.79    1.04
   4   9 -14    8.77    1.23
  -4  -9 -14    5.31    1.09
   4  -9 -14    5.78    1.11
  -4  -9  14    6.43    1.19
  -4   9 -14    5.87    1.04
   4   9  14    6.42    1.08
   5   9 -14    4.96    0.99
  -5  -9 -14    6.22    1.20
  -5   9  14    3.94    0.86
   5   9  14    6.70    1.08
   5   9  14    5.18    1.09
   5  -9 -14    5.60    1.11
  -5   9 -14    6.53    1.10
  -5  -9  14    7.90    1.21
   6   9 -14    2.64    0.95
  -6  -9 -14    4.96    1.18
  -6  -9  14    2.42    0.96
   6   9  14    2.42    0.88
   6   9  14    3.31    0.92
  -6   9 -14    3.66    0.90
   6  -9 -14    3.11    0.94
   7   9 -14    0.93    0.74
  -7  -9 -14    3.63    1.07
   7   9  14    3.41    0.92
  -7   9 -14    2.77    0.86
   7  -9 -14    5.48    1.23
   7   9  14    3.31    0.93
  -7  -9  14    3.76    1.00
   0  10 -14   14.30    1.65
   0 -10  14   12.80    1.46
   0  10  14    9.74    1.28
   0 -10 -14   13.03    1.53
  -1 -10 -14    5.65    1.09
   1  10 -14    5.00    1.05
   1 -10  14    6.10    1.08
  -1  10  14    5.67    1.06
   1 -10 -14    5.46    1.05
   1  10  14    5.44    1.02
  -1 -10  14    6.08    1.14
  -1  10 -14    5.09    1.03
  -2  10  14    2.90    0.91
  -2 -10 -14    5.86    1.17
   2 -10  14    4.08    1.00
   2  10 -14    4.35    1.02
  -2 -10  14    3.73    0.99
   2  10  14    4.04    0.91
  -2  10 -14    4.55    0.93
   2 -10 -14    3.64    0.91
  -3  10  14   -0.18    0.60
   3 -10  14    0.85    0.72
   3  10 -14    0.32    0.54
  -3 -10 -14    0.14    0.58
  -3 -10  14    0.09    0.71
   3 -10 -14    0.01    0.58
  -3  10 -14   -0.71    0.46
   3  10  14    0.23    0.67
  -4 -10 -14    0.00    0.63
  -4 -10 -14    0.54    0.62
   4  10 -14   -0.67    0.48
   4 -10  14    0.08    0.67
  -4  10  14    0.76    0.66
   4 -10 -14    0.45    0.64
  -4  10 -14    0.38    0.60
   4  10  14    0.25    0.67
  -4 -10  14    0.82    0.78
  -5  10  14    6.41    1.07
   5  10 -14    4.29    1.06
  -5 -10 -14    5.34    1.20
  -5 -10  14    8.99    1.35
  -5  10 -14    4.61    0.98
   5  10  14    4.25    0.95
   5 -10 -14    4.37    1.04
   6  10 -14   21.41    2.06
  -6 -10 -14   15.65    1.86
  -6 -10  14   19.71    1.90
   6  10  14   16.16    1.70
   6 -10 -14   15.29    1.81
  -6  10 -14   17.38    1.68
   6  10  14   12.49    1.47
   0 -11 -14    6.20    1.13
   0 -11  14    7.90    1.25
   0  11  14    3.72    0.95
   0  11 -14    5.49    1.16
  -1 -11 -14   12.90    1.57
  -1  11  14   13.39    1.44
   1 -11  14   16.16    1.60
   1  11 -14   18.45    1.89
  -1  11 -14   15.35    1.64
   1  11  14   13.42    1.51
   1 -11 -14   17.29    1.78
  -1 -11  14   16.58    1.68
   2  11 -14    1.32    0.65
   2 -11  14    2.52    0.88
  -2 -11 -14    1.00    0.72
  -2  11  14    0.20    0.62
   2  11  14    1.08    0.78
  -2 -11  14    1.97    0.93
   2 -11 -14    1.82    0.77
  -2  11 -14    2.48    0.85
   3  11 -14    3.07    0.96
  -3  11  14    3.10    0.88
  -3 -11 -14    0.21    0.62
   3 -11  14    0.34    0.76
   3  11  14    0.05    0.71
   3 -11 -14    1.02    0.72
  -3 -11  14    2.09    0.91
  -3  11 -14    2.37    0.80
  -4  11  14   -0.02    0.63
  -4 -11 -14    0.04    0.64
   4  11 -14   -0.33    0.54
   4 -11  14    0.77    0.75
  -4 -11 -14    0.20    0.57
   4 -11 -14    0.69    0.69
  -4  11 -14   -0.01    0.59
   4  11  14    0.12    0.67
  -4 -11  14    0.08    0.78
  -5 -11 -14    8.16    1.26
   5  11 -14   10.14    1.51
  -5 -11 -14    8.19    1.38
   5 -11 -14    8.02    1.33
  -5  11 -14    9.20    1.35
  -5 -11  14   10.72    1.53
   5  11  14    7.38    1.22
   6  11 -14    0.46    0.76
   6 -11 -14    0.85    0.76
   0 -12 -14   17.52    1.80
   0  12  14   14.74    1.59
   0  12 -14   15.69    1.71
   0 -12  14   15.29    1.66
  -1  12  14    1.62    0.82
   1 -12  14    3.98    1.03
   1  12 -14    1.97    0.87
  -1 -12 -14    3.17    0.97
   1  12  14    1.94    0.85
  -1  12 -14    1.28    0.77
  -1 -12  14    1.51    0.95
   1 -12 -14    1.45    0.79
   2  12 -14    0.77    0.69
  -2 -12 -14    0.45    0.68
   2 -12  14    0.49    0.82
  -2  12  14    0.26    0.62
  -2  12 -14   -0.01    0.60
  -2 -12  14   -0.80    0.84
   2 -12 -14    0.51    0.71
   2  12  14    1.02    0.78
  -3 -12 -14   -0.06    0.61
  -3  12  14    0.57    0.69
   3 -12  14    1.13    0.85
   3  12 -14   -0.11    0.62
   3 -12 -14   -0.11    0.62
  -3 -12  14    1.61    0.94
  -3  12 -14    1.18    0.77
   3  12  14    1.43    0.79
  -4 -12 -14    1.79    0.77
  -4 -12 -14    0.82    0.71
   4  12 -14    1.00    0.77
  -4  12  14    0.62    0.71
   4  12  14    1.89    0.84
  -4 -12  14   -1.02    0.78
   4 -12 -14    0.78    0.71
  -4  12 -14    1.06    0.70
   0 -13 -14    1.00    0.75
   0 -13  14    4.51    1.18
   0  13 -14    2.96    0.96
   0  13  14    2.96    0.97
   1  13 -14   10.92    1.54
  -1 -13 -14   16.54    1.77
   1 -13  14   14.37    1.67
  -1  13  14   14.05    1.65
  -1  13 -14   13.50    1.69
  -1 -13  14   14.81    1.72
   1 -13 -14   15.13    1.72
   1  13  14   11.09    1.47
  -2  13  14    1.19    0.78
   2 -13  14    1.49    0.92
  -2 -13 -14    0.53    0.72
   2  13 -14    1.37    0.80
   2  13  14    0.87    0.79
   2 -13 -14    1.11    0.78
  -2 -13  14    0.93    0.93
  -2  13 -14    1.99    0.82
  -3 -13 -14   -0.37    0.60
   3  13 -14   -0.17    0.68
  -3  13  14    0.70    0.71
   3 -13  14    1.23    0.95
  -3 -13  14   -0.44    0.83
   3  13  14    0.33    0.81
   3 -13 -14   -0.69    0.57
  -3  13 -14    0.61    0.67
   0   0 -15    0.26    0.45
   0   0  15    0.86    0.62
  -1   0  15    0.26    0.54
  -1   0 -15    0.01    0.40
   1   0 -15   -0.38    0.40
   1   0 -15   -0.24    0.37
   1   0  15   -0.13    0.53
  -2   0  15   -0.54    0.51
  -2   0 -15   -0.02    0.44
   2   0 -15   -0.41    0.37
   2   0  15    0.60    0.57
   2   0 -15    0.25    0.42
   3   0  15    4.98    0.92
   3   0 -15    4.05    0.84
  -3   0  15    5.65    0.96
   3   0 -15    5.26    0.86
  -3   0 -15    5.00    0.99
   4   0 -15    9.25    1.26
  -4   0  15   10.92    1.29
  -4   0 -15   12.14    1.52
   4   0 -15   11.04    1.26
   4   0  15   10.98    1.27
  -5   0 -15    1.21    0.75
   5   0 -15    1.45    0.66
  -5   0  15    3.19    0.78
   5   0  15    2.40    0.76
  -5   0  15    2.42    0.74
  -6   0  15    1.43    0.70
  -6   0 -15    3.02    0.91
   6   0 -15    1.69    0.74
   6   0  15    2.03    0.76
  -6   0  15    3.36    0.79
  -7   0  15    3.18    0.86
  -7   0  15    1.46    0.69
   7   0 -15    1.80    0.84
  -7   0 -15    0.23    0.61
   8   0 -15    0.24    0.71
   8   0  15    0.00    0.65
  -8   0 -15    0.49    0.73
  -8   0  15    0.30    0.62
  -9   0 -15    0.24    0.77
   9   0 -15    0.15    0.75
   9   0  15    0.11    0.71
   0  -1 -15    0.05    0.46
   0   1  15    0.50    0.55
   0   1 -15   -0.31    0.40
   0  -1  15    0.45    0.59
   0   1 -15    0.49    0.40
   1   1 -15    2.68    0.73
   1   1 -15    2.70    0.66
  -1  -1 -15    2.52    0.70
   1  -1  15    3.95    0.86
  -1   1  15    2.33    0.78
  -1  -1  15    2.85    0.76
   1  -1 -15    3.84    0.82
   1   1  15    2.71    0.76
  -1   1 -15    3.37    0.78
   2  -1  15    2.17    0.73
  -2  -1 -15    4.08    0.88
   2   1 -15    2.65    0.64
  -2   1  15    1.57    0.66
   2   1 -15    1.31    0.59
  -2   1 -15    2.89    0.77
   2   1  15    3.47    0.83
   2  -1 -15    2.47    0.73
  -2  -1  15    1.25    0.70
   2  -1 -15    3.39    0.68
   3  -1  15   -0.31    0.51
   3   1 -15   -0.15    0.46
   3   1 -15    0.73    0.54
  -3  -1 -15    0.54    0.59
  -3   1  15   -0.11    0.53
  -3   1 -15    0.50    0.54
  -3  -1  15    0.02    0.56
   3  -1 -15    0.35    0.48
   3   1  15    0.51    0.62
   3  -1 -15   -0.14    0.43
  -4   1  15    4.50    0.81
  -4   1  15    2.47    0.73
   4  -1  15    4.02    0.89
  -4  -1 -15    3.42    0.89
   4   1 -15    5.43    0.93
   4   1 -15    6.14    1.03
  -4   1 -15    2.69    0.81
   4  -1 -15    4.25    0.93
  -4  -1  15    3.51    0.84
   4   1  15    3.86    0.84
   5   1 -15   16.78    1.56
   5   1 -15   18.72    1.83
  -5  -1 -15    9.88    1.37
  -5   1  15   17.23    1.35
   5  -1  15   17.61    1.49
  -5   1  15   16.09    1.53
  -5  -1  15   17.14    1.56
   5  -1 -15   16.70    1.68
   5   1  15   15.40    1.44
  -5   1 -15   16.61    1.72
   6  -1  15    5.36    0.99
  -6  -1 -15    5.04    1.10
  -6   1  15    4.12    0.89
  -6   1  15    2.86    0.76
   6   1 -15    5.12    1.01
  -6   1 -15    4.10    0.95
  -6  -1  15    5.09    0.95
  -6  -1  15    1.74    0.73
   6   1  15    3.44    0.88
   6  -1 -15    3.22    0.93
  -7   1  15    1.34    0.64
   7   1 -15    1.11    0.67
  -7  -1 -15   -0.22    0.61
  -7  -1  15    0.52    0.57
  -7  -1  15    1.13    0.69
  -7   1 -15    0.52    0.64
   7  -1 -15    0.58    0.71
  -8  -1 -15    1.12    0.79
   8   1 -15    3.07    0.94
  -8   1  15    1.29    0.75
   8  -1  15    1.28    0.78
   8   1  15    1.79    0.87
  -8   1 -15    2.06    0.86
   8  -1 -15    2.37    0.89
  -8  -1  15    1.07    0.72
   9   1 -15    3.68    1.07
   9  -1 -15    1.37    0.90
   0  -2  15    0.25    0.58
   0   2 -15   -0.65    0.35
   0  -2 -15    0.27    0.49
   0   2 -15   -0.05    0.40
   0   2  15   -0.48    0.50
   1   2 -15    1.06    0.53
   1   2 -15    0.27    0.45
  -1  -2 -15    0.55    0.51
   1  -2  15    0.16    0.60
  -1   2  15    1.17    0.67
   1  -2 -15    0.98    0.54
  -1   2 -15    1.57    0.54
   1   2  15    0.23    0.59
  -1  -2  15    0.96    0.67
  -1   2 -15    0.40    0.48
  -2   2  15    6.04    1.00
   2   2 -15    3.97    0.75
   2  -2  15    5.04    0.89
   2   2 -15    3.04    0.75
  -2  -2 -15    4.09    0.92
   2  -2 -15    3.82    0.88
   2   2  15    3.49    0.87
  -2   2 -15    5.71    0.95
  -2  -2  15    4.05    0.89
  -3   2  15    2.85    0.78
   3   2 -15    4.27    0.87
  -3   2  15    4.49    0.77
   3  -2  15    3.66    0.81
  -3  -2 -15    4.05    0.95
   3   2 -15    4.39    0.81
  -3   2 -15    4.46    0.89
  -3  -2  15    3.01    0.83
   3   2  15    4.38    0.89
   3  -2 -15    3.92    0.90
  -4   2  15    5.90    1.00
   4   2 -15    4.43    0.92
   4  -2  15    5.18    0.95
  -4  -2 -15    5.75    1.16
  -4   2  15    4.64    0.79
   4   2 -15    4.96    0.91
   4  -2 -15    4.50    0.98
   4   2  15    3.99    0.89
  -4   2 -15    2.21    0.77
  -4  -2  15    4.78    0.96
   5   2 -15    3.00    0.85
   5  -2  15    4.93    0.91
  -5   2  15    4.05    0.91
  -5   2  15    4.25    0.79
   5   2 -15    3.30    0.84
  -5  -2 -15    3.36    0.92
  -5   2 -15    3.84    0.96
  -5  -2  15    5.86    1.04
   5  -2 -15    4.73    1.05
   5   2  15    3.82    0.89
  -6  -2 -15    4.84    1.10
   6   2 -15    4.05    0.96
  -6   2  15    5.58    0.99
  -6   2  15    4.21    0.90
   6   2  15    5.23    0.99
   6  -2 -15    3.91    0.95
  -6   2 -15    4.12    0.99
  -6  -2  15    5.17    0.97
  -7   2  15    0.57    0.62
  -7  -2 -15    0.35    0.62
   7   2 -15    0.47    0.65
  -7  -2  15   -0.09    0.60
   7  -2 -15    0.33    0.66
   7   2  15    0.01    0.50
  -7   2 -15   -0.29    0.57
  -7  -2  15    0.06    0.58
  -8  -2 -15   -0.26    0.58
  -8   2  15   -0.14    0.60
   8   2 -15    0.06    0.70
   8  -2  15    0.63    0.77
   8   2  15    1.16    0.70
   8  -2 -15   -0.18    0.67
  -8   2 -15    0.32    0.64
  -8  -2  15    0.49    0.62
   0   3  15    3.92    0.87
   0   3 -15    4.93    0.83
   0   3 -15    6.08    0.97
   0  -3  15    8.30    1.15
   0  -3 -15    5.69    1.01
   1   3 -15    1.05    0.55
  -1  -3 -15    1.10    0.59
  -1   3  15    1.42    0.66
   1  -3  15    0.78    0.62
   1   3 -15    0.65    0.50
   1  -3 -15    1.75    0.64
  -1   3 -15    0.85    0.52
   1   3  15    1.27    0.62
  -1   3 -15    0.07    0.47
  -1  -3  15    1.64    0.69
   2   3 -15   11.54    1.21
  -2  -3 -15   11.93    1.46
   2  -3  15   10.62    1.20
   2   3 -15   12.05    1.34
  -2   3  15   13.18    1.37
   2  -3 -15   14.56    1.59
  -2   3 -15   14.41    1.30
  -2   3 -15   12.81    1.37
  -2  -3  15   14.08    1.45
   2   3  15   15.55    1.45
  -3  -3 -15    7.60    1.25
   3  -3  15    5.17    0.95
   3   3 -15    6.07    0.98
   3   3 -15    6.70    1.05
  -3   3  15    6.32    1.04
   3   3  15    5.43    1.04
  -3   3 -15    4.23    0.87
  -3  -3  15    4.22    0.88
   3  -3 -15    5.86    1.06
   4  -3  15    1.45    0.67
   4   3 -15    1.33    0.63
  -4   3  15    0.08    0.48
  -4   3  15    1.82    0.71
   4   3 -15    0.33    0.55
  -4  -3 -15    0.85    0.68
  -4   3 -15    0.46    0.54
  -4  -3  15    0.82    0.70
   4  -3 -15    1.00    0.65
   4   3  15    0.56    0.67
   5  -3  15    5.88    0.99
   5   3 -15    5.67    1.05
  -5  -3 -15    4.35    0.99
  -5   3  15    4.39    0.93
  -5   3  15    5.32    0.89
   5   3 -15    4.96    0.96
  -5   3 -15    3.22    0.89
   5  -3 -15    3.84    0.96
  -5  -3  15    5.93    1.00
   5   3  15    3.50    0.88
  -6   3  15   12.09    1.32
   6   3 -15   13.88    1.55
   6   3 -15   14.31    1.56
  -6  -3 -15   14.04    1.69
  -6   3  15   13.13    1.40
   6  -3 -15   16.07    1.75
  -6   3 -15    9.95    1.33
   6   3  15   10.65    1.32
  -6  -3  15    9.95    1.26
  -7  -3 -15    2.08    0.88
   7   3 -15    2.00    0.79
  -7   3  15    1.73    0.75
  -7  -3  15    2.54    0.78
   7  -3 -15    3.61    1.04
  -7  -3  15    2.34    0.87
  -7   3 -15    2.33    0.83
   7   3  15    2.03    0.71
   8   3 -15    1.57    0.79
  -8  -3 -15    1.05    0.80
  -8   3  15    1.46    0.79
  -8  -3  15    2.36    0.82
   8   3  15    2.29    0.77
  -8   3 -15    1.22    0.74
   8  -3 -15    0.68    0.79
   0  -4 -15    3.76    0.88
   0   4 -15    3.34    0.73
   0   4  15    3.22    0.77
   0   4 -15    2.59    0.68
   0  -4  15    3.30    0.87
   1  -4  15    3.01    0.84
   1   4 -15    1.87    0.62
  -1   4  15    2.10    0.73
  -1  -4 -15    2.19    0.72
   1   4 -15    1.38    0.56
   1   4  15    1.88    0.72
  -1   4 -15    3.50    0.76
  -1   4 -15    2.44    0.66
   1  -4 -15    2.81    0.79
  -1  -4  15    1.52    0.78
   2  -4  15    3.48    0.89
   2   4 -15    0.92    0.58
  -2   4  15    2.80    0.78
   2   4 -15    2.51    0.69
  -2  -4 -15    1.75    0.71
   2  -4 -15    1.09    0.66
  -2   4 -15    2.13    0.66
   2   4  15    3.23    0.88
  -2  -4  15    3.09    0.87
  -2   4 -15    1.93    0.68
  -3  -4 -15   18.65    1.85
  -3   4  15   19.71    1.51
   3  -4  15   18.38    1.48
   3   4 -15   19.10    1.46
   3   4 -15   16.41    1.36
   3  -4 -15   18.36    1.58
  -3   4 -15   18.84    1.36
   3   4  15   18.40    1.52
  -3   4 -15   19.99    1.49
  -3  -4  15   17.33    1.63
  -4   4  15    4.17    0.87
   4   4 -15    3.20    0.82
   4  -4  15    3.97    0.91
   4   4 -15    3.40    0.82
  -4  -4 -15    4.16    1.01
   4   4  15    2.48    0.80
   4  -4 -15    4.62    0.99
  -4  -4  15    4.04    0.96
  -4   4 -15    4.83    0.95
  -5   4  15    3.14    0.80
   5  -4  15    5.03    0.93
   5   4 -15    3.97    0.92
  -5  -4 -15    4.68    1.06
  -5   4  15    4.17    0.83
   5   4 -15    4.63    0.96
  -5  -4  15    2.32    0.85
   5  -4 -15    3.71    0.99
   5   4  15    6.41    1.07
  -5   4 -15    5.65    1.07
  -6  -4 -15    0.29    0.69
  -6   4  15    0.40    0.57
   6   4 -15    1.15    0.69
   6   4 -15   -0.02    0.61
  -6   4  15    0.92    0.65
  -6  -4  15    0.79    0.70
   6   4  15    0.97    0.70
  -6   4 -15   -0.04    0.62
   6  -4 -15   -0.39    0.58
   7   4 -15    2.52    0.90
  -7  -4 -15    2.49    0.95
  -7   4  15    2.94    0.83
   7   4 -15    2.71    0.89
  -7  -4  15    4.32    1.01
   7  -4 -15    3.17    0.95
  -7   4 -15    2.91    0.94
   7   4  15    3.57    0.90
   8   4 -15    8.66    1.42
  -8   4  15    5.30    1.05
  -8  -4 -15    6.44    1.22
  -8  -4  15    8.30    1.24
   8   4  15    5.59    1.13
   8  -4 -15    6.24    1.28
   0   5 -15    2.66    0.69
   0  -5 -15    2.72    0.81
   0   5 -15    1.68    0.64
   0  -5  15    2.53    0.87
   0   5  15    2.18    0.75
   1   5 -15   18.70    1.40
  -1  -5 -15   20.44    1.61
  -1   5  15   20.21    1.56
   1  -5  15   20.08    1.61
   1   5 -15   18.39    1.44
   1  -5 -15   20.49    1.62
  -1   5 -15   20.09    1.43
  -1   5 -15   18.86    1.43
   1   5  15   19.79    1.57
  -1  -5  15   21.77    1.67
   2   5 -15    3.64    0.80
   2   5 -15    3.53    0.77
  -2   5  15    3.37    0.91
  -2  -5 -15    3.40    0.92
   2  -5  15    4.08    0.92
   2   5  15    2.74    0.78
  -2  -5  15    2.65    0.84
  -2   5 -15    5.90    0.99
  -2   5 -15    2.79    0.69
   2  -5 -15    2.48    0.81
  -3  -5 -15    1.66    0.78
  -3   5  15    0.26    0.61
   3   5 -15   -0.32    0.42
   3   5 -15    0.56    0.57
   3  -5  15    2.13    0.76
  -3  -5  15    0.56    0.67
  -3   5 -15    0.04    0.51
   3   5  15    0.15    0.64
   3  -5 -15   -0.25    0.52
  -4  -5 -15    2.19    0.83
   4  -5  15    3.84    0.89
  -4   5  15    2.33    0.78
   4   5 -15    3.93    0.87
   4   5 -15    1.79    0.67
   4  -5 -15    1.78    0.76
  -4  -5  15    2.02    0.80
  -4   5 -15    0.99    0.60
   4   5  15    2.24    0.79
   5   5 -15    2.37    0.78
   5  -5  15    1.06    0.70
  -5  -5 -15    1.37    0.78
   5   5 -15    2.83    0.77
  -5   5  15    1.59    0.69
   5  -5 -15    0.85    0.67
   5   5  15    1.72    0.75
  -5  -5  15    3.44    0.89
  -6   5  15    7.43    1.07
   6   5 -15    7.84    1.19
   6   5 -15    6.21    1.14
  -6  -5 -15    7.42    1.34
  -6   5  15    6.06    1.08
  -6  -5  15    7.33    1.15
   6  -5 -15    6.11    1.18
   6   5  15    8.37    1.21
   7   5 -15   12.66    1.55
  -7  -5 -15   10.09    1.50
  -7   5  15   12.69    1.44
   7   5 -15   11.82    1.55
  -7  -5  15   13.13    1.52
   7  -5 -15   13.61    1.67
   7   5  15   11.35    1.52
   7   5  15   12.39    1.44
  -8   5  15   -0.12    0.65
   8   5 -15    0.30    0.66
  -8  -5 -15    0.21    0.76
   8   5  15    0.65    0.72
   8  -5 -15   -0.01    0.75
   0   6 -15    1.33    0.64
   0  -6  15    1.43    0.77
   0   6  15    1.76    0.71
   0  -6 -15    1.50    0.68
  -1  -6 -15    1.36    0.68
   1  -6  15    0.21    0.70
  -1   6  15    0.99    0.63
   1   6 -15    1.96    0.69
   1   6  15    0.91    0.65
   1  -6 -15    1.19    0.64
  -1   6 -15    1.48    0.67
  -1  -6  15    1.47    0.80
   2  -6  15   15.14    1.54
  -2   6  15   11.33    1.33
   2   6 -15   12.51    1.39
  -2  -6 -15   15.10    1.62
  -2  -6  15   14.01    1.51
   2   6  15    9.57    1.23
   2  -6 -15   13.04    1.50
  -2   6 -15   13.44    1.37
  -3   6  15   -0.33    0.56
  -3  -6 -15    0.79    0.69
   3  -6  15   -0.15    0.65
   3   6 -15    1.20    0.67
   3   6  15   -0.25    0.63
  -3   6 -15    0.94    0.62
   3  -6 -15    0.08    0.56
  -3  -6  15    0.20    0.69
  -4   6  15    3.98    0.91
   4   6 -15    2.64    0.77
  -4  -6 -15    2.69    0.91
   4  -6  15    2.91    0.85
   4  -6 -15    1.96    0.79
  -4  -6  15    3.54    0.94
  -4   6 -15    2.44    0.73
   4   6  15    2.58    0.83
  -5  -6 -15    0.99    0.72
   5  -6  15   -0.37    0.56
   5   6 -15    2.02    0.76
  -5   6  15    1.58    0.69
   5   6  15   -0.29    0.59
   5  -6 -15    0.42    0.61
  -5  -6  15   -0.02    0.69
  -6  -6 -15    0.83    0.74
  -6   6  15    0.55    0.67
   6   6 -15    2.59    0.85
   6   6  15    0.31    0.68
  -6  -6  15    1.42    0.79
   6  -6 -15    0.26    0.69
  -7  -6 -15    0.54    0.67
   7   6 -15    2.55    0.93
  -7   6  15    1.25    0.75
  -7  -6  15    1.25    0.83
   7  -6 -15    2.15    0.93
   7   6  15    2.86    0.92
   7   6  15    2.05    0.81
   0  -7 -15   -0.16    0.51
   0   7  15    0.56    0.63
   0  -7  15    0.04    0.70
   0   7 -15    0.65    0.59
   1   7 -15    6.47    1.04
  -1   7  15    4.15    0.91
   1  -7  15    7.57    1.21
  -1  -7 -15    7.63    1.17
   1  -7 -15    5.01    1.00
   1   7  15    6.82    1.11
  -1   7 -15    8.06    1.16
  -1  -7  15    8.05    1.21
  -2  -7 -15    8.55    1.32
   2  -7  15    9.56    1.29
   2   7 -15    8.00    1.20
  -2   7  15    6.82    1.09
   2  -7 -15    8.47    1.31
  -2   7 -15    7.99    1.17
  -2  -7  15    8.27    1.27
   2   7  15    8.71    1.22
  -3  -7 -15    3.02    0.86
  -3   7  15    2.03    0.74
   3  -7  15    3.42    0.98
   3   7 -15    3.47    0.86
   3  -7 -15    2.03    0.79
   3   7  15    3.71    0.93
  -3   7 -15    4.19    0.89
  -3  -7  15    2.57    0.88
  -4  -7 -15    7.04    1.33
   4   7 -15   10.24    1.35
  -4   7  15    6.60    1.05
   4  -7  15    5.91    1.09
  -4  -7  15    8.97    1.29
   4   7  15    6.71    1.11
   4  -7 -15    5.93    1.15
  -4   7 -15    7.32    1.09
  -5  -7 -15    2.13    0.95
  -5   7  15    2.49    0.76
   5   7 -15    1.81    0.78
   5   7  15    0.86    0.68
   5  -7 -15    2.77    0.90
  -5   7 -15    2.31    0.77
  -5  -7  15    1.86    0.88
   6   7 -15    2.24    0.85
  -6  -7 -15    3.08    1.04
  -6  -7  15    3.40    0.97
   6   7  15    1.61    0.77
   6  -7 -15    2.94    0.97
  -7  -7 -15    9.16    1.49
   7   7 -15    9.24    1.45
   7  -7 -15    9.30    1.53
  -7  -7  15   11.34    1.45
   7   7  15    9.46    1.36
   7   7  15    8.93    1.29
   0  -8  15    0.05    0.66
   0  -8 -15   -0.20    0.56
   0   8  15   -0.50    0.55
   0   8 -15    0.52    0.60
   1  -8  15    0.45    0.68
   1   8 -15    1.18    0.62
  -1  -8 -15    0.53    0.62
  -1   8  15    0.77    0.68
   1  -8 -15    0.02    0.59
  -1  -8  15   -0.05    0.67
  -1   8 -15    0.19    0.54
   1   8  15   -0.52    0.59
   2   8 -15    4.48    1.00
  -2  -8 -15    3.05    0.86
  -2   8  15    4.25    0.98
   2  -8  15    3.96    1.02
   2  -8 -15    4.64    1.00
  -2  -8  15    4.51    1.04
  -2   8 -15    3.25    0.85
   2   8  15    3.11    0.90
   3   8 -15   24.89    1.80
   3  -8  15   25.49    1.88
  -3  -8 -15   25.85    1.94
  -3   8  15   21.62    1.75
  -3   8 -15   24.99    1.74
   3   8  15   24.04    1.81
   3  -8 -15   26.29    1.95
  -3  -8  15   24.93    1.89
  -4  -8 -15    1.23    0.73
  -4   8  15   -0.38    0.64
   4  -8  15    0.57    0.75
   4   8 -15    0.25    0.64
   4   8  15    0.17    0.72
  -4   8 -15    0.33    0.56
   4  -8 -15    0.54    0.72
  -4  -8  15   -0.67    0.70
  -5   8  15    0.66    0.66
   5   8 -15    0.01    0.58
  -5  -8 -15    1.89    0.88
   5   8  15    1.34    0.72
  -5   8 -15    0.90    0.64
  -5  -8  15    1.31    0.84
   5  -8 -15    1.27    0.78
   6   8 -15    1.71    0.77
  -6  -8 -15    2.19    0.92
   6   8  15    0.96    0.77
  -6   8 -15    2.55    0.83
  -6  -8  15    3.67    1.07
   6  -8 -15   -0.49    0.64
  -7  -8 -15    0.22    0.79
   7   8 -15    0.86    0.75
   7  -8 -15    0.29    0.76
  -7  -8  15    0.53    0.81
   7   8  15    1.11    0.80
   7   8  15   -0.89    0.58
   0   9 -15    3.30    0.89
   0  -9  15    4.39    1.09
   0  -9 -15    3.44    0.93
   0   9  15    3.90    0.94
  -1   9  15    0.63    0.68
  -1  -9 -15    0.78    0.66
   1   9 -15    0.21    0.57
   1  -9  15    1.61    0.83
   1  -9 -15    1.62    0.76
  -1   9 -15    1.57    0.75
   1   9  15    1.00    0.72
  -1  -9  15    0.06    0.67
  -2   9  15   13.04    1.48
   2   9 -15   12.97    1.50
  -2  -9 -15   17.02    1.82
   2  -9  15   12.50    1.45
   2  -9 -15   16.31    1.77
  -2  -9  15   12.43    1.47
  -2   9 -15   17.62    1.75
   2   9  15   13.75    1.55
  -3   9  15    1.55    0.77
   3   9 -15    2.46    0.83
   3  -9  15    1.15    0.82
  -3  -9 -15    0.65    0.73
   3   9  15    2.08    0.82
  -3   9 -15    1.44    0.71
   3  -9 -15    3.29    0.93
  -3  -9  15    2.80    1.00
   4   9 -15    1.61    0.78
   4  -9  15    1.87    0.87
  -4  -9 -15    0.74    0.80
  -4   9  15    1.72    0.79
   4   9  15    1.70    0.77
   4  -9 -15    1.11    0.76
  -4  -9  15    2.04    0.91
  -4   9 -15    1.93    0.75
   5   9 -15    2.35    0.78
  -5  -9 -15    4.45    1.17
  -5   9  15    3.25    0.88
   5   9  15    2.41    0.89
  -5  -9  15    4.91    1.12
   5  -9 -15    3.64    1.01
  -5   9 -15    4.02    0.96
  -6  -9 -15    0.59    0.81
   6   9 -15    0.55    0.70
   6   9  15    0.40    0.78
  -6  -9  15    1.56    0.96
  -6   9 -15    1.32    0.75
   6  -9 -15    2.00    0.89
   0 -10  15    0.76    0.80
   0  10 -15    0.04    0.65
   0  10  15   -0.66    0.59
   0 -10 -15    0.40    0.64
  -1  10  15    0.08    0.65
   1  10 -15   -0.11    0.56
   1 -10  15    0.46    0.79
  -1 -10 -15    0.38    0.66
  -1 -10  15    1.44    0.87
  -1  10 -15    0.03    0.57
   1  10  15    0.03    0.61
   1 -10 -15   -0.10    0.68
  -2 -10 -15    2.38    0.80
   2  10 -15    1.91    0.79
   2 -10  15    1.68    0.89
  -2  10  15    1.95    0.83
  -2  10 -15    2.44    0.89
   2 -10 -15    0.52    0.71
   2  10  15    1.59    0.87
  -2 -10  15    2.63    0.95
  -3 -10 -15   11.60    1.57
  -3  10  15    7.95    1.21
   3  10 -15   11.40    1.50
   3 -10  15   12.62    1.51
   3  10  15   12.12    1.45
  -3  10 -15   13.73    1.61
   3 -10 -15    8.46    1.36
  -3 -10  15   17.33    1.78
   4 -10  15    5.59    1.16
   4  10 -15    4.00    1.10
  -4 -10 -15    3.68    1.07
  -4  10  15    4.78    1.08
   4  10  15    4.04    1.10
  -4 -10  15    5.67    1.21
  -4  10 -15    5.78    1.11
   4 -10 -15    3.79    1.01
   5  10 -15   -0.23    0.56
  -5 -10 -15    1.19    0.87
  -5  10  15   -0.08    0.64
  -5  10 -15    1.21    0.75
  -5 -10  15    0.13    0.84
   5 -10 -15    0.70    0.77
   5  10  15   -0.55    0.70
   0  11  15   -0.14    0.60
   0 -11 -15    0.07    0.65
   0  11 -15    0.41    0.71
   0 -11  15    0.05    0.77
   1 -11  15    3.64    1.08
  -1 -11 -15    4.26    1.05
   1  11 -15    7.23    1.31
  -1  11  15    5.40    1.06
  -1  11 -15    4.32    1.07
  -1 -11  15    4.00    1.14
   1  11  15    4.58    1.09
   1 -11 -15    3.94    1.07
   2 -11  15    2.10    0.95
  -2  11  15    1.86    0.77
   2  11 -15    2.18    0.83
  -2 -11 -15    1.51    0.77
   2  11  15    1.46    0.87
  -2 -11  15    1.90    1.01
  -2  11 -15    1.34    0.80
   2 -11 -15    1.04    0.75
   3  11 -15    1.31    0.76
  -3  11  15    0.24    0.68
  -3 -11 -15    0.55    0.75
   3 -11  15    0.70    0.86
  -3  11 -15    0.23    0.63
   3  11  15    0.55    0.77
   3 -11 -15    1.02    0.72
  -3 -11  15    0.72    0.86
  -4  11  15    2.12    0.87
   4 -11  15    0.20    0.90
  -4 -11 -15    2.14    0.88
   4  11 -15    1.37    0.81
  -4  11 -15    0.44    0.67
  -4 -11  15    1.27    0.95
   4  11  15    0.79    0.82
   4 -11 -15    1.26    0.80
   0 -12  15    1.51    0.90
   0 -12 -15    1.07    0.70
   0  12 -15    0.50    0.70
   0  12  15    0.01    0.69
  -1  12  15    0.65    0.78
  -1 -12 -15    1.11    0.76
   1 -12  15    1.60    0.93
   1  12 -15    3.24    1.06
  -1 -12  15    2.26    1.02
   1 -12 -15    2.08    0.84
   1  12  15    2.80    0.98
  -1  12 -15    1.91    0.83
  -2 -12 -15    2.48    0.91
   2  12 -15    3.35    1.04
   2 -12  15    2.07    1.02
  -2  12  15    0.32    0.71
  -2  12 -15    1.17    0.78
  -2 -12  15    2.02    0.96
   2  12  15    1.28    0.80
   2 -12 -15    2.06    0.86
   3 -12  15   -0.67    0.78
  -3  12  15   -0.02    0.70
  -3 -12 -15    0.21    0.69
   3  12 -15    0.87    0.77
   3 -12 -15    0.34    0.69
   3  12  15   -0.11    0.78
  -3  12 -15   -0.67    0.59
  -3 -12  15   -1.03    0.76
   0   0  16   53.78    2.53
   0   0 -16   54.06    2.59
   1   0 -16    2.04    0.68
   1   0  16    1.81    0.81
  -1   0  16    1.29    0.68
  -1   0 -16    2.07    0.70
  -2   0 -16    5.05    0.98
   2   0 -16    2.45    0.77
   2   0 -16    3.54    0.73
  -2   0  16    5.73    1.02
   2   0  16    3.49    0.88
  -3   0  16   20.07    1.57
   3   0  16   20.44    1.66
   3   0 -16   19.46    1.42
   3   0 -16   21.97    1.70
  -3   0 -16   21.15    1.68
   4   0 -16    3.59    0.88
  -4   0 -16    3.37    0.91
  -4   0  16    2.42    0.82
   4   0  16    4.55    1.01
  -5   0  16    3.30    0.81
   5   0 -16    3.86    0.94
  -5   0  16    2.57    0.85
  -5   0 -16    3.64    1.01
   5   0  16    2.40    0.83
  -6   0  16   27.06    1.77
   6   0 -16   25.26    1.99
   6   0  16   23.90    1.78
  -6   0 -16   25.11    2.00
  -6   0  16   25.61    1.82
  -7   0 -16    0.62    0.71
  -7   0  16    1.35    0.77
   7   0 -16    1.68    0.81
  -7   0  16    1.07    0.68
  -8   0 -16    1.72    0.90
   8   0 -16    2.61    0.99
  -8   0  16    1.31    0.77
   0  -1 -16    2.42    0.79
   0  -1  16    3.21    0.89
   0   1  16    3.77    0.89
   0   1 -16    3.74    0.82
  -1  -1 -16   23.13    1.72
   1   1 -16   27.87    1.79
   1   1 -16   27.38    1.55
   1  -1  16   21.39    1.66
  -1   1  16   27.71    1.81
  -1  -1  16   24.83    1.78
  -1   1 -16   28.08    1.81
   1   1  16   25.88    1.78
   1  -1 -16   25.48    1.79
   2   1 -16    5.07    0.98
   2   1 -16    4.21    0.79
  -2   1  16    5.62    1.03
   2  -1  16    2.27    0.80
  -2  -1 -16    5.22    1.03
  -2  -1  16    4.49    0.97
   2  -1 -16    3.62    0.89
   2   1  16    4.41    0.97
  -2   1 -16    3.53    0.84
   3  -1  16    0.54    0.67
   3   1 -16    1.45    0.65
  -3   1  16    0.71    0.70
  -3  -1 -16    1.05    0.69
   3   1 -16   -0.03    0.47
   3   1  16    1.62    0.77
  -3  -1  16    1.19    0.70
   3  -1 -16    1.45    0.67
  -3   1 -16    1.37    0.70
  -4   1  16    2.77    0.73
   4   1 -16    5.21    1.01
  -4  -1 -16    2.83    0.87
   4  -1  16    2.85    0.86
   4   1 -16    3.67    0.89
  -4   1  16    2.91    0.88
  -4  -1  16    3.06    0.87
  -4   1 -16    2.97    0.90
   4   1  16    4.15    0.93
   4  -1 -16    5.34    1.11
  -5   1  16    7.97    1.09
  -5  -1 -16    5.65    1.21
   5   1 -16    6.43    1.13
   5  -1  16    6.50    1.13
  -5   1  16    8.95    1.22
  -5   1 -16    7.45    1.24
  -5  -1  16    8.18    1.22
   5   1  16    7.80    1.14
   5  -1 -16    6.17    1.16
  -6  -1 -16    1.88    0.79
  -6   1  16    0.91    0.68
   6   1 -16    0.67    0.69
  -6   1  16    0.57    0.61
  -6  -1  16    1.71    0.72
   6   1  16    0.79    0.72
  -6   1 -16    1.09    0.76
  -6  -1  16    1.50    0.76
   6  -1 -16    0.44    0.63
   7   1 -16    8.82    1.39
  -7  -1 -16   10.27    1.52
  -7   1  16   14.90    1.58
   7  -1 -16   12.17    1.62
  -7  -1  16    6.84    1.12
  -7  -1  16   10.74    1.35
  -7   1 -16    8.17    1.36
  -8   1  16    1.22    0.75
   8   1 -16    0.87    0.85
  -8  -1 -16    1.36    0.83
   8  -1 -16    2.05    0.94
  -8  -1  16    1.66    0.77
  -8   1 -16    0.96    0.83
   0   2  16   30.21    1.92
   0  -2  16   30.75    1.98
   0   2 -16   30.19    1.69
   0   2 -16   34.10    1.94
   0  -2 -16   34.07    2.06
  -1  -2 -16   13.31    1.49
   1   2 -16   11.82    1.19
  -1   2  16   11.14    1.31
   1   2 -16   11.57    1.34
   1  -2  16    9.14    1.23
  -1  -2  16   11.75    1.38
   1  -2 -16   15.00    1.60
   1   2  16   13.32    1.48
  -1   2 -16   13.21    1.48
   2   2 -16    7.01    0.99
   2   2 -16    6.04    1.01
  -2   2  16    6.59    1.07
  -2  -2 -16    7.38    1.20
   2  -2  16    6.41    1.05
  -2   2 -16    4.62    0.92
   2  -2 -16    5.45    0.99
  -2  -2  16    4.91    0.95
   2   2  16    5.23    1.01
  -3  -2 -16    7.37    1.18
   3   2 -16    6.24    1.08
  -3   2  16    5.51    1.00
   3  -2  16    7.49    1.15
   3   2 -16    7.03    1.03
  -3  -2  16    7.13    1.14
  -3   2 -16    6.81    1.13
   3   2  16    8.65    1.22
   3  -2 -16    7.03    1.17
  -4   2  16    2.25    0.67
  -4  -2 -16    3.09    0.94
  -4   2  16    1.59    0.77
   4   2 -16    2.11    0.68
   4   2 -16    1.51    0.70
   4  -2  16    2.46    0.84
  -4   2 -16    2.71    0.81
   4  -2 -16    0.73    0.61
   4   2  16    1.36    0.81
  -4  -2  16    1.39    0.75
  -5   2  16    4.86    0.93
   5   2 -16    8.88    1.24
  -5  -2 -16    4.83    1.14
   5  -2  16    7.55    1.20
   5   2 -16    6.77    1.14
  -5   2  16    6.11    1.08
   5   2  16    6.38    1.10
  -5   2 -16    4.61    1.07
  -5  -2  16    7.54    1.17
   5  -2 -16    6.50    1.23
  -6   2  16   16.91    1.61
   6   2 -16   19.81    1.93
  -6  -2 -16   19.04    1.96
  -6   2  16   20.95    1.63
   6  -2 -16   18.32    1.94
   6   2  16   18.60    1.67
  -6   2 -16   15.15    1.74
  -6  -2  16   20.00    1.62
   7   2 -16    5.78    1.23
  -7  -2 -16    9.52    1.48
  -7   2  16    6.44    1.06
  -7   2 -16    5.52    1.14
  -7  -2  16    5.54    1.08
   7  -2 -16    5.04    1.16
  -7  -2  16    6.08    1.05
   8   2 -16    1.69    0.84
  -8  -2 -16   -0.01    0.77
  -8   2 -16    0.55    0.71
   8  -2 -16    1.13    0.86
   0   3 -16    2.78    0.69
   0   3  16    2.88    0.80
   0   3 -16    3.52    0.78
   0  -3  16    2.68    0.88
   0  -3 -16    2.36    0.78
   1   3 -16    7.46    1.09
  -1  -3 -16    8.17    1.22
   1  -3  16    7.37    1.10
  -1   3  16    5.87    1.06
   1   3 -16    7.30    1.01
   1  -3 -16    9.93    1.36
  -1  -3  16    7.00    1.16
  -1   3 -16    6.68    0.98
  -1   3 -16    7.02    1.10
   1   3  16    7.79    1.17
  -2   3  16    8.40    1.23
   2   3 -16    8.17    1.06
   2   3 -16    7.37    1.11
   2  -3  16    9.40    1.27
  -2  -3 -16    8.84    1.30
   2  -3 -16    9.61    1.29
   2   3  16   10.20    1.27
  -2  -3  16    9.55    1.33
  -2   3 -16    9.65    1.26
   3   3 -16    2.75    0.77
   3  -3  16    1.62    0.78
   3   3 -16    3.44    0.82
  -3  -3 -16    2.47    0.83
  -3   3  16    0.46    0.73
  -3  -3  16    2.84    0.88
  -3   3 -16    1.59    0.68
   3  -3 -16    2.12    0.80
   3   3  16    1.39    0.75
   4  -3  16   16.82    1.58
  -4   3  16   18.35    1.71
   4   3 -16   15.45    1.61
  -4  -3 -16   16.61    1.78
   4   3 -16   19.74    1.55
  -4   3 -16   20.42    1.69
   4  -3 -16   18.75    1.85
  -4  -3  16   19.68    1.83
   4   3  16   22.23    1.68
   5   3 -16    6.75    1.15
  -5   3  16    7.26    1.16
  -5   3  16    5.71    0.96
   5  -3  16    4.67    0.99
  -5  -3 -16    4.01    1.10
   5   3 -16    7.61    1.23
  -5   3 -16    4.20    1.02
   5  -3 -16    4.17    1.04
  -5  -3  16    5.10    1.06
   5   3  16    4.77    1.01
  -6  -3 -16    2.96    0.98
  -6   3  16    2.54    0.81
   6   3 -16    1.43    0.75
   6   3 -16    2.01    0.84
  -6   3  16    2.10    0.77
   6   3  16    3.21    0.83
  -6  -3  16    2.18    0.87
   6  -3 -16    1.09    0.78
  -6   3 -16    2.19    0.81
   7   3 -16    3.33    0.94
  -7   3  16    3.62    0.93
  -7  -3 -16    3.49    1.08
   7  -3 -16    2.33    0.93
  -7  -3  16    3.10    0.94
  -7  -3  16    2.58    0.83
  -7   3 -16    1.48    0.78
   0   4 -16    4.39    0.86
   0  -4  16    3.32    0.93
   0   4 -16    4.33    0.87
   0  -4 -16    5.12    1.02
   0   4  16    5.13    0.98
  -1   4  16   10.12    1.26
   1   4 -16   10.78    1.20
  -1  -4 -16    9.14    1.32
   1  -4  16   12.20    1.42
   1   4 -16   11.02    1.30
   1  -4 -16   11.98    1.43
   1   4  16   11.08    1.34
  -1   4 -16   10.10    1.22
  -1  -4  16   12.74    1.45
  -1   4 -16   10.46    1.28
  -2   4  16    7.24    1.15
  -2  -4 -16    6.50    1.14
   2   4 -16    7.07    1.08
   2   4 -16    7.35    1.05
   2  -4  16    8.52    1.24
  -2   4 -16    9.57    1.17
  -2  -4  16    6.62    1.17
  -2   4 -16    5.34    0.96
   2   4  16    5.34    1.04
   2  -4 -16   10.17    1.41
   3   4 -16    4.74    0.94
  -3  -4 -16    4.22    1.06
  -3   4  16    5.33    0.99
   3   4 -16    5.12    0.95
   3  -4  16    5.73    1.06
   3   4  16    7.72    1.21
   3  -4 -16    4.16    0.98
  -3   4 -16    4.72    0.92
  -3  -4  16    6.68    1.15
  -4  -4 -16   12.92    1.66
   4   4 -16   13.17    1.43
   4  -4  16   11.36    1.34
   4   4 -16   13.83    1.53
  -4   4  16   11.92    1.37
   4   4  16   11.45    1.37
   4  -4 -16   12.07    1.53
  -4  -4  16   11.92    1.48
  -4   4 -16   11.73    1.39
   5   4 -16    8.11    1.24
  -5   4  16   10.46    1.29
   5  -4  16   10.89    1.32
  -5  -4 -16    8.38    1.39
   5   4 -16    9.09    1.30
   5  -4 -16   11.68    1.55
   5   4  16   12.01    1.43
  -5  -4  16   11.63    1.44
  -5   4 -16   11.28    1.45
  -6  -4 -16   -0.30    0.68
  -6   4  16   -0.25    0.62
  -6   4  16    0.08    0.53
   6   4 -16    0.18    0.58
   6   4 -16   -0.87    0.54
  -6  -4  16    0.11    0.67
   6  -4 -16    1.14    0.81
   6   4  16    0.56    0.70
  -7  -4 -16    8.10    1.49
  -7   4  16    7.51    1.19
   7   4 -16    6.74    1.23
  -7  -4  16    5.45    1.12
   7  -4 -16    5.27    1.18
   0  -5  16    7.38    1.19
   0  -5 -16    9.05    1.31
   0   5  16    6.92    1.07
   0   5 -16    8.77    1.18
   1   5 -16    1.34    0.67
   1   5 -16    0.99    0.56
  -1   5  16    0.11    0.63
  -1  -5 -16    0.09    0.58
   1  -5  16    0.49    0.66
  -1   5 -16    0.30    0.57
   1   5  16    0.30    0.63
   1  -5 -16   -0.03    0.53
  -1  -5  16    0.45    0.75
   2   5 -16   18.29    1.49
   2   5 -16   15.35    1.51
  -2   5  16   16.08    1.57
   2  -5  16   14.87    1.54
  -2  -5 -16   17.45    1.85
   2   5  16   14.10    1.49
  -2   5 -16   16.77    1.57
   2  -5 -16   15.63    1.73
  -2  -5  16   15.57    1.61
   3   5 -16   28.78    1.83
  -3  -5 -16   27.86    2.04
   3  -5  16   25.05    1.80
   3   5 -16   29.72    1.86
  -3   5  16   27.83    1.94
   3   5  16   29.66    1.96
  -3  -5  16   26.93    2.03
   3  -5 -16   27.58    1.99
  -3   5 -16   28.59    1.81
   4   5 -16    7.20    1.18
  -4   5  16    5.13    1.01
   4   5 -16   10.17    1.30
  -4  -5 -16   10.17    1.46
   4  -5  16    7.44    1.17
  -4  -5  16    9.09    1.33
   4   5  16    9.32    1.28
   4  -5 -16    7.81    1.24
   5  -5  16    4.85    1.04
   5   5 -16    5.83    1.05
  -5  -5 -16    3.54    1.07
  -5   5  16    5.79    1.07
   5   5 -16    4.36    0.99
   5   5  16    4.98    1.05
   5  -5 -16    6.14    1.15
  -5  -5  16    5.07    1.13
  -6  -5 -16    0.19    0.77
  -6   5  16    1.66    0.77
   6   5 -16    2.42    0.83
   6   5 -16    3.61    0.94
   6  -5 -16    3.21    1.02
  -6  -5  16    2.77    0.95
   6   5  16    1.95    0.83
  -7   5  16    1.15    0.78
   7   5 -16    1.72    0.83
   7   5 -16    1.23    0.79
  -7  -5 -16    2.50    0.98
   7  -5 -16    1.44    0.84
  -7  -5  16    1.35    0.87
   0  -6  16   -1.22    0.63
   0  -6 -16    0.83    0.69
   0   6  16    1.18    0.75
   0   6 -16    1.44    0.69
   1  -6  16    4.74    1.04
  -1  -6 -16    5.90    1.12
  -1   6  16    5.59    1.03
   1   6 -16    8.26    1.21
   1   6  16    5.29    1.01
  -1  -6  16    6.79    1.22
  -1   6 -16    6.68    1.08
   1  -6 -16    6.39    1.19
   2   6 -16   12.99    1.47
  -2  -6 -16   13.53    1.59
   2  -6  16   13.63    1.58
  -2   6  16   11.28    1.37
   2  -6 -16   12.29    1.53
  -2  -6  16   11.60    1.40
  -2   6 -16   11.58    1.35
   2   6  16   10.16    1.29
  -3  -6 -16    6.17    1.24
   3   6 -16    7.95    1.22
  -3   6  16    6.91    1.11
   3  -6  16    5.51    1.11
  -3   6 -16    5.36    1.01
   3   6  16    6.62    1.13
   3  -6 -16    6.95    1.21
  -3  -6  16    5.32    1.09
   4   6 -16   15.95    1.66
  -4   6  16   13.81    1.49
   4  -6  16   12.11    1.46
  -4  -6 -16   10.73    1.54
   4   6  16   13.08    1.49
   4  -6 -16   13.56    1.66
  -4  -6  16   12.30    1.50
   5   6 -16    2.37    0.83
  -5   6  16    3.15    0.89
  -5  -6 -16    4.21    1.08
   5  -6 -16    2.85    0.96
   5   6  16    2.59    0.90
  -5  -6  16    4.31    1.02
   6   6 -16    2.53    0.89
  -6  -6 -16    0.02    0.76
   6   6  16    1.24    0.78
  -6  -6  16    1.04    0.78
   6  -6 -16    0.29    0.72
   7  -6 -16    1.84    0.90
   0  -7  16    4.39    1.03
   0   7 -16    3.34    0.88
   0  -7 -16    5.15    1.12
   0   7  16    3.51    0.88
  -1  -7 -16    0.37    0.61
  -1   7  16    1.24    0.69
   1  -7  16    0.41    0.71
   1   7 -16   -0.18    0.48
   1  -7 -16    0.37    0.59
  -1   7 -16    0.59    0.64
  -1  -7  16    1.38    0.87
   1   7  16   -0.52    0.64
   2  -7  16   12.74    1.54
  -2  -7 -16   11.81    1.52
  -2   7  16   10.10    1.34
   2   7 -16   10.84    1.37
  -2  -7  16    9.89    1.38
   2  -7 -16    6.63    1.16
   2   7  16    6.02    1.07
  -2   7 -16    9.75    1.31
   3   7 -16   34.81    2.12
  -3   7  16   33.10    2.08
  -3  -7 -16   31.11    2.26
   3  -7  16   36.43    2.22
   3  -7 -16   24.92    1.99
  -3   7 -16   31.73    1.95
  -3  -7  16   27.11    2.06
   3   7  16   31.56    2.05
  -4  -7 -16   10.95    1.61
   4  -7  16   12.35    1.47
   4   7 -16   12.96    1.49
  -4   7  16   12.69    1.45
  -4  -7  16    8.36    1.34
  -4   7 -16   10.71    1.33
   4  -7 -16    9.73    1.46
   4   7  16   10.22    1.38
   5   7 -16    4.78    1.06
  -5  -7 -16    3.00    1.10
  -5   7  16    3.90    0.91
   5  -7 -16    2.22    0.88
   5   7  16    3.65    1.00
  -5  -7  16    2.05    0.96
   6   7 -16    7.38    1.24
  -6  -7 -16    7.88    1.49
   6  -7 -16    6.54    1.29
   6   7  16    4.18    0.97
  -6  -7  16    6.68    1.25
   0  -8  16    0.25    0.79
   0   8 -16    3.34    0.91
   0   8  16    1.72    0.81
   0  -8 -16    1.04    0.76
   1  -8  16    6.80    1.20
   1   8 -16    7.45    1.20
  -1  -8 -16    6.99    1.24
  -1   8  16    5.60    1.08
   1   8  16    7.40    1.26
   1  -8 -16    8.85    1.37
  -1   8 -16    7.78    1.24
  -1  -8  16    8.19    1.33
   2  -8  16    4.28    1.03
  -2  -8 -16    5.74    1.19
  -2   8  16    3.83    0.96
   2   8 -16    5.78    1.10
  -2  -8  16    5.32    1.17
  -2   8 -16    2.93    0.90
   2  -8 -16    5.38    1.10
   2   8  16    4.17    0.99
   3  -8  16   -0.08    0.81
  -3   8  16    0.24    0.73
  -3  -8 -16    0.29    0.67
   3   8 -16    1.28    0.73
   3  -8 -16    1.08    0.72
   3   8  16    1.32    0.78
  -3  -8  16    0.36    0.73
  -3   8 -16    0.65    0.64
  -4  -8 -16    8.36    1.40
  -4   8  16    7.28    1.21
   4   8 -16    8.98    1.28
   4  -8  16    7.77    1.31
  -4   8 -16    9.21    1.34
   4  -8 -16   10.39    1.52
   4   8  16    5.29    1.15
  -4  -8  16    8.73    1.34
  -5  -8 -16   10.21    1.57
   5   8 -16   10.24    1.43
  -5   8  16   11.21    1.43
  -5   8 -16    9.27    1.30
   5  -8 -16   10.86    1.55
   5   8  16    9.82    1.33
  -5  -8  16    7.78    1.29
   0  -9 -16    3.42    1.00
   0   9  16    2.03    0.78
   0  -9  16    2.98    0.97
   0   9 -16    2.80    0.90
   1  -9  16    9.27    1.39
   1   9 -16    8.16    1.25
  -1  -9 -16    8.66    1.36
  -1   9  16    7.92    1.24
   1   9  16   10.74    1.45
   1  -9 -16   11.63    1.56
  -1  -9  16    5.86    1.19
  -1   9 -16    9.77    1.38
  -2   9  16   10.04    1.36
   2   9 -16   10.48    1.45
   2  -9  16   13.04    1.58
  -2  -9 -16   11.75    1.54
  -2  -9  16   12.91    1.55
   2  -9 -16   10.31    1.45
   2   9  16    9.01    1.31
  -2   9 -16   12.48    1.49
   3  -9  16    2.93    1.01
  -3  -9 -16    3.97    1.04
  -3   9  16    4.62    1.03
   3   9 -16    3.27    0.97
  -3  -9  16    1.94    0.94
  -3   9 -16    2.89    0.95
   3  -9 -16    3.31    0.96
   3   9  16    3.39    1.00
   4   9 -16    8.48    1.32
   4  -9  16    4.65    1.14
  -4   9  16    8.25    1.25
  -4  -9 -16    8.83    1.45
  -4  -9  16   12.39    1.56
  -4   9 -16    8.86    1.29
   4  -9 -16    9.47    1.46
   4   9  16    7.07    1.24
  -5   9  16    3.64    0.96
   5   9 -16    2.42    0.91
  -5  -9 -16    2.54    1.00
  -5   9 -16    2.96    0.93
   5   9  16    0.71    0.76
  -5  -9  16    4.08    1.14
   5  -9 -16    2.25    0.99
   0  10 -16   18.63    1.94
   0  10  16   18.89    1.84
   0 -10 -16   22.00    1.87
   0 -10  16   22.60    1.92
  -1  10  16    4.64    1.07
  -1 -10 -16    5.72    1.18
   1  10 -16    5.63    1.19
   1 -10  16    7.15    1.30
  -1 -10  16    6.25    1.30
   1  10  16    6.81    1.20
  -1  10 -16    8.79    1.43
   1 -10 -16    5.77    1.22
  -2 -10 -16    2.38    0.89
   2 -10  16    0.70    0.94
   2  10 -16    2.31    0.86
  -2  10  16    1.54    0.87
   2 -10 -16    2.13    0.89
  -2  10 -16    2.37    0.93
  -2 -10  16    2.37    1.01
   2  10  16    2.56    0.95
  -3 -10 -16    1.41    0.82
  -3  10  16    2.30    0.85
   3  10 -16    0.72    0.70
   3 -10  16    0.90    0.95
  -3 -10  16    2.04    0.95
  -3  10 -16    1.93    0.81
   3 -10 -16    0.95    0.79
   3  10  16    1.42    0.85
   4  10 -16    1.56    0.82
  -4  10  16   -0.35    0.63
  -4 -10 -16    0.69    0.79
   4 -10  16    1.00    0.94
   4 -10 -16    1.22    0.85
   4  10  16   -0.58    0.75
  -4 -10  16   -0.56    0.84
  -4  10 -16    0.66    0.74
   0 -11 -16    1.23    0.77
   0 -11  16    0.50    0.88
   0  11 -16   -0.19    0.66
   0  11  16    0.79    0.80
   1  11 -16   10.30    1.48
  -1 -11 -16    8.38    1.38
   1 -11  16   11.54    1.52
  -1  11  16   12.11    1.59
   1 -11 -16   12.40    1.64
  -1  11 -16   12.88    1.67
  -1 -11  16   14.42    1.72
   1  11  16   13.07    1.63
  -2 -11 -16    3.04    1.01
   2  11 -16    4.58    1.09
  -2  11  16    2.71    0.88
   2 -11  16    3.81    1.09
   2  11  16    1.82    0.99
   2 -11 -16    3.65    1.01
  -2 -11  16    4.54    1.24
  -2  11 -16    2.40    0.89
   0   0  17   -0.13    0.65
   0   0 -17    0.08    0.46
   1   0  17   -0.41    0.65
  -1   0  17    0.29    0.68
  -1   0 -17    0.39    0.59
   1   0 -17    0.23    0.52
   2   0 -17    0.72    0.59
   2   0  17    0.11    0.68
  -2   0 -17   -0.07    0.51
  -2   0  17   -0.44    0.61
   3   0 -17    0.44    0.57
   3   0 -17   -0.55    0.46
  -3   0 -17    0.02    0.57
   3   0  17    0.35    0.71
  -3   0  17    0.14    0.68
   4   0  17    7.78    1.18
  -4   0  17    8.24    1.23
   4   0 -17    7.28    1.20
  -4   0 -17    7.10    1.23
  -5   0  17    2.06    0.84
   5   0 -17    3.08    0.93
  -5   0  17    3.71    0.84
   5   0  17    1.90    0.84
  -5   0 -17    3.28    0.99
  -6   0  17    3.42    0.94
  -6   0  17    2.22    0.78
   6   0  17    1.77    0.96
   6   0 -17    1.88    0.84
  -6   0 -17    4.19    1.12
   7   0 -17    7.57    1.41
  -7   0  17    5.03    1.27
  -7   0 -17    4.63    1.25
   0   1  17    4.09    0.95
   0  -1  17    4.20    0.95
   0  -1 -17    3.57    0.87
   0   1 -17    4.59    0.94
   1   1 -17    6.94    1.15
  -1   1  17    7.62    1.16
  -1  -1 -17    7.49    1.20
   1  -1  17    5.78    1.05
   1  -1 -17    5.56    1.04
   1   1  17    4.44    1.01
  -1  -1  17    5.66    1.08
  -1   1 -17    6.82    1.11
   2   1 -17    4.42    0.98
  -2  -1 -17    4.81    0.99
   2   1 -17    4.24    0.82
  -2   1  17    3.52    0.92
   2  -1  17    5.07    1.03
   2   1  17    2.76    0.90
  -2   1 -17    3.58    0.90
   2  -1 -17    2.50    0.79
  -2  -1  17    3.14    0.87
  -3  -1 -17    3.53    0.95
   3   1 -17    1.90    0.73
   3   1 -17    2.08    0.69
   3  -1  17    3.14    0.86
  -3   1  17    1.58    0.78
   3  -1 -17    1.90    0.77
  -3   1 -17    3.27    0.91
   3   1  17    2.79    0.86
  -3  -1  17    2.87    0.88
   4  -1  17    3.16    0.94
  -4   1  17    2.42    0.86
  -4  -1 -17    3.31    0.95
   4   1 -17    3.33    0.86
  -4   1  17    2.90    0.76
   4   1 -17    2.96    0.91
  -4  -1  17    3.02    0.95
   4   1  17    4.91    1.03
  -4   1 -17    2.59    0.85
   4  -1 -17    2.97    0.94
  -5  -1 -17    7.15    1.33
   5   1 -17   10.08    1.51
   5  -1  17    8.44    1.25
  -5   1  17    6.84    1.14
  -5   1  17    8.88    1.14
  -5   1 -17    9.87    1.47
   5   1  17    5.94    1.16
  -5  -1  17    9.99    1.33
   5  -1 -17    6.65    1.25
  -6  -1 -17    2.35    1.00
  -6   1  17    1.40    0.69
   6   1 -17    2.22    0.89
  -6   1  17    1.62    0.79
   6   1  17    2.87    0.95
  -6   1 -17    2.47    0.91
   6  -1 -17    1.52    0.81
  -6  -1  17    3.33    0.86
  -6  -1  17    2.98    0.90
   7   1 -17    1.05    0.78
  -7  -1 -17   -0.49    0.69
   7  -1 -17   -0.08    0.75
  -7   1 -17    0.03    0.75
   0  -2  17    0.06    0.64
   0   2  17    0.70    0.73
   0  -2 -17    0.10    0.55
   0   2 -17    0.34    0.54
  -1   2  17    3.44    0.94
   1  -2  17    4.01    0.98
   1   2 -17    3.30    0.81
  -1  -2 -17    3.79    0.95
   1   2 -17    3.38    0.74
  -1  -2  17    2.22    0.88
   1  -2 -17    1.89    0.79
   1   2  17    4.40    1.02
  -1   2 -17    4.51    0.94
  -2   2  17    2.11    0.79
   2  -2  17    3.14    0.92
  -2  -2 -17    4.65    0.99
   2   2 -17    4.08    0.85
   2   2 -17    3.93    0.88
   2  -2 -17    2.96    0.84
  -2   2 -17    2.19    0.75
   2   2  17    2.89    0.87
  -2  -2  17    1.26    0.79
  -3  -2 -17    0.99    0.70
   3   2 -17    1.07    0.66
   3  -2  17    0.62    0.72
   3   2 -17    1.39    0.67
  -3   2  17    1.31    0.80
   3   2  17    2.22    0.84
  -3  -2  17    0.35    0.65
  -3   2 -17    0.01    0.55
   3  -2 -17    0.44    0.64
   4  -2  17    2.40    0.83
   4   2 -17    0.94    0.66
  -4  -2 -17    0.71    0.72
  -4   2  17    1.31    0.79
   4   2 -17    1.40    0.68
  -4  -2  17    0.27    0.71
   4   2  17    1.09    0.77
  -4   2 -17    1.11    0.72
   4  -2 -17    1.27    0.74
   5  -2  17    2.75    0.89
   5   2 -17    2.04    0.81
  -5   2  17    1.56    0.68
   5   2 -17    2.98    0.90
  -5   2  17    2.07    0.81
  -5  -2 -17    1.27    0.77
  -5   2 -17    2.12    0.81
   5   2  17    4.48    1.03
  -5  -2  17    4.22    1.01
   5  -2 -17    3.44    0.96
  -6   2  17    0.99    0.70
   6   2 -17    0.45    0.69
  -6  -2 -17    0.72    0.77
  -6   2  17    0.10    0.70
   6   2  17    1.45    0.79
   6  -2 -17    1.61    0.84
  -6  -2  17   -0.25    0.69
  -6  -2  17    0.79    0.66
  -6   2 -17    0.30    0.72
   0   3 -17    6.30    1.05
   0  -3  17    8.74    1.30
   0   3 -17    5.85    0.94
   0  -3 -17    7.62    1.26
   0   3  17    6.10    1.10
   1   3 -17    0.26    0.51
   1  -3  17   -0.02    0.72
  -1  -3 -17   -0.41    0.54
  -1   3  17   -0.24    0.59
   1   3 -17    0.38    0.56
  -1  -3  17   -0.50    0.62
  -1   3 -17   -0.24    0.49
   1   3  17   -0.17    0.66
   1  -3 -17    0.39    0.60
   2   3 -17    0.42    0.56
   2   3 -17    1.13    0.62
  -2  -3 -17    1.47    0.68
  -2   3  17    1.01    0.67
   2  -3  17    1.04    0.78
  -2   3 -17    1.00    0.62
  -2  -3  17    1.36    0.76
   2  -3 -17    0.89    0.63
   2   3  17    0.81    0.74
  -3   3  17    3.44    0.91
   3   3 -17    4.88    0.97
   3   3 -17    2.79    0.82
   3  -3  17    3.47    0.91
  -3  -3 -17    5.17    1.12
   3  -3 -17    3.66    0.96
  -3  -3  17    2.74    0.94
  -3   3 -17    3.20    0.84
   3   3  17    6.15    1.13
   4   3 -17    2.97    0.86
   4   3 -17    2.22    0.81
   4  -3  17    3.78    0.99
  -4  -3 -17    1.87    0.87
  -4   3  17    1.50    0.81
  -4  -3  17    4.17    0.98
  -4   3 -17    2.31    0.82
   4  -3 -17    1.60    0.83
   4   3  17    2.68    0.90
  -5  -3 -17    1.01    0.76
  -5   3  17    0.08    0.67
   5  -3  17    0.53    0.76
   5   3 -17    0.57    0.60
   5   3 -17    1.20    0.79
   5  -3 -17   -0.47    0.55
  -5   3 -17    0.56    0.67
  -5  -3  17    1.20    0.80
   5   3  17    0.55    0.76
  -6  -3 -17    6.76    1.37
   6   3 -17    6.94    1.27
   6   3 -17    5.88    1.22
  -6   3  17    6.87    1.16
  -6   3  17    3.01    0.86
  -6  -3  17    4.24    1.05
   6   3  17    5.03    1.06
  -6   3 -17    5.79    1.22
   6  -3 -17    4.17    1.07
   0   4 -17    0.55    0.53
   0   4 -17    0.37    0.57
   0   4  17    0.51    0.69
   0  -4 -17   -0.21    0.50
   0  -4  17    0.70    0.79
  -1   4  17    3.25    0.91
   1   4 -17    4.16    0.89
   1  -4  17    2.34    0.89
   1   4 -17    2.51    0.73
  -1  -4 -17    4.02    0.98
  -1  -4  17    2.61    0.89
  -1   4 -17    4.16    0.84
   1   4  17    1.82    0.77
   1  -4 -17    4.03    1.01
  -1   4 -17    5.28    0.97
   2  -4  17    3.97    1.01
  -2   4  17    2.65    0.83
  -2  -4 -17    3.05    0.92
   2   4 -17    2.91    0.82
   2   4 -17    2.65    0.77
   2   4  17    2.31    0.87
   2  -4 -17    1.84    0.80
  -2   4 -17    3.22    0.86
  -2  -4  17    2.97    0.95
   3   4 -17    1.07    0.59
   3   4 -17    0.45    0.62
   3  -4  17    0.90    0.81
  -3  -4 -17    0.67    0.71
  -3   4  17    0.62    0.72
   3   4  17    0.85    0.77
  -3   4 -17    0.18    0.54
  -3  -4  17   -0.02    0.73
   3  -4 -17    0.55    0.67
  -4   4  17    0.32    0.66
  -4  -4 -17   -0.39    0.61
   4   4 -17    0.10    0.57
   4  -4  17    0.12    0.76
   4   4 -17    0.27    0.55
   4   4  17    0.67    0.74
  -4  -4  17   -0.04    0.78
   4  -4 -17    1.00    0.75
  -5  -4 -17    7.73    1.45
   5   4 -17    6.74    1.21
  -5   4  17    7.18    1.19
   5   4 -17    6.43    1.14
   5  -4  17    7.05    1.21
  -5  -4  17    5.74    1.18
   5   4  17    6.70    1.18
   5  -4 -17    5.72    1.21
  -6  -4 -17   -0.44    0.74
   6   4 -17   -0.20    0.61
  -6   4  17   -0.23    0.66
   6   4 -17    0.70    0.69
   6  -4 -17   -0.58    0.67
   6   4  17    0.27    0.72
  -6  -4  17   -0.44    0.67
   0  -5  17    2.02    0.92
   0   5  17    1.30    0.76
   0  -5 -17    2.49    0.86
   0   5 -17    1.78    0.76
   1  -5  17    4.01    1.06
   1   5 -17    5.95    1.03
  -1   5  17    4.94    1.01
  -1  -5 -17    2.98    0.95
  -1  -5  17    5.47    1.15
  -1   5 -17    4.49    0.93
   1   5  17    3.12    0.94
   1  -5 -17    6.05    1.18
   2   5 -17    0.43    0.60
  -2  -5 -17    0.67    0.64
   2  -5  17    1.38    0.82
  -2   5  17    1.77    0.76
   2   5  17    1.59    0.82
   2  -5 -17    1.27    0.72
  -2  -5  17    1.50    0.89
  -2   5 -17    0.71    0.60
  -3   5  17    1.42    0.80
   3   5 -17    0.99    0.68
   3  -5  17    0.35    0.74
  -3  -5 -17    0.08    0.64
   3   5  17    1.25    0.79
  -3  -5  17    0.38    0.83
   3  -5 -17    0.07    0.63
   4  -5  17    0.09    0.71
  -4  -5 -17    0.43    0.74
   4   5 -17   -0.48    0.57
  -4   5  17    0.95    0.72
  -4  -5  17   -0.29    0.70
   4  -5 -17    0.28    0.69
   4   5  17    0.68    0.69
  -5   5  17    2.65    0.90
  -5  -5 -17    2.83    1.06
   5  -5  17    3.09    0.95
   5   5 -17    2.48    0.88
   5   5  17    3.40    0.99
  -5  -5  17    3.29    1.07
   5  -5 -17    3.29    1.01
   6   5 -17    1.04    0.75
  -6  -5 -17    2.25    1.03
  -6   5  17    2.02    0.87
   6  -5 -17    0.74    0.86
   6   5  17    1.65    0.82
  -6  -5  17    1.49    0.89
   0   6  17    2.22    0.84
   0   6 -17    1.21    0.64
   0  -6  17    2.68    1.01
   0  -6 -17    2.64    0.92
   1   6 -17    1.29    0.65
  -1  -6 -17    0.89    0.77
  -1   6  17    1.09    0.73
   1  -6  17    1.87    0.91
   1   6  17    2.21    0.84
  -1   6 -17    0.73    0.66
  -1  -6  17    1.05    0.89
   1  -6 -17    0.95    0.72
  -2   6  17    8.26    1.25
   2  -6  17    8.64    1.36
   2   6 -17    7.20    1.15
  -2  -6 -17    8.38    1.35
   2   6  17    6.54    1.16
  -2   6 -17    9.50    1.31
  -2  -6  17    5.02    1.15
   2  -6 -17    8.76    1.36
  -3   6  17    0.97    0.74
   3  -6  17    0.26    0.74
   3   6 -17    0.22    0.54
  -3  -6 -17    0.30    0.66
   3  -6 -17    0.24    0.63
  -3  -6  17   -0.87    0.78
   3   6  17    0.16    0.75
   4  -6  17    1.71    0.88
   4   6 -17    2.12    0.82
  -4  -6 -17    2.38    0.95
  -4   6  17    2.71    0.89
   4  -6 -17    3.45    1.04
  -4  -6  17    0.67    0.90
   4   6  17    2.20    0.92
  -5  -6 -17    1.27    0.85
   5   6 -17    0.36    0.65
  -5   6  17    1.05    0.76
  -5  -6  17    0.84    0.93
   5  -6 -17    1.06    0.78
   5   6  17   -0.30    0.70
   0   7 -17   -0.49    0.54
   0  -7  17   -1.29    0.78
   0   7  17    0.75    0.69
   0  -7 -17    0.46    0.63
   1   7 -17    4.97    1.01
  -1   7  17    5.56    1.11
   1  -7  17    4.11    1.10
  -1  -7 -17    4.26    1.09
  -1  -7  17    5.45    1.19
   1   7  17    5.13    1.08
  -1   7 -17    6.40    1.11
   1  -7 -17    4.44    1.09
   2   7 -17    1.65    0.71
  -2  -7 -17    2.49    0.92
  -2   7  17    2.87    0.91
   2  -7  17    1.29    0.91
   2   7  17    1.11    0.82
  -2  -7  17    2.18    0.94
   2  -7 -17    3.20    0.97
  -2   7 -17    1.13    0.76
  -3  -7 -17   -0.70    0.57
  -3   7  17    0.29    0.66
   3  -7  17   -0.23    0.72
   3   7 -17    0.07    0.58
  -3   7 -17    0.39    0.66
  -3  -7  17    0.15    0.80
   3   7  17    0.02    0.66
   3  -7 -17   -0.16    0.64
   4   7 -17    0.61    0.77
   4  -7  17    1.75    0.90
  -4  -7 -17    1.91    0.86
  -4   7  17    1.51    0.73
  -4  -7  17    1.54    0.89
   4   7  17    2.06    0.88
   4  -7 -17    0.39    0.71
  -5   7  17    2.40    0.86
   5   7 -17    0.95    0.77
  -5  -7 -17    2.30    1.00
  -5  -7  17    1.64    0.95
   5  -7 -17    0.16    0.72
   5   7  17    0.41    0.78
   0  -8  17    1.40    0.91
   0  -8 -17    1.90    0.85
   0   8  17    1.76    0.87
   0   8 -17    0.44    0.69
  -1  -8 -17    1.44    0.85
   1   8 -17    0.78    0.70
   1  -8  17    0.52    0.87
  -1   8  17    0.64    0.73
   1  -8 -17    0.43    0.70
  -1   8 -17    1.20    0.72
  -1  -8  17    1.08    0.91
   1   8  17    0.90    0.82
  -2  -8 -17    1.27    0.68
   2   8 -17    2.66    0.81
   2  -8  17    1.83    0.98
  -2   8  17    1.41    0.84
   2   8  17    1.04    0.81
   2  -8 -17    1.16    0.74
  -2   8 -17    2.32    0.89
  -2  -8  17    2.28    1.01
  -3   8  17    3.44    1.03
  -3  -8 -17    4.35    1.10
   3   8 -17    2.74    0.91
   3  -8  17    2.50    1.01
   3  -8 -17    2.82    0.99
  -3   8 -17    3.27    0.93
  -3  -8  17    5.97    1.28
   3   8  17    4.67    1.12
   4  -8  17    1.63    0.95
   4   8 -17    1.84    0.80
  -4  -8 -17    1.58    0.91
  -4   8  17    1.32    0.87
  -4   8 -17    1.60    0.81
  -4  -8  17    2.38    1.05
   4   8  17    2.07    0.97
   4  -8 -17    0.57    0.75
   0  -9  17    3.03    1.05
   0  -9 -17    5.14    1.19
   0   9 -17    5.72    1.15
   0   9  17    3.09    0.98
   1  -9  17    0.63    0.88
  -1   9  17    1.14    0.80
   1   9 -17    2.28    0.92
  -1  -9 -17    1.27    0.88
  -1   9 -17    2.16    0.85
   1  -9 -17    3.73    1.05
   1   9  17    1.89    0.86
  -1  -9  17    1.16    0.94
  -2   9  17    0.15    0.70
  -2  -9 -17    2.91    0.96
   2  -9  17    1.57    1.01
   2   9 -17    1.33    0.83
  -2   9 -17    1.63    0.89
   2   9  17    1.52    0.90
   2  -9 -17    2.37    0.93
  -2  -9  17    1.75    1.01
   3   9 -17   -0.31    0.61
  -3   9  17   -0.26    0.66
  -3  -9 -17    1.06    0.81
   3  -9  17    0.66    0.92
  -3   9 -17    1.10    0.81
   3  -9 -17    1.47    0.84
  -3  -9  17   -0.45    0.80
   3   9  17    1.00    0.83
   0 -10 -17    2.03    0.89
   0 -10  17    2.90    1.10
   0  10  17    2.71    0.99
   0  10 -17    1.30    0.81
  -1 -10 -17    5.03    1.20
   1  10 -17    3.98    1.10
   1 -10 -17    3.18    1.02
  -1  10 -17    3.17    1.05
   0   0 -18   22.98    1.78
   0   0  18   19.10    1.77
  -1   0  18    2.21    0.88
  -1   0 -18    3.42    0.93
   1   0 -18    2.76    0.84
   1   0  18    3.58    0.96
  -2   0  18    0.92    0.85
   2   0 -18    0.95    0.70
   2   0  18    0.59    0.79
  -2   0 -18    1.26    0.68
   3   0  18    7.16    1.25
  -3   0  18    5.92    1.14
   3   0 -18    9.08    1.43
  -3   0 -18    6.97    1.24
  -4   0  18    3.23    0.83
   4   0 -18    2.20    0.82
  -4   0  18    2.74    0.91
   4   0  18    2.37    0.90
  -4   0 -18    2.11    0.89
  -5   0 -18    0.69    0.77
   5   0 -18    1.16    0.74
  -5   0  18    0.45    0.84
   5   0  18    0.86    0.76
  -5   0  18    1.18    0.64
   0   1  18    5.64    1.12
   0   1 -18    5.16    1.01
   0  -1  18    7.84    1.24
   0  -1 -18    6.40    1.16
   1   1 -18    3.67    0.93
   1  -1  18    4.43    1.06
  -1  -1 -18    5.44    1.07
  -1   1  18    3.96    0.96
  -1  -1  18    7.59    1.20
  -1   1 -18    6.75    1.20
   1  -1 -18    6.98    1.26
   1   1  18    3.77    1.02
  -2   1  18   12.13    1.41
   2  -1  18   13.37    1.53
  -2  -1 -18   11.65    1.49
   2   1 -18   10.75    1.41
   2  -1 -18   13.08    1.58
  -2   1 -18   12.68    1.56
  -2  -1  18   13.07    1.57
   2   1  18   11.28    1.48
  -3   1  18    4.39    1.05
   3  -1  18    2.59    0.94
   3   1 -18    5.00    1.08
   3   1 -18    4.79    1.00
  -3  -1 -18    3.97    1.02
  -3   1 -18    3.69    0.96
   3   1  18    4.11    1.02
  -3  -1  18    4.61    1.13
   3  -1 -18    2.93    0.89
  -4  -1 -18   10.63    1.53
   4  -1  18    8.36    1.33
  -4   1  18   10.45    1.35
   4   1 -18   10.29    1.36
   4   1 -18   11.93    1.57
   4   1  18   12.04    1.49
  -4  -1  18   11.72    1.45
   4  -1 -18    9.54    1.47
  -4   1 -18    8.61    1.36
  -5   1  18    4.35    0.96
   5  -1  18    4.47    1.04
   5   1 -18    4.18    1.05
  -5   1  18    5.32    1.08
  -5  -1 -18    5.74    1.26
  -5   1 -18    2.74    0.99
  -5  -1  18    3.95    1.01
   5   1  18    4.09    1.06
   5  -1 -18    2.34    0.93
  -5  -1  18    4.31    0.93
   0   2 -18    9.48    1.37
   0   2  18   10.20    1.41
   0  -2 -18    8.56    1.31
   0  -2  18    8.94    1.32
  -1  -2 -18   15.08    1.70
  -1   2  18   12.46    1.52
   1   2 -18   14.29    1.62
   1  -2  18   12.48    1.50
  -1   2 -18   12.78    1.53
   1   2  18   15.08    1.61
  -1  -2  18   12.92    1.53
   1  -2 -18   15.49    1.76
  -2   2  18    3.20    1.01
   2  -2  18    4.86    1.09
   2   2 -18    4.19    0.95
  -2  -2 -18    4.49    1.05
   2   2 -18    5.06    0.93
   2  -2 -18    4.51    1.03
  -2   2 -18    3.93    0.96
  -2  -2  18    4.02    1.02
   2   2  18    6.83    1.17
   3  -2  18    6.17    1.16
  -3   2  18    8.16    1.30
   3   2 -18    7.98    1.18
   3   2 -18    7.82    1.27
  -3  -2 -18    6.27    1.19
  -3   2 -18    7.40    1.22
   3   2  18    6.49    1.17
  -3  -2  18    6.88    1.23
   3  -2 -18    4.67    1.07
  -4   2  18    0.16    0.72
  -4  -2 -18    0.83    0.77
   4   2 -18    1.51    0.78
   4  -2  18    0.86    0.79
   4   2 -18    1.42    0.78
  -4  -2  18    1.57    0.93
   4  -2 -18    1.21    0.73
  -4   2 -18    1.62    0.78
   4   2  18    1.87    0.89
   5   2 -18    3.65    1.03
  -5  -2 -18    5.92    1.26
  -5   2  18    4.55    1.08
   5   2 -18    5.02    1.12
   5  -2  18    4.28    1.12
   5  -2 -18    6.28    1.33
  -5  -2  18    4.81    1.15
   5   2  18    5.44    1.20
  -5   2 -18    7.13    1.33
   0  -3  18   13.43    1.59
   0   3 -18   10.08    1.36
   0   3  18   10.76    1.45
   0  -3 -18   11.70    1.57
   1  -3  18    6.53    1.21
   1   3 -18    4.44    0.97
  -1   3  18    5.06    1.05
  -1  -3 -18    5.92    1.20
   1   3 -18    3.87    0.84
  -1  -3  18    5.67    1.19
  -1   3 -18    7.25    1.21
   1  -3 -18    3.87    1.07
   1   3  18    5.82    1.12
  -2  -3 -18   10.20    1.46
   2   3 -18   11.63    1.42
   2  -3  18   10.18    1.37
  -2   3  18   10.39    1.34
   2   3 -18   11.04    1.32
  -2   3 -18   14.23    1.63
  -2  -3  18   11.10    1.46
   2   3  18   12.59    1.51
   2  -3 -18   11.51    1.55
  -3  -3 -18    0.94    0.77
   3  -3  18    2.44    0.92
  -3   3  18    1.27    0.78
   3   3 -18    2.41    0.81
   3   3 -18    0.92    0.68
  -3   3 -18    1.66    0.76
   3  -3 -18    1.27    0.77
   3   3  18    1.89    0.89
  -3  -3  18    2.19    0.93
   4   3 -18    9.98    1.41
   4  -3  18   11.82    1.48
   4   3 -18   12.81    1.51
  -4  -3 -18   12.36    1.69
  -4   3  18   11.65    1.48
   4   3  18   11.92    1.50
   4  -3 -18    9.47    1.44
  -4  -3  18   10.19    1.43
  -4   3 -18    9.34    1.37
   5   3 -18    4.81    1.04
  -5   3  18    3.94    0.97
   5  -3  18    3.15    1.01
   5   3 -18    3.72    1.06
  -5  -3 -18    2.70    1.05
   5   3  18    2.76    0.93
  -5   3 -18    3.40    0.99
   5  -3 -18    6.08    1.31
  -5  -3  18    2.79    1.02
   0   4  18    0.47    0.76
   0  -4  18    0.93    0.90
   0  -4 -18    1.14    0.74
   0   4 -18    2.02    0.78
   0   4 -18    1.93    0.80
  -1  -4 -18    8.19    1.37
   1   4 -18    7.17    1.12
  -1   4  18    7.60    1.26
   1   4 -18    7.84    1.24
   1  -4  18    5.78    1.18
   1   4  18    6.63    1.19
   1  -4 -18    6.30    1.21
  -1  -4  18    8.23    1.30
   2  -4  18    6.72    1.26
  -2   4  18    7.22    1.21
   2   4 -18    7.13    1.15
   2   4 -18    6.32    1.12
  -2  -4 -18    4.40    1.07
   2   4  18    4.55    1.08
   2  -4 -18    5.61    1.15
  -2  -4  18    6.01    1.22
   3   4 -18    5.83    1.09
  -3  -4 -18    3.49    1.02
   3   4 -18    3.38    0.93
  -3   4  18    3.48    0.98
   3  -4  18    3.64    1.03
  -3  -4  18    4.75    1.11
   3   4  18    5.78    1.15
   3  -4 -18    4.83    1.13
   4   4 -18    4.03    1.01
   4  -4  18    2.16    0.94
  -4  -4 -18    3.27    1.01
  -4   4  18    2.13    0.86
   4   4 -18    1.44    0.72
   4   4  18    3.10    0.92
  -4  -4  18    3.10    1.05
   4  -4 -18    2.67    0.97
   5   4 -18    6.28    1.21
  -5  -4 -18    7.33    1.45
   5   4 -18    8.34    1.33
   5  -4 -18    7.89    1.47
   0  -5 -18   10.68    1.46
   0   5  18    8.80    1.35
   0   5 -18   11.08    1.38
   0  -5  18    7.70    1.35
   1  -5  18   -0.70    0.76
   1   5 -18   -0.12    0.57
  -1  -5 -18   -0.14    0.63
  -1   5  18   -0.16    0.65
  -1  -5  18   -0.15    0.82
   1  -5 -18    1.21    0.77
   1   5  18   -0.29    0.70
   2  -5  18    4.54    1.10
  -2  -5 -18    4.48    1.09
  -2   5  18    5.54    1.13
   2   5 -18    5.78    1.07
   2   5  18    6.94    1.30
   2  -5 -18    5.81    1.17
  -2  -5  18    6.03    1.26
  -3   5  18    6.03    1.18
   3   5 -18    4.60    0.98
  -3  -5 -18    6.16    1.33
   3  -5  18    3.88    1.08
  -3  -5  18    2.35    1.01
   3  -5 -18    3.25    1.02
   3   5  18    3.89    1.04
   4   5 -18    2.09    0.83
   4  -5  18    1.84    0.93
  -4  -5 -18    3.32    1.06
  -4   5  18    2.48    0.92
   4  -5 -18    3.54    1.08
   4   5  18    2.46    0.92
  -4  -5  18    2.10    1.00
   0  -6 -18    5.73    1.15
   0   6 -18    5.77    1.06
   0   6  18    4.83    1.04
   0  -6  18    4.26    1.13
  -1  -6 -18    5.02    1.13
  -1   6  18    3.23    0.97
   1  -6  18    3.62    1.09
   1   6 -18    4.47    1.01
   1  -6 -18    3.22    0.96
  -1   6 -18    2.69    0.82
   1   6  18    3.03    0.93
  -1  -6  18    2.09    0.98
  -2  -6 -18    1.71    0.81
  -2   6  18    1.45    0.84
   2   6 -18    1.97    0.83
   2  -6  18    3.77    1.13
  -2  -6  18    0.96    0.90
   2  -6 -18    3.19    1.00
   2   6  18    1.39    0.85
  -3  -6 -18    3.39    1.02
  -3   6  18    2.39    0.85
   3  -6  18    4.39    1.12
   3   6 -18    3.45    0.97
  -3  -6  18    3.43    1.08
   3  -6 -18    3.30    1.03
   3   6  18    3.14    1.01
   4  -6 -18    1.52    0.96
   0  -7 -18    3.02    1.01
   0   7  18    2.42    0.92
   0  -7  18    1.91    1.03
   0   7 -18    2.98    0.93
   1   7 -18    0.25    0.65
   1  -7  18    0.31    0.79
  -1  -7 -18    1.13    0.85
  -1   7  18    1.65    0.85
  -1   7 -18    0.21    0.59
   1  -7 -18    0.63    0.75
  -1  -7  18    0.14    0.87
   1   7  18    0.42    0.79
   2   7 -18    9.57    1.41
   2  -7  18    6.55    1.28
  -2   7  18    8.80    1.37
  -2  -7 -18    6.07    1.34
   2  -7 -18    5.21    1.12
  -2  -7  18    8.13    1.43
  -2   7 -18    8.74    1.27
   2   7  18    5.73    1.24
  -3  -7 -18    8.27    1.46
   3   7 -18    7.53    1.25
   3  -7 -18    7.24    1.33
   0   8  18    0.41    0.83
   0  -8  18   -0.27    0.87
   0   8 -18    0.43    0.75
   0  -8 -18    0.62    0.79
  -1  -8 -18    6.26    1.34
   1  -8  18    7.27    1.40
  -1   8  18    6.47    1.26
   1   8 -18    4.87    1.06
   1  -8 -18    8.18    1.45
  -1  -8  18    5.24    1.32
   1   8  18    5.61    1.18
  -1   8 -18    7.59    1.28
   0   0 -19    0.37    0.64
   0   0  19   -0.23    0.73
  -1   0 -19    3.05    0.96
  -1   0  19    4.70    1.03
   1   0  19    3.37    1.01
   1   0 -19    4.38    1.06
   2   0  19    2.33    1.01
  -2   0 -19    2.25    0.84
   2   0 -19    2.12    0.87
  -2   0  19    3.77    1.03
   3   0  19   -0.27    0.80
  -3   0 -19   -0.74    0.52
  -3   0  19   -0.70    0.69
   3   0 -19    0.30    0.65
   4   0 -19    1.42    0.82
   0   1  19    2.07    0.96
   0  -1  19    2.88    1.03
   0  -1 -19    4.03    1.02
   0   1 -19    1.89    0.83
   1  -1  19    1.81    0.86
  -1  -1 -19    1.62    0.82
  -1   1  19    1.21    0.81
   1   1 -19    2.74    0.92
  -1   1 -19    2.73    0.85
  -1  -1  19    1.95    0.90
   1  -1 -19    2.75    0.91
   1   1  19    0.96    0.89
   2   1 -19    2.68    0.85
   2  -1  19    2.80    1.00
  -2   1  19    1.71    0.98
  -2  -1 -19    1.16    0.79
  -2  -1  19    1.49    0.90
   2  -1 -19    2.50    0.87
  -2   1 -19    3.80    0.96
   2   1  19    1.31    0.85
   3  -1  19    0.71    0.86
  -3   1  19    1.83    0.92
  -3  -1 -19    1.08    0.75
   3   1 -19    0.38    0.63
  -3   1 -19    1.74    0.81
  -3  -1  19    0.71    0.86
   3   1  19   -0.25    0.74
   3  -1 -19    0.21    0.69
   0   2 -19    2.28    0.90
   0  -2  19    2.78    1.03
   0  -2 -19    3.13    0.95
   0   2  19    2.29    0.88
  -1   2  19    1.72    0.90
  -1  -2 -19    1.39    0.78
   1  -2  19    2.59    1.00
   1   2 -19    3.61    0.98
  -1   2 -19    3.17    0.94
   1   2  19    2.71    0.95
  -1  -2  19    2.57    0.99
   1  -2 -19    1.61    0.80
   2  -2  19    2.02    0.95
  -2  -2 -19    3.88    1.06
   2   2 -19    3.04    0.90
  -2   2  19    0.93    0.85
   2  -2 -19    1.88    0.86
  -2   2 -19    1.61    0.79
   2   2  19    1.55    0.85
  -2  -2  19    2.83    0.99
   3  -2  19    1.84    0.90
   3   2 -19    1.44    0.79
  -3  -2 -19    2.15    0.88
  -3   2  19    0.19    0.86
   3   2  19    1.43    0.93
  -3   2 -19    2.81    0.94
  -3  -2  19    1.57    0.90
   3  -2 -19    1.24    0.81
   0  -3  19    8.43    1.37
   0  -3 -19    9.83    1.48
   0   3  19   11.03    1.44
   0   3 -19    8.95    1.33
  -1  -3 -19    0.54    0.71
   1   3 -19    0.45    0.67
   1  -3  19   -0.16    0.81
  -1   3  19    1.10    0.82
  -1   3 -19   -0.74    0.51
  -1  -3  19    0.76    0.86
   1   3  19   -0.83    0.67
   1  -3 -19   -0.34    0.56
   2  -3  19    2.87    1.08
   2   3 -19    1.39    0.75
  -2   3  19    2.55    0.89
  -2  -3 -19    2.17    0.89
   2   3  19    3.11    1.06
   2  -3 -19    2.53    0.91
  -2   3 -19    1.79    0.80
  -2  -3  19    2.18    0.96
   3  -3  19    4.40    1.16
   3   3 -19    5.11    1.07
   3   3 -19    4.34    1.12
  -3  -3 -19    5.24    1.16
  -3   3  19    6.53    1.22
   3   3  19    4.75    1.13
  -3   3 -19    4.44    1.04
  -3  -3  19    3.85    1.13
   3  -3 -19    4.73    1.12
   0  -4 -19    1.25    0.74
   0   4  19   -0.78    0.68
   0  -4  19    0.25    0.92
  -1   4  19    0.23    0.80
  -1  -4 -19    0.26    0.68
   1  -4  19    0.92    0.89
   1   4  19    0.63    0.81
   1  -4 -19    0.49    0.70
  -1  -4  19    0.34    0.87
   2  -4  19    5.91    1.23
   2   4 -19    4.01    0.93
  -2  -4 -19    5.44    1.20
  -2   4  19    2.89    1.01
   2  -4 -19    2.15    0.95
   2   4  19    4.24    1.15
  -2  -4  19    4.12    1.11
   0   5  19   -0.36    0.72
   0  -5  19    0.08    0.82
   0  -5 -19    0.76    0.72
  -1  -5 -19    2.81    1.00
   1  -5  19    1.91    1.04
   1   5 -19    3.24    0.90
  -1   5  19    1.67    0.85
  -1  -5  19    2.25    1.00
   1  -5 -19    0.60    0.79
   1   5  19    3.40    1.05
   0   0   0    0.00    0.00
;
_shelx_hkl_checksum              30990
loop_
_space_group_symop_operation_xyz
'x, y, z'
'x+1/2, -y+1/2, -z'
'-x, y+1/2, -z+1/2'
'-x+1/2, -y, z+1/2'
loop_
_atom_site_label
_atom_site_type_symbol
_atom_site_fract_x
_atom_site_fract_y
_atom_site_fract_z
_atom_site_U_iso_or_equiv
_atom_site_adp_type
_atom_site_occupancy
_atom_site_site_symmetry_order
_atom_site_calc_flag
_atom_site_refinement_flags_posn
_atom_site_refinement_flags_adp
Co1 Co 0.26180(4) 0.49412(3) 0.96192(3) 0.02024(10) Uani 1 1 d . .
Co2 Co 0.08168(4) 0.41558(3) 1.03153(3) 0.02296(11) Uani 1 1 d . .
O1 O 0.4011(2) 0.56153(14) 0.90988(15) 0.0278(5) Uani 1 1 d . .
N1 N 0.0554(3) 0.34449(19) 0.93328(19) 0.0315(7) Uani 1 1 d . .
N2 N -0.0630(3) 0.35355(19) 1.0887(2) 0.0320(7) Uani 1 1 d . .
N3 N 0.1825(3) 0.37316(19) 1.12351(19) 0.0285(7) Uani 1 1 d . .
N4 N 0.3452(2) 0.45961(18) 1.07831(17) 0.0227(6) Uani 1 1 d . .
N5 N -0.0083(3) 0.52128(18) 1.0453(2) 0.0317(7) Uani 1 1 d . .
N6 N 0.1422(2) 0.59958(16) 0.97332(18) 0.0219(6) Uani 1 1 d . .
N7 N 0.2171(2) 0.41129(17) 0.86099(17) 0.0235(6) Uani 1 1 d . .
C1 C -0.0429(4) 0.2787(2) 0.9450(3) 0.0392(10) Uani 1 1 d . .
H20 H -0.0063 0.2231 0.9615 0.047 Uiso 1 1 calc R U
H19 H -0.0884 0.2707 0.8912 0.047 Uiso 1 1 calc R U
C2 C -0.1320(4) 0.3113(3) 1.0169(3) 0.0432(10) Uani 1 1 d . .
H17 H -0.1906 0.3528 0.9923 0.052 Uiso 1 1 calc R U
H18 H -0.1792 0.2622 1.0394 0.052 Uiso 1 1 calc R U
C3 C -0.0051(4) 0.2895(3) 1.1486(3) 0.0393(10) Uani 1 1 d . .
H8 H 0.0169 0.2370 1.1167 0.047 Uiso 1 1 calc R U
H1 H -0.0647 0.2734 1.1931 0.047 Uiso 1 1 calc R U
C4 C 0.1116(4) 0.3274(2) 1.1911(2) 0.0331(8) Uani 1 1 d . .
H7 H 0.0886 0.3677 1.2369 0.040 Uiso 1 1 calc R U
H6 H 0.1617 0.2809 1.2161 0.040 Uiso 1 1 calc R U
C5 C 0.2933(3) 0.4084(2) 1.1417(2) 0.0230(7) Uani 1 1 d . .
C6 C 0.4557(3) 0.4993(2) 1.0959(2) 0.0299(7) Uani 1 1 d . .
H2 H 0.4911 0.5340 1.0529 0.036 Uiso 1 1 calc R U
C7 C 0.5187(3) 0.4914(3) 1.1732(2) 0.0356(9) Uani 1 1 d . .
H3 H 0.5936 0.5206 1.1825 0.043 Uiso 1 1 calc R U
C8 C 0.4665(3) 0.4383(3) 1.2372(2) 0.0356(9) Uani 1 1 d . .
H5 H 0.5072 0.4309 1.2900 0.043 Uiso 1 1 calc R U
C9 C 0.3566(3) 0.3974(2) 1.2224(2) 0.0308(8) Uani 1 1 d . .
H4 H 0.3220 0.3619 1.2651 0.037 Uiso 1 1 calc R U
C10 C -0.1329(4) 0.4229(3) 1.1345(3) 0.0408(10) Uani 1 1 d . .
H9 H -0.0950 0.4332 1.1908 0.049 Uiso 1 1 calc R U
H16 H -0.2181 0.4037 1.1439 0.049 Uiso 1 1 calc R U
C11 C -0.1335(3) 0.5086(3) 1.0823(3) 0.0380(9) Uani 1 1 d . .
H14 H -0.1950 0.5055 1.0362 0.046 Uiso 1 1 calc R U
H15 H -0.1546 0.5574 1.1198 0.046 Uiso 1 1 calc R U
C12 C 0.0249(3) 0.5969(2) 1.0098(2) 0.0240(7) Uani 1 1 d . .
C13 C 0.1825(3) 0.6759(2) 0.9396(2) 0.0256(7) Uani 1 1 d . .
H13 H 0.2624 0.6775 0.9160 0.031 Uiso 1 1 calc R U
C14 C 0.1135(4) 0.7511(2) 0.9378(2) 0.0320(8) Uani 1 1 d . .
H12 H 0.1453 0.8021 0.9133 0.038 Uiso 1 1 calc R U
C15 C -0.0060(3) 0.7493(2) 0.9737(2) 0.0332(8) Uani 1 1 d . .
H11 H -0.0552 0.7994 0.9738 0.040 Uiso 1 1 calc R U
C16 C -0.0500(3) 0.6733(2) 1.0086(2) 0.0309(8) Uani 1 1 d . .
H10 H -0.1300 0.6717 1.0320 0.037 Uiso 1 1 calc R U
C17 C 0.1266(3) 0.3472(2) 0.8626(2) 0.0274(8) Uani 1 1 d . .
C18 C 0.2840(3) 0.4224(2) 0.7871(2) 0.0277(7) Uani 1 1 d . .
H24 H 0.3421 0.4675 0.7858 0.033 Uiso 1 1 calc R U
C19 C 0.2719(4) 0.3719(2) 0.7147(2) 0.0352(9) Uani 1 1 d . .
H23 H 0.3187 0.3829 0.6650 0.042 Uiso 1 1 calc R U
C20 C 0.1863(4) 0.3029(3) 0.7181(3) 0.0409(10) Uani 1 1 d . .
H22 H 0.1779 0.2655 0.6708 0.049 Uiso 1 1 calc R U
C21 C 0.1154(4) 0.2903(2) 0.7897(3) 0.0373(9) Uani 1 1 d . .
H21 H 0.0590 0.2442 0.7914 0.045 Uiso 1 1 calc R U
C22 C 0.5094(3) 0.5354(2) 0.8919(2) 0.0216(7) Uani 1 1 d . .
C23 C 0.6087(3) 0.5949(2) 0.8744(2) 0.0297(8) Uani 1 1 d . .
H25 H 0.5920 0.6546 0.8758 0.036 Uiso 1 1 calc R U
C24 C 0.7289(4) 0.5679(3) 0.8554(2) 0.0359(9) Uani 1 1 d . .
H26 H 0.7905 0.6096 0.8456 0.043 Uiso 1 1 calc R U
C25 C 0.7590(3) 0.4804(3) 0.8508(2) 0.0373(9) Uani 1 1 d . .
H27 H 0.8396 0.4626 0.8370 0.045 Uiso 1 1 calc R U
C26 C 0.6663(3) 0.4199(3) 0.8672(3) 0.0360(9) Uani 1 1 d . .
H28 H 0.6846 0.3606 0.8639 0.043 Uiso 1 1 calc R U
C27 C 0.5463(3) 0.4461(2) 0.8884(3) 0.0321(8) Uani 1 1 d . .
H29 H 0.4872 0.4034 0.9010 0.039 Uiso 1 1 calc R U
loop_
_atom_site_aniso_label
_atom_site_aniso_U_11
_atom_site_aniso_U_22
_atom_site_aniso_U_33
_atom_site_aniso_U_23
_atom_site_aniso_U_13
_atom_site_aniso_U_12
Co1 0.0199(2) 0.0179(2) 0.0229(2) -0.00043(19) 0.00033(19) 0.00031(16)
Co2 0.0212(2) 0.0202(2) 0.0274(2) 0.0029(2) 0.0000(2) -0.00056(17)
O1 0.0300(13) 0.0208(12) 0.0326(13) 0.0023(10) 0.0019(11) -0.0027(10)
N1 0.0338(17) 0.0268(15) 0.0338(16) 0.0024(13) -0.0033(13) -0.0117(13)
N2 0.0257(16) 0.0304(16) 0.0400(18) 0.0086(14) -0.0015(14) -0.0037(13)
N3 0.0316(16) 0.0257(15) 0.0282(16) 0.0046(12) -0.0009(13) -0.0025(13)
N4 0.0194(14) 0.0238(14) 0.0247(14) -0.0021(12) -0.0010(11) 0.0038(11)
N5 0.0258(14) 0.0278(15) 0.0415(18) 0.0043(14) 0.0074(14) 0.0032(12)
N6 0.0225(13) 0.0202(13) 0.0231(13) -0.0006(12) -0.0017(12) 0.0013(10)
N7 0.0272(14) 0.0188(13) 0.0245(14) -0.0025(11) -0.0039(11) 0.0031(12)
C1 0.040(2) 0.036(2) 0.042(2) 0.0023(17) -0.0083(18) -0.0156(17)
C2 0.034(2) 0.047(2) 0.049(3) 0.010(2) -0.0049(18) -0.0147(18)
C3 0.038(2) 0.036(2) 0.045(2) 0.0142(18) 0.0011(19) -0.0053(18)
C4 0.038(2) 0.0308(19) 0.031(2) 0.0076(16) 0.0028(16) -0.0007(17)
C5 0.0239(17) 0.0199(16) 0.0251(16) -0.0028(14) 0.0002(13) 0.0065(14)
C6 0.0239(17) 0.0341(19) 0.0317(18) -0.0031(17) -0.0003(14) 0.0017(16)
C7 0.0204(17) 0.051(2) 0.036(2) -0.0065(19) -0.0062(15) 0.0013(18)
C8 0.031(2) 0.046(2) 0.0300(19) -0.0028(17) -0.0082(16) 0.0099(18)
C9 0.035(2) 0.030(2) 0.0267(18) 0.0004(15) -0.0015(15) 0.0090(16)
C10 0.030(2) 0.046(2) 0.046(2) 0.010(2) 0.0128(17) 0.0004(18)
C11 0.0276(18) 0.036(2) 0.051(2) 0.0075(19) 0.0118(17) 0.0076(17)
C12 0.0234(16) 0.0235(17) 0.0252(17) -0.0007(13) -0.0020(13) 0.0024(14)
C13 0.0248(17) 0.0247(17) 0.0275(18) -0.0018(13) -0.0032(14) -0.0026(14)
C14 0.036(2) 0.0203(17) 0.040(2) 0.0017(15) -0.0031(16) -0.0005(15)
C15 0.0356(19) 0.0223(16) 0.042(2) -0.0044(18) -0.0079(19) 0.0084(14)
C16 0.0232(17) 0.0298(19) 0.040(2) -0.0022(15) 0.0007(15) 0.0051(14)
C17 0.0288(18) 0.0214(17) 0.0322(19) 0.0014(14) -0.0099(16) -0.0002(14)
C18 0.0281(18) 0.0270(17) 0.0281(17) 0.0029(15) -0.0022(14) 0.0058(15)
C19 0.046(2) 0.038(2) 0.0216(17) -0.0006(15) -0.0010(17) 0.0126(18)
C20 0.056(3) 0.035(2) 0.032(2) -0.0130(18) -0.0130(19) 0.010(2)
C21 0.048(2) 0.0267(19) 0.037(2) -0.0045(16) -0.0126(19) -0.0022(17)
C22 0.0320(19) 0.0199(16) 0.0130(15) 0.0003(12) -0.0013(14) -0.0024(14)
C23 0.0304(18) 0.0278(18) 0.0309(18) -0.0008(15) 0.0041(15) -0.0031(16)
C24 0.0290(19) 0.039(2) 0.039(2) 0.0026(17) 0.0037(17) -0.0081(17)
C25 0.0242(18) 0.049(2) 0.039(2) 0.0008(17) 0.0070(17) 0.0052(18)
C26 0.0301(19) 0.0296(19) 0.048(2) -0.0021(18) -0.0018(17) 0.0051(17)
C27 0.0250(18) 0.0265(18) 0.045(2) 0.0018(16) 0.0014(16) -0.0013(15)
loop_
_atom_type_symbol
_atom_type_description
_atom_type_scat_dispersion_real
_atom_type_scat_dispersion_imag
_atom_type_scat_source
C C 0.0033 0.0016 'International Tables Vol C Tables 4.2.6.8 and 6.1.1.4'
H H 0.0000 0.0000 'International Tables Vol C Tables 4.2.6.8 and 6.1.1.4'
N N 0.0061 0.0033 'International Tables Vol C Tables 4.2.6.8 and 6.1.1.4'
O O 0.0106 0.0060 'International Tables Vol C Tables 4.2.6.8 and 6.1.1.4'
Co Co 0.3494 0.9721 'International Tables Vol C Tables 4.2.6.8 and 6.1.1.4'
loop_
_geom_angle_atom_site_label_1
_geom_angle_atom_site_label_2
_geom_angle_atom_site_label_3
_geom_angle
O1 Co1 N7 100.89(10)
O1 Co1 N6 95.48(10)
N7 Co1 N6 113.52(11)
O1 Co1 N4 99.09(10)
N7 Co1 N4 126.64(10)
N6 Co1 N4 113.09(11)
O1 Co1 Co2 177.13(7)
N7 Co1 Co2 81.39(8)
N6 Co1 Co2 81.97(7)
N4 Co1 Co2 80.79(8)
N1 Co2 N5 120.37(14)
N1 Co2 N3 119.24(13)
N5 Co2 N3 119.89(14)
N1 Co2 N2 87.99(13)
N5 Co2 N2 87.76(12)
N3 Co2 N2 87.19(12)
N1 Co2 Co1 92.71(9)
N5 Co2 Co1 91.79(9)
N3 Co2 Co1 92.58(9)
N2 Co2 Co1 179.29(9)
C22 O1 Co1 128.2(2)
C17 N1 C1 122.3(3)
C17 N1 Co2 123.6(2)
C1 N1 Co2 113.8(2)
C10 N2 C2 114.7(3)
C10 N2 C3 112.9(3)
C2 N2 C3 112.7(3)
C10 N2 Co2 105.1(2)
C2 N2 Co2 105.2(2)
C3 N2 Co2 105.1(2)
C5 N3 C4 120.3(3)
C5 N3 Co2 121.7(2)
C4 N3 Co2 113.5(2)
C6 N4 C5 117.8(3)
C6 N4 Co1 115.8(2)
C5 N4 Co1 126.0(2)
C12 N5 C11 121.2(3)
C12 N5 Co2 124.1(2)
C11 N5 Co2 113.3(2)
C13 N6 C12 118.4(3)
C13 N6 Co1 116.3(2)
C12 N6 Co1 125.3(2)
C18 N7 C17 118.4(3)
C18 N7 Co1 115.7(2)
C17 N7 Co1 125.9(2)
N1 C1 C2 108.1(3)
N1 C1 H20 110.1
C2 C1 H20 110.1
N1 C1 H19 110.1
C2 C1 H19 110.1
H20 C1 H19 108.4
N2 C2 C1 111.6(3)
N2 C2 H17 109.3
C1 C2 H17 109.3
N2 C2 H18 109.3
C1 C2 H18 109.3
H17 C2 H18 108.0
N2 C3 C4 111.1(3)
N2 C3 H8 109.4
C4 C3 H8 109.4
N2 C3 H1 109.4
C4 C3 H1 109.4
H8 C3 H1 108.0
N3 C4 C3 107.5(3)
N3 C4 H7 110.2
C3 C4 H7 110.2
N3 C4 H6 110.2
C3 C4 H6 110.2
H7 C4 H6 108.5
N3 C5 N4 116.3(3)
N3 C5 C9 123.9(3)
N4 C5 C9 119.8(3)
N4 C6 C7 124.3(3)
N4 C6 H2 117.9
C7 C6 H2 117.9
C6 C7 C8 117.8(3)
C6 C7 H3 121.1
C8 C7 H3 121.1
C9 C8 C7 119.9(3)
C9 C8 H5 120.0
C7 C8 H5 120.0
C8 C9 C5 120.4(3)
C8 C9 H4 119.8
C5 C9 H4 119.8
N2 C10 C11 111.3(3)
N2 C10 H9 109.4
C11 C10 H9 109.4
N2 C10 H16 109.4
C11 C10 H16 109.4
H9 C10 H16 108.0
N5 C11 C10 108.1(3)
N5 C11 H14 110.1
C10 C11 H14 110.1
N5 C11 H15 110.1
C10 C11 H15 110.1
H14 C11 H15 108.4
N5 C12 N6 116.0(3)
N5 C12 C16 124.9(3)
N6 C12 C16 119.2(3)
N6 C13 C14 124.2(3)
N6 C13 H13 117.9
C14 C13 H13 117.9
C13 C14 C15 118.1(3)
C13 C14 H12 120.9
C15 C14 H12 120.9
C16 C15 C14 119.4(3)
C16 C15 H11 120.3
C14 C15 H11 120.3
C15 C16 C12 120.7(3)
C15 C16 H10 119.6
C12 C16 H10 119.6
N1 C17 N7 116.1(3)
N1 C17 C21 125.3(3)
N7 C17 C21 118.6(3)
N7 C18 C19 124.5(3)
N7 C18 H24 117.7
C19 C18 H24 117.7
C18 C19 C20 117.3(4)
C18 C19 H23 121.4
C20 C19 H23 121.4
C21 C20 C19 120.4(3)
C21 C20 H22 119.8
C19 C20 H22 119.8
C20 C21 C17 120.6(4)
C20 C21 H21 119.7
C17 C21 H21 119.7
O1 C22 C27 124.7(3)
O1 C22 C23 121.9(3)
C27 C22 C23 113.4(3)
C24 C23 C22 123.0(3)
C24 C23 H25 118.5
C22 C23 H25 118.5
C25 C24 C23 121.2(4)
C25 C24 H26 119.4
C23 C24 H26 119.4
C24 C25 C26 118.2(4)
C24 C25 H27 120.9
C26 C25 H27 120.9
C25 C26 C27 121.2(4)
C25 C26 H28 119.4
C27 C26 H28 119.4
C26 C27 C22 123.0(3)
C26 C27 H29 118.5
C22 C27 H29 118.5
loop_
_geom_bond_atom_site_label_1
_geom_bond_atom_site_label_2
_geom_bond_distance
Co1 O1 1.983(2)
Co1 N7 2.062(3)
Co1 N6 2.067(3)
Co1 N4 2.073(3)
Co1 Co2 2.5139(7)
Co2 N1 1.885(3)
Co2 N5 1.894(3)
Co2 N3 1.897(3)
Co2 N2 2.020(3)
O1 C22 1.259(4)
N1 C17 1.331(5)
N1 C1 1.467(4)
N2 C10 1.478(5)
N2 C2 1.479(5)
N2 C3 1.483(5)
N3 C5 1.334(4)
N3 C4 1.467(4)
N4 C6 1.358(4)
N4 C5 1.369(4)
N5 C12 1.328(4)
N5 C11 1.470(4)
N6 C13 1.349(4)
N6 C12 1.378(4)
N7 C18 1.356(4)
N7 C17 1.379(4)
C1 C2 1.545(5)
C1 H20 0.9700
C1 H19 0.9700
C2 H17 0.9700
C2 H18 0.9700
C3 C4 1.526(5)
C3 H8 0.9700
C3 H1 0.9700
C4 H7 0.9700
C4 H6 0.9700
C5 C9 1.427(5)
C6 C7 1.374(5)
C6 H2 0.9300
C7 C8 1.395(5)
C7 H3 0.9300
C8 C9 1.353(5)
C8 H5 0.9300
C9 H4 0.9300
C10 C11 1.539(5)
C10 H9 0.9700
C10 H16 0.9700
C11 H14 0.9700
C11 H15 0.9700
C12 C16 1.417(4)
C13 C14 1.368(5)
C13 H13 0.9300
C14 C15 1.396(5)
C14 H12 0.9300
C15 C16 1.364(5)
C15 H11 0.9300
C16 H10 0.9300
C17 C21 1.426(5)
C18 C19 1.364(5)
C18 H24 0.9300
C19 C20 1.400(6)
C19 H23 0.9300
C20 C21 1.354(6)
C20 H22 0.9300
C21 H21 0.9300
C22 C27 1.422(5)
C22 C23 1.426(5)
C23 C24 1.384(5)
C23 H25 0.9300
C24 C25 1.378(5)
C24 H26 0.9300
C25 C26 1.381(5)
C25 H27 0.9300
C26 C27 1.387(5)
C26 H28 0.9300
C27 H29 0.9300
loop_
_geom_torsion_atom_site_label_1
_geom_torsion_atom_site_label_2
_geom_torsion_atom_site_label_3
_geom_torsion_atom_site_label_4
_geom_torsion
N5 Co2 N1 C17 96.2(3)
N3 Co2 N1 C17 -92.0(3)
N2 Co2 N1 C17 -177.6(3)
Co1 Co2 N1 C17 2.5(3)
N5 Co2 N1 C1 -90.1(3)
N3 Co2 N1 C1 81.7(3)
N2 Co2 N1 C1 -3.9(2)
Co1 Co2 N1 C1 176.2(2)
N1 Co2 N3 C5 112.0(3)
N5 Co2 N3 C5 -76.1(3)
N2 Co2 N3 C5 -161.9(3)
Co1 Co2 N3 C5 17.4(3)
N1 Co2 N3 C4 -91.6(3)
N5 Co2 N3 C4 80.3(3)
N2 Co2 N3 C4 -5.5(2)
Co1 Co2 N3 C4 173.8(2)
N1 Co2 N5 C12 -84.2(3)
N3 Co2 N5 C12 104.0(3)
N2 Co2 N5 C12 -170.6(3)
Co1 Co2 N5 C12 10.0(3)
N1 Co2 N5 C11 82.7(3)
N3 Co2 N5 C11 -89.1(3)
N2 Co2 N5 C11 -3.7(3)
Co1 Co2 N5 C11 176.9(2)
C17 N1 C1 C2 -162.2(3)
Co2 N1 C1 C2 23.9(4)
C10 N2 C2 C1 150.2(3)
C3 N2 C2 C1 -78.7(4)
Co2 N2 C2 C1 35.2(4)
N1 C1 C2 N2 -39.6(4)
C10 N2 C3 C4 -76.4(4)
C2 N2 C3 C4 151.6(3)
Co2 N2 C3 C4 37.6(4)
C5 N3 C4 C3 -176.1(3)
Co2 N3 C4 C3 27.2(4)
N2 C3 C4 N3 -43.2(4)
C4 N3 C5 N4 -171.7(3)
Co2 N3 C5 N4 -16.9(4)
C4 N3 C5 C9 6.7(5)
Co2 N3 C5 C9 161.5(3)
C6 N4 C5 N3 177.5(3)
Co1 N4 C5 N3 4.8(4)
C6 N4 C5 C9 -0.9(5)
Co1 N4 C5 C9 -173.6(2)
C5 N4 C6 C7 -0.1(5)
Co1 N4 C6 C7 173.4(3)
N4 C6 C7 C8 0.9(6)
C6 C7 C8 C9 -0.8(6)
C7 C8 C9 C5 -0.1(5)
N3 C5 C9 C8 -177.3(3)
N4 C5 C9 C8 1.0(5)
C2 N2 C10 C11 -78.2(4)
C3 N2 C10 C11 150.8(3)
Co2 N2 C10 C11 36.9(4)
C12 N5 C11 C10 -168.1(3)
Co2 N5 C11 C10 24.6(4)
N2 C10 C11 N5 -41.2(4)
C11 N5 C12 N6 -176.8(3)
Co2 N5 C12 N6 -10.9(4)
C11 N5 C12 C16 4.4(5)
Co2 N5 C12 C16 170.3(3)
C13 N6 C12 N5 -177.3(3)
Co1 N6 C12 N5 4.8(4)
C13 N6 C12 C16 1.6(4)
Co1 N6 C12 C16 -176.3(2)
C12 N6 C13 C14 -1.2(5)
Co1 N6 C13 C14 176.9(3)
N6 C13 C14 C15 0.5(5)
C13 C14 C15 C16 -0.3(5)
C14 C15 C16 C12 0.8(5)
N5 C12 C16 C15 177.3(3)
N6 C12 C16 C15 -1.5(5)
C1 N1 C17 N7 -178.6(3)
Co2 N1 C17 N7 -5.4(4)
C1 N1 C17 C21 2.0(5)
Co2 N1 C17 C21 175.2(3)
C18 N7 C17 N1 -173.7(3)
Co1 N7 C17 N1 6.2(4)
C18 N7 C17 C21 5.8(4)
Co1 N7 C17 C21 -174.4(2)
C17 N7 C18 C19 -2.9(5)
Co1 N7 C18 C19 177.2(3)
N7 C18 C19 C20 -1.4(5)
C18 C19 C20 C21 2.7(6)
C19 C20 C21 C17 0.2(6)
N1 C17 C21 C20 174.8(4)
N7 C17 C21 C20 -4.6(5)
Co1 O1 C22 C27 14.2(5)
Co1 O1 C22 C23 -164.6(2)
O1 C22 C23 C24 179.3(3)
C27 C22 C23 C24 0.4(5)
C22 C23 C24 C25 1.2(6)
C23 C24 C25 C26 -1.1(6)
C24 C25 C26 C27 -0.5(6)
C25 C26 C27 C22 2.2(6)
O1 C22 C27 C26 179.1(3)
C23 C22 C27 C26 -2.1(5)
