#------------------------------------------------------------------------------
#$Date: 2017-03-05 01:28:01 +0200 (Sun, 05 Mar 2017) $
#$Revision: 193661 $
#$URL: file:///home/coder/svn-repositories/cod/cif/1/54/54/1545476.cif $
#------------------------------------------------------------------------------
#
# This file is available in the Crystallography Open Database (COD),
# http://www.crystallography.net/
#
# All data on this site have been placed in the public domain by the
# contributors.
#
data_1545476
loop_
_publ_author_name
'Sheng, Daopeng'
'Zhu, Lin'
'Xu, Chao'
'Xiao, Chengliang'
'Wang, Yanlong'
'Wang, Yaxing'
'Chen, Lanhua'
'Diwu, Juan'
'Chen, Jing'
'Chai, Zhifang'
'Albrecht-Schmitt, Thomas E'
'Wang, Shuao'
_publ_section_title
;
 Efficient and Selective Uptake of TcO4(-) by a Cationic Metal-Organic
 Framework Material with Open Ag(+) Sites.
;
_journal_name_full               'Environmental science &amp; technology'
_journal_paper_doi               10.1021/acs.est.7b00339
_journal_year                    2017
_chemical_formula_moiety         'C37 H28 Ag2 N8'
_chemical_formula_sum            'C37 H28 Ag2 N8'
_chemical_formula_weight         800.41
_chemical_name_common            SCU-100
_space_group_crystal_system      tetragonal
_space_group_IT_number           133
_space_group_name_Hall           '-P 4ac 2b'
_space_group_name_H-M_alt        'P 42/n b c'
_symmetry_space_group_name_Hall  '-P 4ac 2b'
_symmetry_space_group_name_H-M   'P 42/n b c :2'
_atom_sites_solution_hydrogens   geom
_audit_creation_method           SHELXL-2014/7
_cell_angle_alpha                90
_cell_angle_beta                 90
_cell_angle_gamma                90
_cell_formula_units_Z            8
_cell_length_a                   15.784(3)
_cell_length_b                   15.784(3)
_cell_length_c                   31.144(5)
_cell_measurement_reflns_used    1962
_cell_measurement_temperature    293(2)
_cell_measurement_theta_max      27.645
_cell_measurement_theta_min      2.245
_cell_volume                     7759(2)
_computing_cell_refinement       'APEX3 v2016.1-0(Bruker-AXS, 2016)'
_computing_data_collection       'APEX3 v2016.1-0(Bruker-AXS, 2016)'
_computing_data_reduction        'APEX3 v2016.1-0(Bruker-AXS, 2016)'
_computing_molecular_graphics    'Bruker SHELXTL'
_computing_publication_material  'Bruker SHELXTL'
_computing_structure_refinement  'SHELXL-2014 (Sheldrick, 2014)'
_computing_structure_solution    'SHELXS-2013/1 (She ldrick, 2013)'
_diffrn_ambient_temperature      293(2)
_diffrn_measured_fraction_theta_full 0.994
_diffrn_measured_fraction_theta_max 0.989
_diffrn_measurement_device_type  'Bruker D8 Venture Kappa Duo PHOTON 100 CMOS'
_diffrn_measurement_method       'phi and omega scans'
_diffrn_radiation_monochromator  'Helios MX multilayer'
_diffrn_radiation_type           MoK\a
_diffrn_radiation_wavelength     0.71073
_diffrn_reflns_av_R_equivalents  0.0771
_diffrn_reflns_av_unetI/netI     0.0554
_diffrn_reflns_Laue_measured_fraction_full 0.994
_diffrn_reflns_Laue_measured_fraction_max 0.989
_diffrn_reflns_limit_h_max       14
_diffrn_reflns_limit_h_min       -13
_diffrn_reflns_limit_k_max       20
_diffrn_reflns_limit_k_min       0
_diffrn_reflns_limit_l_max       40
_diffrn_reflns_limit_l_min       0
_diffrn_reflns_number            8408
_diffrn_reflns_point_group_measured_fraction_full 0.994
_diffrn_reflns_point_group_measured_fraction_max 0.989
_diffrn_reflns_theta_full        25.242
_diffrn_reflns_theta_max         27.645
_diffrn_reflns_theta_min         2.245
_diffrn_source                   'microfocus sealed tube'
_exptl_absorpt_coefficient_mu    1.043
_exptl_absorpt_correction_type   multi-scan
_exptl_absorpt_process_details   'SADABS, 2014/5'
_exptl_crystal_colour            colorless
_exptl_crystal_density_diffrn    1.370
_exptl_crystal_description       quadrangular
_exptl_crystal_F_000             3200
_exptl_crystal_size_max          0.314
_exptl_crystal_size_mid          0.156
_exptl_crystal_size_min          0.122
_exptl_transmission_factor_max   0.881
_exptl_transmission_factor_min   0.823
_refine_diff_density_max         1.037
_refine_diff_density_min         -1.740
_refine_diff_density_rms         0.227
_refine_ls_extinction_method     none
_refine_ls_goodness_of_fit_ref   1.069
_refine_ls_hydrogen_treatment    constr
_refine_ls_matrix_type           full
_refine_ls_number_parameters     214
_refine_ls_number_reflns         4482
_refine_ls_number_restraints     0
_refine_ls_restrained_S_all      1.069
_refine_ls_R_factor_all          0.1513
_refine_ls_R_factor_gt           0.0931
_refine_ls_shift/su_max          0.001
_refine_ls_shift/su_mean         0.000
_refine_ls_structure_factor_coef Fsqd
_refine_ls_weighting_details
'w=1/[\s^2^(Fo^2^)+(0.2000P)^2^] where P=(Fo^2^+2Fc^2^)/3'
_refine_ls_weighting_scheme      calc
_refine_ls_wR_factor_gt          0.3120
_refine_ls_wR_factor_ref         0.3541
_reflns_Friedel_coverage         0.000
_reflns_number_gt                1959
_reflns_number_total             4482
_reflns_threshold_expression     'I > 2\s(I)'
_cod_data_source_file            es7b00339_si_002.cif
_cod_data_source_block           save
_cod_depositor_comments
;
The following automatic conversions were performed:

'_exptl_absorpt_correction_type' value 'MULTI-SCAN' changed to
'multi-scan' according to
/home/data/users/saulius/crontab/automatic-downloads/rss-feeds/ACS/lib/dictionaries/cif_core.dic
dictionary named 'cif_core.dic' version 2.4.2 from 2011-04-26.

Automatic conversion script
Id: cif_fix_values 4973 2017-02-22 13:04:09Z antanas 
;
_cod_original_cell_volume        7759(3)
_cod_database_code               1545476
_shelx_shelxl_version_number     2014/7
_shelx_space_group_comment
;
The symmetry employed for this shelxl refinement is uniquely defined
by the following loop, which should always be used as a source of
symmetry information in preference to the above space-group names.
They are only intended as comments.
;
_shelx_estimated_absorpt_t_min   0.735
_shelx_estimated_absorpt_t_max   0.883
_shelx_res_file
;

    save.res created by SHELXL-2014/7


TITL 20160615D2_0m_a.res in P4(2)/nbc
REM Old TITL 20160615D2_0m in P4(2)/nbc

REM SHELXT solution in P4(2)/nbc
REM R1 0.668,  Rweak 0.037,  Alpha 0.136,  Orientation as input
REM Formula found by SHELXT:  C40 N11 Ag2

CELL  0.71073  15.7842  15.7842  31.1440   90.000   90.000   90.000
ZERR  8.000   0.0026   0.0026   0.0051    0.000    0.000    0.000
LATT  1
SYMM 1/2-X, 1/2-Y, Z
SYMM 1/2-Y, X, 1/2+Z
SYMM Y, 1/2-X, 1/2+Z
SYMM 1/2-X, Y, -Z
SYMM X, 1/2-Y, -Z
SYMM Y, X, 1/2-Z
SYMM 1/2-Y, 1/2-X, 1/2-Z
SFAC C H N AG
UNIT 296 224 64 16
SIZE 0.122 0.156 0.314
L.S. 50 0   19
acta
BOND
OMIT 2 3 5
OMIT 0 4 2
OMIT 2 2 4
OMIT 0 4 0
OMIT 3 3 4
OMIT 1 4 14
OMIT 0 6 2
OMIT 0 0 4
OMIT 0 0 8
OMIT 1 2 5
OMIT 3 3 0
OMIT 1 7 4
OMIT 5 6 2
OMIT 1 5 0
OMIT 1 5 2
twin
FMAP 2
PLAN 20
ABIN
ACTA
WGHT    0.200000
BASF   9.99525
FVAR       0.61484
AG1   4    0.497885    0.497154    0.378811    11.00000    0.16638    0.11107 =
         0.05243    0.00732    0.03470    0.07752
N2    3    0.476741    0.615414    0.499680    11.00000    0.08150    0.05090 =
         0.04960    0.01460    0.01313    0.01699
N4    3    0.369615    0.977174    0.760997    11.00000    0.10606    0.06578 =
         0.04309   -0.00427    0.00079   -0.03539
C11   1    0.287558    0.816590    0.658755    11.00000    0.05017    0.04989 =
         0.03277    0.00351    0.00498   -0.00951
C3    1    0.398259    0.737800    0.594878    11.00000    0.06602    0.04087 =
         0.03398    0.00116   -0.00101    0.00069
AFIX  43
H3A   2    0.418950    0.777971    0.614041    11.00000   -1.20000
AFIX   0
C2    1    0.316153    0.711857    0.598141    11.00000    0.03932    0.04976 =
         0.01890    0.00086   -0.00119   -0.00111
C12   1    0.261534    0.900321    0.661709    11.00000    0.06945    0.03466 =
         0.04760   -0.00090    0.00326    0.00716
AFIX  43
H12A  2    0.222874    0.920610    0.641658    11.00000   -1.20000
AFIX   0
C7    1    0.290602    0.647279    0.570316    11.00000    0.04379    0.06517 =
         0.05190   -0.01688   -0.00131    0.00581
AFIX  43
H7A   2    0.236437    0.624715    0.573021    11.00000   -1.20000
AFIX   0
C4    1    0.451493    0.705394    0.563512    11.00000    0.06011    0.04816 =
         0.06159    0.01645    0.01560   -0.00290
AFIX  43
H4A   2    0.507414    0.723731    0.562066    11.00000   -1.20000
AFIX   0
C16   1    0.348774    0.789197    0.688723    11.00000    0.08368    0.04380 =
         0.02693    0.00019   -0.01241   -0.00245
AFIX  43
H16A  2    0.369800    0.734235    0.687230    11.00000   -1.20000
AFIX   0
C5    1    0.422373    0.646151    0.534375    11.00000    0.06006    0.04703 =
         0.02801    0.00382    0.00727    0.01020
C13   1    0.290769    0.955412    0.693409    11.00000    0.08300    0.05562 =
         0.05230   -0.00878   -0.00204   -0.01914
AFIX  43
H13A  2    0.272202    1.011275    0.694663    11.00000   -1.20000
AFIX   0
C8    1    0.447859    0.573721    0.465768    11.00000    0.09154    0.06333 =
         0.04790    0.01552    0.02540    0.02679
AFIX  43
H8A   2    0.392110    0.556098    0.462080    11.00000   -1.20000
AFIX   0
C14   1    0.349850    0.923364    0.723718    11.00000    0.08312    0.05408 =
         0.04053   -0.00981    0.00609   -0.01954
C1    1    0.250000    0.750000    0.628692    10.50000    0.03704    0.05694 =
         0.02602    0.00000    0.00000    0.00982
N3    3    0.426421    1.010459    0.822569    11.00000    0.12450    0.09583 =
         0.04263   -0.01536    0.00043   -0.06014
C19   1    0.429145    0.958646    0.788669    11.00000    0.09801    0.08325 =
         0.05224   -0.01224    0.00539   -0.04302
AFIX  43
H19A  2    0.468248    0.915107    0.785202    11.00000   -1.20000
AFIX   0
N1    3    0.509976    0.560768    0.437851    11.00000    0.11117    0.08527 =
         0.07087    0.01404    0.04737    0.04114
C6    1    0.343733    0.616308    0.539009    11.00000    0.06961    0.07017 =
         0.04190   -0.02112   -0.00223    0.01208
AFIX  43
H6A   2    0.324538    0.573828    0.520746    11.00000   -1.20000
AFIX   0
C9    1    0.557185    0.631409    0.495458    11.00000    0.08315    0.06029 =
         0.09299    0.00974    0.00880    0.03976
AFIX  43
H9A   2    0.592762    0.659875    0.514391    11.00000   -1.20000
AFIX   0
C15   1    0.377843    0.843909    0.720477    11.00000    0.09396    0.06280 =
         0.03387   -0.00098   -0.01527   -0.00898
AFIX  43
H15A  2    0.417963    0.824521    0.740014    11.00000   -1.20000
AFIX   0
C10   1    0.577789    0.594971    0.454962    11.00000    0.08348    0.10096 =
         0.11048    0.01345    0.05220    0.05063
AFIX  43
H10A  2    0.631331    0.595358    0.442499    11.00000   -1.20000
AFIX   0
C18   1    0.362225    1.064001    0.814444    11.00000    0.20424    0.09276 =
         0.05172   -0.02074   -0.01588   -0.03002
AFIX  43
H18A  2    0.346970    1.109173    0.831988    11.00000   -1.20000
AFIX   0
C17   1    0.320884    1.042448    0.775580    11.00000    0.16442    0.06448 =
         0.05842   -0.01674   -0.00806   -0.00866
AFIX  43
H17A  2    0.272965    1.066549    0.763224    11.00000   -1.20000

AFIX   0
HKLF 4

REM  20160615D2_0m_a.res in P4(2)/nbc
REM R1 =  0.0931 for    1959 Fo > 4sig(Fo)  and  0.1513 for all    4482 data
REM    214 parameters refined using      0 restraints

END

WGHT      0.2000      0.0000

REM Highest difference peak  1.037,  deepest hole -1.740,  1-sigma level  0.227
Q1    1   0.3542  1.1435  0.8500  11.00000  0.05    1.04
Q2    1   0.2500  0.7500  0.5000  10.25000  0.05    0.80
Q3    1   0.5677  0.5321  0.3908  11.00000  0.05    0.75
Q4    1   0.2500  0.7500  0.7500  10.25000  0.05    0.73
Q5    1   0.6318  0.6229  0.4178  11.00000  0.05    0.69
Q6    1   0.4830  0.4977  0.4939  11.00000  0.05    0.67
Q7    1   0.4605  1.0395  0.7500  10.50000  0.05    0.66
Q8    1   0.5000  0.5000  0.5000  10.50000  0.05    0.65
Q9    1   0.3954  0.5840  0.3731  11.00000  0.05    0.64
Q10   1   0.1069  0.8976  0.6298  11.00000  0.05    0.63
Q11   1   0.2659  1.0226  0.7629  11.00000  0.05    0.62
Q12   1   0.1165  0.8661  0.6393  11.00000  0.05    0.61
Q13   1   0.2744  1.0258  0.7305  11.00000  0.05    0.59
Q14   1   0.5223  0.7500  0.5000  10.50000  0.05    0.58
Q15   1   0.2487  1.0057  0.7429  11.00000  0.05    0.57
Q16   1   0.5113  0.6556  0.5035  11.00000  0.05    0.55
Q17   1   0.5025  0.9712  0.7415  11.00000  0.05    0.51
Q18   1   0.5171  0.9829  0.7500  10.50000  0.05    0.49
Q19   1   0.5018  0.9378  0.7882  11.00000  0.05    0.47
Q20   1   0.2867  0.8538  0.6588  11.00000  0.05    0.46
;
_shelx_res_checksum              39393
_shelx_hkl_file
;
   0   2   0  185840       1
   1   3   0     908      73
  -1   3   0    1076      75
   3   3   0    5127     243
   0   4   0    8348     950
   2   4   0   55900    5385
  -2   4   0   83711    5667
   4   4   0   30134     655
   1   5   0     571      23
  -1   5   0     568      23
   3   5   0      30      69
  -3   5   0      30      66
   5   5   0    2171      23
   0   6   0   29252     375
   2   6   0   50449    3868
  -2   6   0   46127    3579
   4   6   0   28344    1172
  -4   6   0   29530    1218
   6   6   0   16040     179
   1   7   0     114      28
  -1   7   0     241      29
   3   7   0     468      37
  -3   7   0     534      32
   5   7   0    4118     251
  -5   7   0    4413     258
   7   7   0    2584      66
   0   8   0   18011     182
   2   8   0   27191    1434
  -2   8   0   28335    1352
   4   8   0   17326     639
  -4   8   0   17889     694
   6   8   0    5348     191
  -6   8   0    5361     197
   8   8   0   12985     236
   1   9   0     157      18
  -1   9   0      30      17
   3   9   0      65      27
  -3   9   0      85      24
   5   9   0    2521     156
  -5   9   0    2913     169
   7   9   0   11631     435
  -7   9   0   12247     438
   9   9   0    3081      57
   0  10   0    4792      81
   2  10   0    7791     405
  -2  10   0    8206     366
   4  10   0   10998     465
  -4  10   0   11494     450
   6  10   0    8722     493
  -6  10   0   11758     485
   8  10   0    3004     152
  -8  10   0    3219     153
  10  10   0     204      15
   1  11   0      12      25
  -1  11   0       9      21
   3  11   0     932     112
  -3  11   0    1176     105
   5  11   0    3789     204
  -5  11   0    4671     221
   7  11   0     298      55
  -7  11   0     377      55
   9  11   0     409      61
  -9  11   0     404      60
  11  11   0    1035      33
   0  12   0    1420      29
   2  12   0    3446     168
  -2  12   0    3683     156
   4  12   0    2525     185
  -4  12   0    2676     182
   6  12   0     445      61
  -6  12   0     517      59
   8  12   0    3540     221
  -8  12   0    4076     210
  10  12   0     956     101
 -10  12   0     935      95
  12  12   0    1004      35
   1  13   0      40      29
  -1  13   0      27      28
   3  13   0    1415      85
  -3  13   0    1319      79
   5  13   0     553      87
  -5  13   0     552      78
   7  13   0    3460     225
  -7  13   0    4735     218
   9  13   0      88      54
  -9  13   0     441      53
  11  13   0     476      80
 -11  13   0     382      79
  13  13   0     414      26
   0  14   0    1937      38
   2  14   0    2474     173
  -2  14   0    2288     167
   4  14   0     214      55
  -4  14   0     547      60
   6  14   0    2529     182
  -6  14   0    3258     172
   8  14   0      73      57
  -8  14   0     129      60
  10  14   0     152      69
 -10  14   0     144      62
  12  14   0     327      89
 -12  14   0     492      85
  14  14   0     509      43
   1  15   0       5      64
  -1  15   0      29      59
   3  15   0       3      58
  -3  15   0       3      58
   5  15   0    1267     139
  -5  15   0    1621     142
   7  15   0     292      75
  -7  15   0     416      73
   9  15   0     121      79
  -9  15   0      82      75
  11  15   0      90      90
 -11  15   0     468      89
  13  15   0     537     130
 -13  15   0     406     133
   0  16   0     113      23
   2  16   0     350      85
  -2  16   0     526      94
   4  16   0     869     126
  -4  16   0     802     132
   6  16   0     557     108
  -6  16   0     615     103
   8  16   0     220      83
  -8  16   0     501      81
  10  16   0      40      86
 -10  16   0     367      85
  12  16   0       5     112
 -12  16   0     860     142
   1  17   0      11      72
  -1  17   0     161      69
   3  17   0      11      70
  -3  17   0     154      72
   5  17   0     223      84
  -5  17   0     189      83
   7  17   0      86      81
  -7  17   0     384      79
   9  17   0      25      82
  -9  17   0     135      81
  11  17   0     135      98
 -11  17   0     141      91
   0  18   0      38      26
   2  18   0       8      76
  -2  18   0     167      76
   4  18   0      96      80
  -4  18   0     112      84
   6  18   0     191     104
  -6  18   0     310      92
   8  18   0      31      83
  -8  18   0     248      82
   1  19   0       7      80
  -1  19   0     101      80
   3  19   0       1      80
  -3  19   0      58      82
   5  19   0      18      86
  -5  19   0     284      88
   7  19   0      29      86
  -7  19   0       5      85
   0  20   0     156      30
   2  20   0       2      86
  -2  20   0      60      85
   4  20   0      18      91
  -4  20   0     435      93
   0   2   1   13921      49
   1   2   1   21665     103
  -1   2   1   18111     146
   1   3   1     114      95
  -1   3   1     104      93
   2   3   1    5571     519
  -2   3   1    6060     532
   0   4   1   18961     246
   1   4   1    1841      57
  -1   4   1    2063      56
   2   4   1    5421      82
  -2   4   1    5402      82
   3   4   1      99      29
  -3   4   1     124      30
   1   5   1      11      21
  -1   5   1      15      20
   2   5   1    2928     193
  -2   5   1    3094     184
   3   5   1    1261      36
  -3   5   1    1458      36
   4   5   1     134      28
  -4   5   1      91      27
   0   6   1     270      27
   1   6   1     130      21
  -1   6   1      49      19
   2   6   1    1462      49
  -2   6   1    1800      49
   3   6   1    1471      28
  -3   6   1    1397      27
   4   6   1     162      17
  -4   6   1     188      19
   5   6   1      55      24
  -5   6   1      41      26
   1   7   1     567      27
  -1   7   1     700      25
   2   7   1      44      18
  -2   7   1      44      17
   3   7   1      79      12
  -3   7   1      74      12
   4   7   1    1894      63
  -4   7   1    2056      66
   5   7   1      54      18
  -5   7   1      48      18
   6   7   1       7      14
  -6   7   1       6      14
   0   8   1    3296      33
   1   8   1       1      13
  -1   8   1       1      11
   2   8   1       1      26
  -2   8   1       5      25
   3   8   1      99      12
  -3   8   1      65      13
   4   8   1     236      35
  -4   8   1     323      36
   5   8   1      62      16
  -5   8   1      77      17
   6   8   1      23      16
  -6   8   1      25      16
   7   8   1       0      17
  -7   8   1       1      17
   1   9   1       1      11
  -1   9   1      20      10
   2   9   1    1765      98
  -2   9   1    1855      90
   3   9   1     242      31
  -3   9   1     242      30
   4   9   1     481      33
  -4   9   1     454      33
   5   9   1      73      17
  -5   9   1      29      18
   6   9   1       3      17
  -6   9   1       4      18
   7   9   1       0      20
  -7   9   1      23      20
   8   9   1       1      19
  -8   9   1       0      19
   0  10   1     434       6
   1  10   1     882      36
  -1  10   1     898      33
   2  10   1     221      27
  -2  10   1     215      26
   3  10   1      46      15
  -3  10   1      10      14
   4  10   1      46      18
  -4  10   1       5      17
   5  10   1     350      35
  -5  10   1     267      36
   6  10   1     176      29
  -6  10   1     176      27
   7  10   1       6      21
  -7  10   1       2      20
   8  10   1       1      22
  -8  10   1       1      22
   9  10   1      33      25
  -9  10   1      35      25
   1  11   1      67      16
  -1  11   1      30      14
   2  11   1     186      26
  -2  11   1     264      23
   3  11   1     113      21
  -3  11   1      73      19
   4  11   1      13      20
  -4  11   1       4      19
   5  11   1       1      21
  -5  11   1      18      21
   6  11   1      83      24
  -6  11   1      34      24
   7  11   1      80      25
  -7  11   1      92      25
   8  11   1      41      25
  -8  11   1       3      25
   9  11   1       1      25
  -9  11   1      10      26
  10  11   1      89      31
 -10  11   1      93      30
   0  12   1       4       5
   1  12   1       0      18
  -1  12   1       3      16
   2  12   1      37      21
  -2  12   1      10      19
   3  12   1     356      39
  -3  12   1     572      38
   4  12   1      72      25
  -4  12   1      73      25
   5  12   1       0      26
  -5  12   1       3      26
   6  12   1      19      29
  -6  12   1      18      26
   7  12   1     408      45
  -7  12   1     516      44
   8  12   1      96      31
  -8  12   1      15      29
   9  12   1     160      33
  -9  12   1      41      31
  10  12   1      44      34
 -10  12   1      51      32
  11  12   1       5      32
 -11  12   1       5      33
   1  13   1      86      22
  -1  13   1      83      22
   2  13   1      38      23
  -2  13   1      64      21
   3  13   1      31      28
  -3  13   1      65      29
   4  13   1      30      28
  -4  13   1       1      25
   5  13   1       2      27
  -5  13   1      20      27
   6  13   1     183      39
  -6  13   1     319      39
   7  13   1       1      31
  -7  13   1      14      30
   8  13   1     382      52
  -8  13   1     382      52
   9  13   1      38      34
  -9  13   1      10      32
  10  13   1       3      34
 -10  13   1      16      33
  11  13   1      40      39
 -11  13   1       2      37
  12  13   1      19      41
 -12  13   1       1      40
   0  14   1     269       8
   1  14   1      36      22
  -1  14   1      78      22
   2  14   1     185      29
  -2  14   1     126      28
   3  14   1      69      31
  -3  14   1      91      28
   4  14   1     262      40
  -4  14   1     188      38
   5  14   1      92      37
  -5  14   1     201      34
   6  14   1      25      33
  -6  14   1      49      31
   7  14   1      24      37
  -7  14   1       8      34
   8  14   1      17      37
  -8  14   1      20      34
   9  14   1      61      40
  -9  14   1      19      37
  10  14   1      92      45
 -10  14   1      66      41
  11  14   1       9      47
 -11  14   1      75      44
  12  14   1       1      50
 -12  14   1       1      45
  13  14   1      30      56
 -13  14   1      14      52
   1  15   1      16      40
  -1  15   1       0      39
   2  15   1       9      39
  -2  15   1      24      36
   3  15   1      34      41
  -3  15   1      68      36
   4  15   1       5      41
  -4  15   1      26      38
   5  15   1      10      43
  -5  15   1      27      40
   6  15   1     139      44
  -6  15   1      56      40
   7  15   1      11      43
  -7  15   1     115      40
   8  15   1       2      45
  -8  15   1       9      42
   9  15   1     247      58
  -9  15   1     330      54
  10  15   1      10      51
 -10  15   1      30      47
  11  15   1      20      52
 -11  15   1      56      49
  12  15   1       3      56
 -12  15   1      99      57
  13  15   1       6      66
 -13  15   1     152      68
   0  16   1      21      16
   1  16   1      44      46
  -1  16   1     154      47
   2  16   1      85      47
  -2  16   1     130      48
   3  16   1      64      50
  -3  16   1     233      51
   4  16   1      40      47
  -4  16   1      33      46
   5  16   1     204      55
  -5  16   1     298      56
   6  16   1      60      48
  -6  16   1     153      47
   7  16   1      25      53
  -7  16   1     226      51
   8  16   1      78      56
  -8  16   1     221      53
   9  16   1      22      54
  -9  16   1     129      52
  10  16   1      50      56
 -10  16   1      37      55
  11  16   1      18      58
 -11  16   1      80      57
  12  16   1      21      64
 -12  16   1     157      60
   1  17   1       1      48
  -1  17   1      35      48
   2  17   1      10      48
  -2  17   1      95      48
   3  17   1       6      48
  -3  17   1      59      49
   4  17   1       2      51
  -4  17   1      62      50
   5  17   1       8      50
  -5  17   1      95      50
   6  17   1      74      55
  -6  17   1     173      53
   7  17   1      87      55
  -7  17   1     253      53
   8  17   1      11      54
  -8  17   1      82      52
   9  17   1      10      58
  -9  17   1     175      57
  10  17   1      22      62
 -10  17   1      23      62
  11  17   1      10      70
 -11  17   1      95      66
   0  18   1      48      17
   1  18   1      12      52
  -1  18   1      97      52
   2  18   1      16      52
  -2  18   1      86      52
   3  18   1       5      53
  -3  18   1       5      53
   4  18   1       5      52
  -4  18   1      58      52
   5  18   1      46      54
  -5  18   1     303      54
   6  18   1      88      57
  -6  18   1     131      55
   7  18   1      10      57
  -7  18   1     112      55
   8  18   1      28      60
  -8  18   1     221      58
   9  18   1      11      64
  -9  18   1     166      64
   1  19   1      50      55
  -1  19   1       9      55
   2  19   1       8      55
  -2  19   1      27      56
   3  19   1      17      55
  -3  19   1      20      55
   4  19   1       2      56
  -4  19   1      29      56
   5  19   1      10      59
  -5  19   1      56      62
   6  19   1      17      60
  -6  19   1     129      61
   7  19   1      13      62
  -7  19   1      79      59
   0  20   1      65      20
   1  20   1      55      61
  -1  20   1       2      60
   2  20   1      12      61
  -2  20   1      28      60
   3  20   1       0      61
  -3  20   1      66      61
   4  20   1      10      62
  -4  20   1     135      62
   1   1   2     451       8
   0   2   2    3867      46
   1   2   2    1533      15
  -1   2   2    1459      16
   2   2   2    4589       7
   1   3   2      75       6
  -1   3   2     133       6
   2   3   2     346       5
  -2   3   2     380       5
   3   3   2    2564       3
   0   4   2    3997      12
   1   4   2     649       6
  -1   4   2     814       6
   2   4   2     276       6
  -2   4   2     276       6
   3   4   2     410      10
  -3   4   2     426      10
   4   4   2     681       2
   1   5   2    1362      29
  -1   5   2    1256      27
   2   5   2      12       7
  -2   5   2       6       7
   3   5   2     160      15
  -3   5   2     169      14
   4   5   2     408      26
  -4   5   2     369      25
   5   5   2     235       5
   0   6   2    3889      20
   1   6   2     123      12
  -1   6   2     147      12
   2   6   2      28       8
  -2   6   2      74       7
   3   6   2     307      13
  -3   6   2     246      13
   4   6   2     406      17
  -4   6   2     487      18
   5   6   2     409      27
  -5   6   2     383      25
   6   6   2     174       6
   1   7   2      98      10
  -1   7   2     100       9
   2   7   2      59      12
  -2   7   2      36      11
   3   7   2      41      10
  -3   7   2      55      10
   4   7   2      24      13
  -4   7   2       5      12
   5   7   2      12      14
  -5   7   2       4      13
   6   7   2      17      14
  -6   7   2      17      15
   7   7   2       1       5
   0   8   2     270       3
   1   8   2     121      20
  -1   8   2     153      19
   2   8   2     110      15
  -2   8   2     117      13
   3   8   2     121      12
  -3   8   2     148      13
   4   8   2     341      30
  -4   8   2     405      32
   5   8   2      13      16
  -5   8   2       4      16
   6   8   2     138      22
  -6   8   2     182      24
   7   8   2      30      17
  -7   8   2       3      17
   8   8   2       5       7
   1   9   2       0      11
  -1   9   2       1      10
   2   9   2      33      17
  -2   9   2      35      16
   3   9   2      70      13
  -3   9   2      32      13
   4   9   2     242      14
  -4   9   2     108      14
   5   9   2      98      17
  -5   9   2      17      16
   6   9   2      10      18
  -6   9   2       8      18
   7   9   2      85      23
  -7   9   2     152      24
   8   9   2       3      19
  -8   9   2       4      19
   9   9   2     172       8
   0  10   2     440       6
   1  10   2      28      14
  -1  10   2      36      14
   2  10   2      45      19
  -2  10   2      36      18
   3  10   2      28      15
  -3  10   2      12      15
   4  10   2      85      19
  -4  10   2      79      19
   5  10   2       9      17
  -5  10   2       4      17
   6  10   2      23      20
  -6  10   2      38      21
   7  10   2      10      21
  -7  10   2      12      22
   8  10   2       2      22
  -8  10   2      24      23
   9  10   2      12      24
  -9  10   2       4      24
  10  10   2       1       8
   1  11   2       2      16
  -1  11   2       8      14
   2  11   2       0      15
  -2  11   2      17      13
   3  11   2       9      17
  -3  11   2       1      17
   4  11   2       4      20
  -4  11   2       5      20
   5  11   2       6      22
  -5  11   2       9      22
   6  11   2      15      22
  -6  11   2       0      22
   7  11   2       8      23
  -7  11   2       8      22
   8  11   2      10      25
  -8  11   2      11      24
   9  11   2      39      27
  -9  11   2      18      26
  10  11   2      10      28
 -10  11   2      28      28
  11  11   2       6      10
   0  12   2       1       5
   1  12   2      24      15
  -1  12   2       9      14
   2  12   2       0      19
  -2  12   2       1      17
   3  12   2       3      24
  -3  12   2       4      25
   4  12   2       5      25
  -4  12   2      10      23
   5  12   2      53      25
  -5  12   2      39      25
   6  12   2       2      24
  -6  12   2       1      24
   7  12   2      61      30
  -7  12   2      95      29
   8  12   2       6      29
  -8  12   2       6      27
   9  12   2       7      30
  -9  12   2       6      29
  10  12   2       4      32
 -10  12   2       5      31
  11  12   2       4      35
 -11  12   2       4      34
  12  12   2       0      12
   1  13   2       0      20
  -1  13   2      18      21
   2  13   2       4      25
  -2  13   2      42      28
   3  13   2      34      27
  -3  13   2       4      26
   4  13   2      37      25
  -4  13   2       7      24
   5  13   2       7      27
  -5  13   2       7      28
   6  13   2       3      28
  -6  13   2      19      27
   7  13   2      12      31
  -7  13   2      43      29
   8  13   2      23      32
  -8  13   2       0      31
   9  13   2      10      34
  -9  13   2      78      33
  10  13   2      12      35
 -10  13   2       5      34
  11  13   2      13      38
 -11  13   2      13      37
  12  13   2      23      43
 -12  13   2      21      41
  13  13   2       2      16
   0  14   2      60      12
   1  14   2      19      32
  -1  14   2      49      27
   2  14   2      41      30
  -2  14   2       2      26
   3  14   2      21      30
  -3  14   2       0      26
   4  14   2       4      31
  -4  14   2       1      28
   5  14   2       1      32
  -5  14   2       3      30
   6  14   2       1      36
  -6  14   2     111      34
   7  14   2     159      37
  -7  14   2      32      34
   8  14   2       0      38
  -8  14   2      17      35
   9  14   2      57      39
  -9  14   2       1      36
  10  14   2      13      42
 -10  14   2      13      39
  11  14   2       0      44
 -11  14   2      47      43
  12  14   2       7      47
 -12  14   2      10      45
  13  14   2      23      56
 -13  14   2       3      51
  14  14   2      36      26
   1  15   2      37      31
  -1  15   2       3      30
   2  15   2      14      33
  -2  15   2       1      30
   3  15   2       5      34
  -3  15   2       4      31
   4  15   2       1      36
  -4  15   2       9      32
   5  15   2       7      40
  -5  15   2       0      38
   6  15   2      66      43
  -6  15   2      10      40
   7  15   2       1      44
  -7  15   2      44      41
   8  15   2      20      47
  -8  15   2      19      44
   9  15   2       1      49
  -9  15   2       6      44
  10  15   2      35      50
 -10  15   2      31      46
  11  15   2       6      52
 -11  15   2      25      50
  12  15   2       0      60
 -12  15   2       2      54
  13  15   2      45      64
 -13  15   2      21      63
   0  16   2     171      15
   1  16   2       0      44
  -1  16   2      66      45
   2  16   2      88      45
  -2  16   2      10      45
   3  16   2      84      44
  -3  16   2      23      45
   4  16   2      27      45
  -4  16   2      65      46
   5  16   2       5      47
  -5  16   2      83      47
   6  16   2       3      47
  -6  16   2      31      46
   7  16   2      40      50
  -7  16   2      43      48
   8  16   2       1      50
  -8  16   2      68      49
   9  16   2       1      52
  -9  16   2      48      51
  10  16   2       3      54
 -10  16   2       1      54
  11  16   2       0      60
 -11  16   2       1      57
  12  16   2      26      63
 -12  16   2       1      62
   1  17   2       0      47
  -1  17   2      21      47
   2  17   2       9      47
  -2  17   2      57      48
   3  17   2      18      48
  -3  17   2     144      49
   4  17   2       1      48
  -4  17   2      25      48
   5  17   2       1      50
  -5  17   2      50      50
   6  17   2       0      51
  -6  17   2      46      50
   7  17   2      99      54
  -7  17   2      22      51
   8  17   2       9      58
  -8  17   2       3      54
   9  17   2       2      58
  -9  17   2      31      56
  10  17   2       2      62
 -10  17   2     145      60
  11  17   2       0      63
 -11  17   2      89      63
   0  18   2      13      17
   1  18   2      20      51
  -1  18   2       5      51
   2  18   2       0      52
  -2  18   2      15      52
   3  18   2       8      54
  -3  18   2       2      57
   4  18   2       3      52
  -4  18   2       5      52
   5  18   2       1      54
  -5  18   2      28      54
   6  18   2      57      56
  -6  18   2      77      54
   7  18   2       0      56
  -7  18   2      82      55
   8  18   2      55      62
  -8  18   2      54      59
   9  18   2      27      64
  -9  18   2     161      62
   1  19   2       0      58
  -1  19   2      17      56
   2  19   2       8      57
  -2  19   2      48      62
   3  19   2      10      55
  -3  19   2       4      56
   4  19   2      10      56
  -4  19   2       8      56
   5  19   2      19      58
  -5  19   2       1      58
   6  19   2       4      61
  -6  19   2      48      57
   7  19   2       4      63
  -7  19   2      55      60
   0  20   2       1      20
   1  20   2       0      61
  -1  20   2      42      62
   2  20   2       0      60
  -2  20   2       5      61
   3  20   2       1      62
  -3  20   2      69      61
   4  20   2       0      65
  -4  20   2     166      64
   0   2   3    7753      68
   1   2   3   17437      40
  -1   2   3   17581      42
   1   3   3    1948      40
  -1   3   3    1932      41
   2   3   3    1081     218
  -2   3   3    1317     227
   0   4   3    2971      24
   1   4   3    2106     132
  -1   4   3    1995     131
   2   4   3     478      16
  -2   4   3     360      14
   3   4   3      10       6
  -3   4   3      10       6
   1   5   3    4485     109
  -1   5   3    4280     105
   2   5   3     175       8
  -2   5   3     204       8
   3   5   3    1025      59
  -3   5   3    1045      57
   4   5   3     340      22
  -4   5   3     320      21
   0   6   3      27       5
   1   6   3     755      58
  -1   6   3     695      55
   2   6   3     566      21
  -2   6   3     649      20
   3   6   3     143       8
  -3   6   3     219       8
   4   6   3      85      12
  -4   6   3      43      11
   5   6   3     348      19
  -5   6   3     265      18
   1   7   3    1514      77
  -1   7   3    1474      72
   2   7   3     252       9
  -2   7   3     319       9
   3   7   3      23      19
  -3   7   3      19      18
   4   7   3     107      15
  -4   7   3      43      14
   5   7   3     553      40
  -5   7   3     719      39
   6   7   3      58      16
  -6   7   3      41      16
   0   8   3    4374      47
   1   8   3      83      12
  -1   8   3     120      11
   2   8   3      26      13
  -2   8   3      36      12
   3   8   3     194      21
  -3   8   3     110      17
   4   8   3     325      29
  -4   8   3     456      29
   5   8   3     171      14
  -5   8   3     104      14
   6   8   3       0      17
  -6   8   3       0      17
   7   8   3     111      21
  -7   8   3     167      23
   1   9   3     386      21
  -1   9   3     396      20
   2   9   3      72      13
  -2   9   3      27      12
   3   9   3     150      20
  -3   9   3     104      20
   4   9   3      29      16
  -4   9   3       5      18
   5   9   3      88      17
  -5   9   3      12      16
   6   9   3      13      20
  -6   9   3       7      20
   7   9   3       2      18
  -7   9   3       2      19
   8   9   3     167      24
  -8   9   3     187      24
   0  10   3     265       9
   1  10   3    1287      58
  -1  10   3    1218      54
   2  10   3      24      14
  -2  10   3      24      14
   3  10   3       7      14
  -3  10   3      11      14
   4  10   3     125      22
  -4  10   3     170      23
   5  10   3      61      20
  -5  10   3      47      19
   6  10   3       6      19
  -6  10   3      18      19
   7  10   3      13      20
  -7  10   3      16      20
   8  10   3      53      24
  -8  10   3      80      24
   9  10   3     114      28
  -9  10   3      97      28
   1  11   3      20      14
  -1  11   3       0      14
   2  11   3     158      18
  -2  11   3     165      18
   3  11   3      22      18
  -3  11   3      62      21
   4  11   3     140      20
  -4  11   3     124      19
   5  11   3       4      20
  -5  11   3      15      20
   6  11   3      73      25
  -6  11   3      63      28
   7  11   3     412      42
  -7  11   3     529      41
   8  11   3     178      32
  -8  11   3     183      30
   9  11   3     131      34
  -9  11   3     152      33
  10  11   3      14      28
 -10  11   3       3      28
   0  12   3     746      15
   1  12   3     223      28
  -1  12   3     221      27
   2  12   3     364      34
  -2  12   3     416      37
   3  12   3     456      41
  -3  12   3     325      42
   4  12   3     149      30
  -4  12   3     118      26
   5  12   3      50      22
  -5  12   3      29      23
   6  12   3     174      31
  -6  12   3     228      31
   7  12   3     506      52
  -7  12   3     618      49
   8  12   3      57      31
  -8  12   3     133      30
   9  12   3       3      30
  -9  12   3      39      29
  10  12   3      32      33
 -10  12   3      13      32
  11  12   3       0      34
 -11  12   3       1      33
   1  13   3     129      28
  -1  13   3      25      23
   2  13   3      67      22
  -2  13   3      46      22
   3  13   3      63      24
  -3  13   3      14      22
   4  13   3      87      26
  -4  13   3       5      24
   5  13   3       1      26
  -5  13   3       1      24
   6  13   3      19      28
  -6  13   3      32      27
   7  13   3      90      36
  -7  13   3     315      35
   8  13   3      49      33
  -8  13   3       1      32
   9  13   3       4      34
  -9  13   3      25      32
  10  13   3      40      35
 -10  13   3      21      34
  11  13   3      20      42
 -11  13   3      15      39
  12  13   3       4      43
 -12  13   3       7      41
   0  14   3       2      10
   1  14   3      90      34
  -1  14   3     135      32
   2  14   3      79      34
  -2  14   3     157      33
   3  14   3       5      30
  -3  14   3      24      28
   4  14   3      41      32
  -4  14   3      16      30
   5  14   3      11      36
  -5  14   3     139      36
   6  14   3     423      55
  -6  14   3     559      52
   7  14   3      94      41
  -7  14   3     205      38
   8  14   3     205      42
  -8  14   3     188      39
   9  14   3      72      42
  -9  14   3     213      39
  10  14   3       9      42
 -10  14   3       8      39
  11  14   3       1      45
 -11  14   3       0      43
  12  14   3      30      49
 -12  14   3      53      48
  13  14   3       2      58
 -13  14   3       2      57
   1  15   3      32      30
  -1  15   3       4      30
   2  15   3      10      33
  -2  15   3      16      31
   3  15   3       3      34
  -3  15   3      37      32
   4  15   3       2      36
  -4  15   3      50      33
   5  15   3     311      59
  -5  15   3     318      59
   6  15   3      92      42
  -6  15   3     132      44
   7  15   3      65      42
  -7  15   3     136      41
   8  15   3       2      46
  -8  15   3      72      43
   9  15   3      84      51
  -9  15   3      47      46
  10  15   3      22      51
 -10  15   3       0      48
  11  15   3      21      54
 -11  15   3      80      50
  12  15   3       0      60
 -12  15   3      16      56
  13  15   3       6      63
 -13  15   3      72      63
   0  16   3       0      15
   1  16   3      26      44
  -1  16   3      10      44
   2  16   3       0      43
  -2  16   3      30      44
   3  16   3       7      44
  -3  16   3      69      45
   4  16   3      29      46
  -4  16   3     129      47
   5  16   3      77      51
  -5  16   3     282      52
   6  16   3      10      47
  -6  16   3     112      47
   7  16   3       5      50
  -7  16   3       4      48
   8  16   3      21      51
  -8  16   3     155      50
   9  16   3       0      52
  -9  16   3       7      51
  10  16   3      10      59
 -10  16   3     125      59
  11  16   3       4      62
 -11  16   3      30      59
  12  16   3      26      67
 -12  16   3      88      71
   1  17   3       0      48
  -1  17   3       0      48
   2  17   3       0      47
  -2  17   3      85      48
   3  17   3       2      48
  -3  17   3      54      50
   4  17   3     161      51
  -4  17   3      21      50
   5  17   3      30      50
  -5  17   3     193      51
   6  17   3      26      51
  -6  17   3      76      49
   7  17   3       3      52
  -7  17   3      66      51
   8  17   3      33      55
  -8  17   3      68      53
   9  17   3      13      60
  -9  17   3     112      56
  10  17   3       0      62
 -10  17   3      87      60
  11  17   3      10      66
 -11  17   3     125      68
   0  18   3      26      17
   1  18   3      18      51
  -1  18   3     107      51
   2  18   3      21      52
  -2  18   3      21      52
   3  18   3       5      52
  -3  18   3       4      52
   4  18   3       1      52
  -4  18   3      24      52
   5  18   3      29      55
  -5  18   3      37      54
   6  18   3      21      54
  -6  18   3       8      52
   7  18   3      12      60
  -7  18   3     142      59
   8  18   3      30      61
  -8  18   3     206      59
   9  18   3      25      63
  -9  18   3     113      60
   1  19   3       3      54
  -1  19   3      51      55
   2  19   3      30      55
  -2  19   3     226      56
   3  19   3      33      57
  -3  19   3      35      56
   4  19   3       2      59
  -4  19   3      91      58
   5  19   3       1      62
  -5  19   3      39      60
   6  19   3     118      66
  -6  19   3      79      62
   7  19   3      13      64
  -7  19   3     243      61
   0  20   3      53      20
   1  20   3      71      63
  -1  20   3      27      65
   2  20   3       1      60
  -2  20   3     107      61
   3  20   3       6      67
  -3  20   3     146      65
   4  20   3      10      65
  -4  20   3     119      64
   0   0   4    6835       1
   1   1   4    1996      32
   0   2   4    2231     176
   1   2   4    2378      27
  -1   2   4    2489      28
   2   2   4   21424       2
   1   3   4     437     457
  -1   3   4     819     457
   3   3   4   51230     100
   0   4   4   29938       5
   1   4   4   21983     225
  -1   4   4   21679     221
   3   4   4    4508     185
  -3   4   4    4606     183
   4   4   4   64583     568
   1   5   4    2346      43
  -1   5   4    2227      40
   2   5   4     833     118
  -2   5   4     815     111
   3   5   4    1446      60
  -3   5   4    1472      60
   4   5   4     532      17
  -4   5   4     437      17
   5   5   4    4458      25
   0   6   4   26137     449
   1   6   4    1768      33
  -1   6   4    1865      31
   2   6   4   49074    1609
  -2   6   4   47887    1510
   3   6   4    2527      88
  -3   6   4    2578      89
   4   6   4   38746     999
  -4   6   4   41503    1012
   5   6   4    1330      63
  -5   6   4    1413      63
   6   6   4   39695     366
   1   7   4    4005     137
  -1   7   4    3930     125
   2   7   4     435      20
  -2   7   4     468      21
   3   7   4    5095     270
  -3   7   4    5507     275
   4   7   4     687      31
  -4   7   4     737      30
   5   7   4    7020     222
  -5   7   4    8170     226
   6   7   4      45      20
  -6   7   4     110      20
   7   7   4      47       7
   0   8   4   20453     209
   1   8   4       5      15
  -1   8   4       1      12
   2   8   4   19002     592
  -2   8   4   21901     613
   3   8   4     345      22
  -3   8   4     259      22
   4   8   4   12541     426
  -4   8   4   12701     421
   5   8   4      62      29
  -5   8   4     118      31
   6   8   4    6310     184
  -6   8   4    7338     196
   7   8   4     800      55
  -7   8   4     993      60
   8   8   4    7159      83
   1   9   4    1642      56
  -1   9   4    1635      55
   2   9   4     669      35
  -2   9   4     663      34
   3   9   4    2073      79
  -3   9   4    2136      79
   4   9   4     235      13
  -4   9   4     102      12
   5   9   4    1440      73
  -5   9   4    1519      71
   6   9   4      60      18
  -6   9   4     108      18
   7   9   4    2205      87
  -7   9   4    2463      89
   8   9   4     700      41
  -8   9   4     856      41
   9   9   4    1606      24
   0  10   4   17124     165
   1  10   4     972      45
  -1  10   4     933      46
   2  10   4    7127     211
  -2  10   4    7544     199
   3  10   4     390      29
  -3  10   4     332      29
   4  10   4    6083     243
  -4  10   4    6860     239
   5  10   4     183      21
  -5  10   4     192      20
   6  10   4    4720     147
  -6  10   4    5005     141
   7  10   4      14      24
  -7  10   4       0      25
   8  10   4    2114      92
  -8  10   4    2112      92
   9  10   4      49      26
  -9  10   4      46      27
  10  10   4    2752      36
   1  11   4     100      17
  -1  11   4     103      18
   2  11   4     136      17
  -2  11   4     128      18
   3  11   4    1098      42
  -3  11   4    1085      42
   4  11   4      16      17
  -4  11   4      23      18
   5  11   4    1137      71
  -5  11   4    1413      71
   6  11   4       1      21
  -6  11   4       6      20
   7  11   4     809      49
  -7  11   4     958      48
   8  11   4      57      28
  -8  11   4      24      27
   9  11   4    2650     107
  -9  11   4    2630     104
  10  11   4      87      28
 -10  11   4      16      28
  11  11   4    1560      28
   0  12   4    5053      63
   1  12   4       8      18
  -1  12   4      19      21
   2  12   4    3069     133
  -2  12   4    3351     128
   3  12   4     502      43
  -3  12   4     447      45
   4  12   4    4505     158
  -4  12   4    4491     154
   5  12   4     170      28
  -5  12   4     172      28
   6  12   4    1016      69
  -6  12   4    1279      78
   7  12   4       1      26
  -7  12   4      13      26
   8  12   4    2263     108
  -8  12   4    2558     105
   9  12   4       0      31
  -9  12   4       1      29
  10  12   4    1258      78
 -10  12   4    1344      75
  11  12   4       1      34
 -11  12   4       2      33
  12  12   4     983      25
   1  13   4      64      24
  -1  13   4      20      22
   2  13   4      38      22
  -2  13   4      67      22
   3  13   4     980      60
  -3  13   4     944      58
   4  13   4      75      26
  -4  13   4     166      25
   5  13   4      22      27
  -5  13   4      77      26
   6  13   4      56      32
  -6  13   4     204      32
   7  13   4    1659      92
  -7  13   4    2058      86
   8  13   4      13      34
  -8  13   4      34      31
   9  13   4     796      74
  -9  13   4     853      67
  10  13   4      43      41
 -10  13   4       1      37
  11  13   4    1016      86
 -11  13   4    1069      80
  12  13   4      18      45
 -12  13   4      79      42
  13  13   4     187      18
   0  14   4     275      15
   1  14   4       8      30
  -1  14   4      66      29
   2  14   4    1238      75
  -2  14   4    1289      72
   3  14   4       9      33
  -3  14   4     176      33
   4  14   4     445      64
  -4  14   4     521      64
   5  14   4     227      42
  -5  14   4     284      39
   6  14   4    1525     100
  -6  14   4    1699      98
   7  14   4       1      36
  -7  14   4      53      35
   8  14   4     530      66
  -8  14   4     530      62
   9  14   4     118      44
  -9  14   4     127      42
  10  14   4     914      91
 -10  14   4    1321      85
  11  14   4      84      47
 -11  14   4      15      45
  12  14   4     248      61
 -12  14   4     312      56
  13  14   4      27      57
 -13  14   4      99      59
  14  14   4      93      24
   1  15   4     249      38
  -1  15   4     220      38
   2  15   4       2      33
  -2  15   4      18      31
   3  15   4     161      40
  -3  15   4     165      37
   4  15   4      30      37
  -4  15   4      40      34
   5  15   4     202      50
  -5  15   4     437      50
   6  15   4       2      38
  -6  15   4      15      38
   7  15   4      23      40
  -7  15   4     136      40
   8  15   4     108      44
  -8  15   4     251      43
   9  15   4     544      84
  -9  15   4     900      80
  10  15   4       7      50
 -10  15   4       7      46
  11  15   4     149      74
 -11  15   4     665      76
  12  15   4      11      62
 -12  15   4      43      62
  13  15   4      14      67
 -13  15   4     195      66
   0  16   4     324      18
   1  16   4      45      44
  -1  16   4      18      43
   2  16   4     150      51
  -2  16   4     212      50
   3  16   4      12      44
  -3  16   4      14      43
   4  16   4     107      48
  -4  16   4      42      47
   5  16   4       8      47
  -5  16   4      43      46
   6  16   4      72      49
  -6  16   4      19      48
   7  16   4       2      48
  -7  16   4      46      47
   8  16   4     460      79
  -8  16   4     660      72
   9  16   4       5      56
  -9  16   4     157      53
  10  16   4     193      90
 -10  16   4    1034      94
  11  16   4      39      64
 -11  16   4       1      63
  12  16   4     116      71
 -12  16   4     119      76
   1  17   4      52      47
  -1  17   4      14      47
   2  17   4      18      49
  -2  17   4     205      50
   3  17   4      20      49
  -3  17   4     155      50
   4  17   4       2      49
  -4  17   4      46      49
   5  17   4       7      50
  -5  17   4      80      51
   6  17   4       3      52
  -6  17   4      30      50
   7  17   4     190      62
  -7  17   4     337      61
   8  17   4      23      59
  -8  17   4      53      54
   9  17   4     200      75
  -9  17   4     418      68
  10  17   4      76      72
 -10  17   4      39      69
  11  17   4      18      70
 -11  17   4     243      70
   0  18   4      92      18
   1  18   4      15      52
  -1  18   4     117      52
   2  18   4     192      55
  -2  18   4     120      55
   3  18   4       3      53
  -3  18   4     114      55
   4  18   4      79      53
  -4  18   4      10      53
   5  18   4      43      55
  -5  18   4      76      56
   6  18   4      64      60
  -6  18   4     170      56
   7  18   4       6      59
  -7  18   4       4      55
   8  18   4      16      64
  -8  18   4     323      63
   9  18   4      23      65
  -9  18   4     176      67
   1  19   4      29      57
  -1  19   4     109      57
   2  19   4      20      57
  -2  19   4     188      57
   3  19   4       1      58
  -3  19   4      45      61
   4  19   4      25      59
  -4  19   4     173      59
   5  19   4      13      61
  -5  19   4     142      60
   6  19   4      10      63
  -6  19   4      96      59
   7  19   4      35      65
  -7  19   4     135      62
   0  20   4     112      21
   1  20   4      37      61
  -1  20   4      43      63
   2  20   4       2      63
  -2  20   4     146      63
   3  20   4      10      66
  -3  20   4     107      64
   4  20   4      50      90
  -4  20   4     211      87
   0   2   5     249      21
   1   2   5    6658       5
  -1   2   5    6831       5
   1   3   5    7270     225
  -1   3   5    7641     232
   2   3   5    3168      17
  -2   3   5    3249      18
   0   4   5   24836     287
   1   4   5   14697     563
  -1   4   5   15644     559
   2   4   5   13893     297
  -2   4   5   13745     303
   3   4   5    2409      91
  -3   4   5    2437      90
   1   5   5    3132     231
  -1   5   5    3026     226
   2   5   5    4848     137
  -2   5   5    4808     129
   3   5   5     647      25
  -3   5   5     544      25
   4   5   5    1069      15
  -4   5   5    1078      15
   0   6   5     741       3
   1   6   5    3785     109
  -1   6   5    3628     105
   2   6   5     100      19
  -2   6   5       1      20
   3   6   5       0       8
  -3   6   5       0       8
   4   6   5    1818      37
  -4   6   5    1592      39
   5   6   5    1540      28
  -5   6   5    1650      28
   1   7   5     289      21
  -1   7   5     344      21
   2   7   5    2434      93
  -2   7   5    2514      96
   3   7   5     178      15
  -3   7   5      72      13
   4   7   5       3      24
  -4   7   5       9      22
   5   7   5     678      62
  -5   7   5     845      66
   6   7   5     827      60
  -6   7   5     903      60
   0   8   5    1068      16
   1   8   5      45      16
  -1   8   5      96      16
   2   8   5     679      27
  -2   8   5     567      25
   3   8   5     330      20
  -3   8   5     326      20
   4   8   5      33      13
  -4   8   5       0      13
   5   8   5       4      15
  -5   8   5       5      15
   6   8   5       5      17
  -6   8   5       0      17
   7   8   5     261      31
  -7   8   5     370      33
   1   9   5    1474      62
  -1   9   5    1493      58
   2   9   5     678      47
  -2   9   5     609      42
   3   9   5      61      12
  -3   9   5      86      13
   4   9   5     126      18
  -4   9   5     142      17
   5   9   5      29      18
  -5   9   5      40      18
   6   9   5     116      22
  -6   9   5      41      21
   7   9   5     397      32
  -7   9   5     508      33
   8   9   5     133      25
  -8   9   5     117      25
   0  10   5     399      15
   1  10   5      94      19
  -1  10   5      30      19
   2  10   5     706      45
  -2  10   5     637      41
   3  10   5      70      15
  -3  10   5      28      15
   4  10   5     197      31
  -4  10   5     170      30
   5  10   5      81      18
  -5  10   5      47      18
   6  10   5     223      32
  -6  10   5     252      31
   7  10   5     118      27
  -7  10   5     103      28
   8  10   5     179      29
  -8  10   5     191      29
   9  10   5      77      28
  -9  10   5       2      25
   1  11   5      63      23
  -1  11   5      10      22
   2  11   5      98      21
  -2  11   5      54      18
   3  11   5     108      16
  -3  11   5      89      17
   4  11   5      37      19
  -4  11   5      93      20
   5  11   5     244      35
  -5  11   5     327      36
   6  11   5     128      29
  -6  11   5     148      27
   7  11   5       9      23
  -7  11   5      31      23
   8  11   5      82      26
  -8  11   5      59      25
   9  11   5       5      28
  -9  11   5       5      27
  10  11   5       5      28
 -10  11   5       6      28
   0  12   5     102       8
   1  12   5      66      28
  -1  12   5     169      28
   2  12   5     140      28
  -2  12   5     167      26
   3  12   5     443      38
  -3  12   5     387      36
   4  12   5      26      23
  -4  12   5      60      23
   5  12   5      65      23
  -5  12   5      40      23
   6  12   5     134      26
  -6  12   5      82      25
   7  12   5      23      25
  -7  12   5      38      25
   8  12   5      44      34
  -8  12   5     246      36
   9  12   5       0      30
  -9  12   5       0      29
  10  12   5       8      33
 -10  12   5       4      32
  11  12   5      49      36
 -11  12   5      24      35
   1  13   5      16      25
  -1  13   5      52      25
   2  13   5      51      29
  -2  13   5     164      29
   3  13   5     115      27
  -3  13   5      61      25
   4  13   5     138      31
  -4  13   5      63      27
   5  13   5     591      61
  -5  13   5     718      56
   6  13   5      98      39
  -6  13   5     129      37
   7  13   5     112      38
  -7  13   5     152      36
   8  13   5      34      37
  -8  13   5      14      33
   9  13   5       6      36
  -9  13   5      16      33
  10  13   5      36      41
 -10  13   5      76      39
  11  13   5       9      42
 -11  13   5       4      39
  12  13   5      13      45
 -12  13   5      35      42
   0  14   5     324      14
   1  14   5     455      53
  -1  14   5     472      52
   2  14   5       4      33
  -2  14   5      83      33
   3  14   5       8      32
  -3  14   5       7      32
   4  14   5     783      64
  -4  14   5     758      60
   5  14   5      12      34
  -5  14   5     110      31
   6  14   5      81      40
  -6  14   5     203      41
   7  14   5      95      38
  -7  14   5      30      36
   8  14   5       1      38
  -8  14   5       1      36
   9  14   5      17      41
  -9  14   5      37      39
  10  14   5       7      44
 -10  14   5      29      42
  11  14   5      11      48
 -11  14   5      12      45
  12  14   5      10      54
 -12  14   5      56      56
  13  14   5       6      57
 -13  14   5       8      58
   1  15   5      51      36
  -1  15   5      75      34
   2  15   5       5      34
  -2  15   5      39      32
   3  15   5     262      46
  -3  15   5     252      44
   4  15   5      59      37
  -4  15   5      68      35
   5  15   5       3      37
  -5  15   5      21      36
   6  15   5       5      38
  -6  15   5      38      38
   7  15   5       1      40
  -7  15   5       2      39
   8  15   5       3      41
  -8  15   5      30      40
   9  15   5      46      46
  -9  15   5     130      45
  10  15   5       1      48
 -10  15   5      82      46
  11  15   5      25      55
 -11  15   5     146      56
  12  15   5      20      63
 -12  15   5      53      63
  13  15   5      14      65
 -13  15   5      11      65
   0  16   5       0      12
   1  16   5      69      38
  -1  16   5      18      37
   2  16   5      14      40
  -2  16   5      14      36
   3  16   5      25      42
  -3  16   5       4      36
   4  16   5       0      41
  -4  16   5      17      36
   5  16   5       7      44
  -5  16   5      98      39
   6  16   5       1      45
  -6  16   5       1      42
   7  16   5       7      48
  -7  16   5      58      45
   8  16   5      95      59
  -8  16   5     370      56
   9  16   5      96      55
  -9  16   5      33      50
  10  16   5       7      59
 -10  16   5      48      57
  11  16   5       5      63
 -11  16   5      47      64
  12  16   5      55      68
 -12  16   5      22      72
   1  17   5       2      47
  -1  17   5       6      47
   2  17   5      14      48
  -2  17   5      45      48
   3  17   5       9      50
  -3  17   5       9      49
   4  17   5      29      51
  -4  17   5     209      51
   5  17   5      33      50
  -5  17   5     153      50
   6  17   5      11      53
  -6  17   5      89      54
   7  17   5     104      57
  -7  17   5     142      54
   8  17   5      70      57
  -8  17   5      15      54
   9  17   5      10      62
  -9  17   5      49      59
  10  17   5      30      65
 -10  17   5     175      67
  11  17   5      16      67
 -11  17   5     145      69
   0  18   5      34      17
   1  18   5      92      53
  -1  18   5      30      53
   2  18   5      83      53
  -2  18   5       4      52
   3  18   5      16      53
  -3  18   5      87      53
   4  18   5       6      53
  -4  18   5      50      53
   5  18   5       4      56
  -5  18   5      80      55
   6  18   5      10      58
  -6  18   5     162      56
   7  18   5      12      58
  -7  18   5      53      55
   8  18   5      16      63
  -8  18   5      56      62
   9  18   5      13      65
  -9  18   5     195      68
   1  19   5       0      58
  -1  19   5      51      57
   2  19   5       8      56
  -2  19   5     119      57
   3  19   5      14      61
  -3  19   5     169      59
   4  19   5       9      61
  -4  19   5     208      62
   5  19   5      30      60
  -5  19   5     283      60
   6  19   5      15      60
  -6  19   5      46      57
   7  19   5      34      66
  -7  19   5      94      67
   0  20   5      38      20
   1  20   5      14      66
  -1  20   5     168      64
   2  20   5     146      65
  -2  20   5      17      66
   3  20   5      28      66
  -3  20   5      73      64
   0   0   6      52      42
   1   1   6    1902       4
   0   2   6     510       3
   1   2   6     578      12
  -1   2   6     599      12
   2   2   6     163       1
   1   3   6    2261      39
  -1   3   6    2017      40
   2   3   6    1527      26
  -2   3   6    1600      26
   3   3   6     438      16
   0   4   6    6038      53
   1   4   6     427      10
  -1   4   6     432      10
   2   4   6    3974     109
  -2   4   6    4187     113
   3   4   6     120      11
  -3   4   6     118      11
   4   4   6    2590      13
   1   5   6     395      23
  -1   5   6     280      23
   2   5   6     262      12
  -2   5   6     134      12
   3   5   6     519      19
  -3   5   6     487      19
   4   5   6       1       9
  -4   5   6       6       9
   5   5   6    1318      14
   0   6   6    3259      50
   1   6   6     249      23
  -1   6   6     240      22
   2   6   6    1439      70
  -2   6   6    1535      66
   3   6   6      14      10
  -3   6   6      57       9
   4   6   6    1768      48
  -4   6   6    1787      46
   5   6   6     486      18
  -5   6   6     569      18
   6   6   6    1181      15
   1   7   6      17      18
  -1   7   6       3      19
   2   7   6     252      19
  -2   7   6     182      17
   3   7   6      15      11
  -3   7   6      32      11
   4   7   6      52      13
  -4   7   6      63      13
   5   7   6     216      21
  -5   7   6     245      21
   6   7   6     139      15
  -6   7   6      40      15
   7   7   6     577      12
   0   8   6     207       5
   1   8   6     218      35
  -1   8   6     200      34
   2   8   6      54      14
  -2   8   6      18      13
   3   8   6      18      15
  -3   8   6      18      15
   4   8   6       1      16
  -4   8   6       0      15
   5   8   6     150      29
  -5   8   6     174      30
   6   8   6     385      35
  -6   8   6     509      34
   7   8   6     146      23
  -7   8   6     207      24
   8   8   6     634      16
   1   9   6      40      18
  -1   9   6      29      17
   2   9   6     135      18
  -2   9   6      24      15
   3   9   6      31      20
  -3   9   6      42      18
   4   9   6       5      15
  -4   9   6      18      15
   5   9   6      23      19
  -5   9   6      63      20
   6   9   6      24      19
  -6   9   6       6      18
   7   9   6       8      20
  -7   9   6      75      21
   8   9   6      83      24
  -8   9   6      55      23
   9   9   6      87       8
   0  10   6      55       7
   1  10   6       0      20
  -1  10   6       0      20
   2  10   6      86      29
  -2  10   6     136      25
   3  10   6       0      18
  -3  10   6       0      16
   4  10   6      10      16
  -4  10   6       2      16
   5  10   6       2      17
  -5  10   6      22      17
   6  10   6      32      21
  -6  10   6      63      20
   7  10   6      56      28
  -7  10   6      26      28
   8  10   6      39      26
  -8  10   6      84      24
   9  10   6      56      24
  -9  10   6      22      24
  10  10   6       0       9
   1  11   6      12      21
  -1  11   6      26      20
   2  11   6      13      20
  -2  11   6      12      17
   3  11   6      20      25
  -3  11   6      12      21
   4  11   6      28      19
  -4  11   6      17      18
   5  11   6      23      22
  -5  11   6       2      20
   6  11   6      83      24
  -6  11   6     129      23
   7  11   6      61      24
  -7  11   6      24      23
   8  11   6       4      28
  -8  11   6       0      27
   9  11   6       8      30
  -9  11   6      73      31
  10  11   6      21      30
 -10  11   6      18      29
  11  11   6      26      11
   0  12   6      47       8
   1  12   6       3      23
  -1  12   6       2      23
   2  12   6     247      30
  -2  12   6     258      29
   3  12   6       6      23
  -3  12   6      57      23
   4  12   6       2      21
  -4  12   6      22      21
   5  12   6       7      22
  -5  12   6       9      22
   6  12   6       0      24
  -6  12   6       0      23
   7  12   6      30      25
  -7  12   6      30      25
   8  12   6       4      35
  -8  12   6       4      33
   9  12   6       2      32
  -9  12   6      62      31
  10  12   6      22      33
 -10  12   6      21      32
  11  12   6       7      35
 -11  12   6      43      34
  12  12   6       2      14
   1  13   6      36      29
  -1  13   6      33      28
   2  13   6      65      28
  -2  13   6      42      27
   3  13   6      16      27
  -3  13   6       4      25
   4  13   6      11      28
  -4  13   6      67      27
   5  13   6      33      31
  -5  13   6     194      27
   6  13   6       2      32
  -6  13   6       4      29
   7  13   6      16      33
  -7  13   6      72      30
   8  13   6       1      37
  -8  13   6       1      35
   9  13   6      15      39
  -9  13   6      53      35
  10  13   6       5      40
 -10  13   6      22      36
  11  13   6      11      43
 -11  13   6      11      39
  12  13   6      15      48
 -12  13   6      13      47
  13  13   6       0      18
   0  14   6      91      10
   1  14   6       9      30
  -1  14   6       7      28
   2  14   6      44      32
  -2  14   6       7      29
   3  14   6       3      33
  -3  14   6      33      32
   4  14   6      30      36
  -4  14   6      97      34
   5  14   6       5      36
  -5  14   6      27      34
   6  14   6      30      37
  -6  14   6       8      35
   7  14   6       1      36
  -7  14   6       4      35
   8  14   6     116      40
  -8  14   6      30      38
   9  14   6       2      39
  -9  14   6      11      38
  10  14   6      34      47
 -10  14   6      53      44
  11  14   6      11      50
 -11  14   6     113      49
  12  14   6      20      55
 -12  14   6      12      60
  13  14   6       8      62
 -13  14   6      31      62
  14  14   6      18      23
   1  15   6       0      33
  -1  15   6      19      32
   2  15   6       7      35
  -2  15   6      28      33
   3  15   6       2      34
  -3  15   6       2      32
   4  15   6       7      36
  -4  15   6     107      34
   5  15   6       1      36
  -5  15   6      19      34
   6  15   6      15      37
  -6  15   6       2      35
   7  15   6       1      39
  -7  15   6      12      38
   8  15   6       0      41
  -8  15   6       0      39
   9  15   6      16      45
  -9  15   6      15      43
  10  15   6      33      49
 -10  15   6     156      48
  11  15   6      17      52
 -11  15   6      62      53
  12  15   6       3      58
 -12  15   6       4      61
  13  15   6       9      70
 -13  15   6       6      66
   0  16   6       0      11
   1  16   6      15      33
  -1  16   6       3      33
   2  16   6       9      36
  -2  16   6      39      34
   3  16   6       6      36
  -3  16   6       7      34
   4  16   6     130      38
  -4  16   6      31      36
   5  16   6       0      40
  -5  16   6      19      37
   6  16   6       5      46
  -6  16   6      88      43
   7  16   6       0      51
  -7  16   6       9      45
   8  16   6       1      53
  -8  16   6      57      47
   9  16   6      29      55
  -9  16   6       7      51
  10  16   6      17      60
 -10  16   6      87      56
  11  16   6      86      63
 -11  16   6       6      59
  12  16   6       9      65
 -12  16   6      93      66
   1  17   6       0      50
  -1  17   6       0      49
   2  17   6      13      47
  -2  17   6      32      47
   3  17   6      15      49
  -3  17   6      20      49
   4  17   6      26      51
  -4  17   6     172      54
   5  17   6       3      51
  -5  17   6       2      50
   6  17   6       3      54
  -6  17   6       9      52
   7  17   6      27      55
  -7  17   6       8      52
   8  17   6       0      58
  -8  17   6       1      54
   9  17   6       1      60
  -9  17   6      78      61
  10  17   6      25      67
 -10  17   6      26      71
  11  17   6      15      71
 -11  17   6     120      78
   0  18   6       1      18
   1  18   6      43      52
  -1  18   6      69      53
   2  18   6       2      51
  -2  18   6      24      52
   3  18   6       3      53
  -3  18   6     117      55
   4  18   6       0      57
  -4  18   6     100      59
   5  18   6      14      57
  -5  18   6       1      55
   6  18   6       1      58
  -6  18   6      79      54
   7  18   6       5      59
  -7  18   6       9      56
   8  18   6       1      63
  -8  18   6      28      63
   9  18   6       5      66
  -9  18   6      88      70
   1  19   6       0      55
  -1  19   6      32      55
   2  19   6       6      59
  -2  19   6      65      58
   3  19   6       9      58
  -3  19   6      34      56
   4  19   6      51      59
  -4  19   6       6      58
   5  19   6       1      60
  -5  19   6       2      58
   6  19   6       0      62
  -6  19   6      57      60
   7  19   6      34      66
  -7  19   6      52      67
   0  20   6      53      22
   1  20   6      99      65
  -1  20   6       7      65
   2  20   6      60      64
  -2  20   6      40      63
   3  20   6      24      65
  -3  20   6     120      65
   0   2   7    2629       6
   1   2   7       3      52
  -1   2   7       3      52
   1   3   7    1294      63
  -1   3   7    1373      64
   2   3   7     403      16
  -2   3   7     319      16
   0   4   7    2776      19
   1   4   7     478      10
  -1   4   7     389      10
   2   4   7      15       5
  -2   4   7       2       6
   3   4   7      99      11
  -3   4   7      69      11
   1   5   7     739      18
  -1   5   7     683      18
   2   5   7      14      11
  -2   5   7      15      12
   3   5   7     249      17
  -3   5   7     238      17
   4   5   7     220      15
  -4   5   7     211      15
   0   6   7    1588      30
   1   6   7     110      26
  -1   6   7      48      26
   2   6   7     886      40
  -2   6   7     795      37
   3   6   7    2117      60
  -3   6   7    1938      63
   4   6   7     341      22
  -4   6   7     362      21
   5   6   7     872      38
  -5   6   7     877      40
   1   7   7      67      22
  -1   7   7     280      25
   2   7   7     244      32
  -2   7   7     195      30
   3   7   7      19       9
  -3   7   7      24       9
   4   7   7    2121      54
  -4   7   7    2177      56
   5   7   7       4      15
  -5   7   7       8      14
   6   7   7      92      13
  -6   7   7      37      13
   0   8   7    1286      20
   1   8   7      49      16
  -1   8   7      38      17
   2   8   7    2666      88
  -2   8   7    2538      83
   3   8   7     669      46
  -3   8   7     641      43
   4   8   7     303      43
  -4   8   7     655      35
   5   8   7    1041      48
  -5   8   7    1015      48
   6   8   7     510      37
  -6   8   7     645      35
   7   8   7     155      27
  -7   8   7     136      26
   1   9   7     290      28
  -1   9   7     346      28
   2   9   7      23      21
  -2   9   7     159      20
   3   9   7      33      18
  -3   9   7      23      15
   4   9   7       4      14
  -4   9   7      28      14
   5   9   7     209      27
  -5   9   7     206      27
   6   9   7      82      21
  -6   9   7      86      21
   7   9   7      60      22
  -7   9   7     115      22
   8   9   7      28      26
  -8   9   7       0      26
   0  10   7     935      24
   1  10   7      35      21
  -1  10   7      47      21
   2  10   7      63      20
  -2  10   7      26      19
   3  10   7     199      25
  -3  10   7     161      23
   4  10   7     249      37
  -4  10   7     535      34
   5  10   7     718      42
  -5  10   7     759      43
   6  10   7      25      21
  -6  10   7      59      21
   7  10   7     293      35
  -7  10   7     163      31
   8  10   7     580      43
  -8  10   7     620      43
   9  10   7      17      24
  -9  10   7      37      25
   1  11   7     146      23
  -1  11   7     149      22
   2  11   7       5      22
  -2  11   7       0      20
   3  11   7       0      22
  -3  11   7       8      18
   4  11   7      80      25
  -4  11   7      66      21
   5  11   7      67      28
  -5  11   7     108      26
   6  11   7      45      23
  -6  11   7      77      23
   7  11   7     108      34
  -7  11   7     154      31
   8  11   7       0      25
  -8  11   7      19      25
   9  11   7      50      32
  -9  11   7      10      30
  10  11   7       3      31
 -10  11   7       9      30
   0  12   7       2       8
   1  12   7      14      24
  -1  12   7       0      23
   2  12   7       3      23
  -2  12   7      14      22
   3  12   7     290      41
  -3  12   7     293      36
   4  12   7     328      43
  -4  12   7     322      37
   5  12   7      37      23
  -5  12   7      57      23
   6  12   7       5      23
  -6  12   7       4      22
   7  12   7       7      26
  -7  12   7      36      26
   8  12   7       0      28
  -8  12   7       0      27
   9  12   7       1      31
  -9  12   7       8      29
  10  12   7      51      36
 -10  12   7      23      33
  11  12   7       0      39
 -11  12   7      12      36
   1  13   7      79      31
  -1  13   7      44      31
   2  13   7      39      29
  -2  13   7     157      29
   3  13   7     211      34
  -3  13   7     235      33
   4  13   7       8      28
  -4  13   7      39      26
   5  13   7      73      31
  -5  13   7     102      30
   6  13   7      33      34
  -6  13   7       9      32
   7  13   7       5      33
  -7  13   7      29      30
   8  13   7      25      40
  -8  13   7       0      40
   9  13   7      42      40
  -9  13   7      53      37
  10  13   7       0      41
 -10  13   7       0      38
  11  13   7      95      51
 -11  13   7      23      46
  12  13   7       2      50
 -12  13   7       7      53
   0  14   7     171      10
   1  14   7      87      32
  -1  14   7      55      31
   2  14   7     221      38
  -2  14   7     183      36
   3  14   7     194      38
  -3  14   7     132      36
   4  14   7      10      35
  -4  14   7      49      32
   5  14   7      15      36
  -5  14   7      37      35
   6  14   7      14      37
  -6  14   7      15      35
   7  14   7       2      38
  -7  14   7       1      36
   8  14   7      43      40
  -8  14   7      27      38
   9  14   7       7      43
  -9  14   7      55      40
  10  14   7      11      47
 -10  14   7      50      44
  11  14   7       0      50
 -11  14   7       2      49
  12  14   7      20      54
 -12  14   7      74      56
  13  14   7       0      61
 -13  14   7      20      61
   1  15   7     121      38
  -1  15   7     170      37
   2  15   7      23      34
  -2  15   7      51      33
   3  15   7       5      36
  -3  15   7      29      36
   4  15   7       6      37
  -4  15   7      65      37
   5  15   7      23      37
  -5  15   7      66      35
   6  15   7       0      38
  -6  15   7       0      35
   7  15   7      64      43
  -7  15   7      73      41
   8  15   7      18      45
  -8  15   7     142      42
   9  15   7       7      47
  -9  15   7      82      45
  10  15   7       3      49
 -10  15   7       3      49
  11  15   7      35      55
 -11  15   7     156      56
  12  15   7       0      57
 -12  15   7       0      60
  13  15   7      12      65
 -13  15   7      14      65
   0  16   7      50      12
   1  16   7      24      36
  -1  16   7       8      36
   2  16   7       2      36
  -2  16   7       2      35
   3  16   7       8      38
  -3  16   7      13      36
   4  16   7      23      38
  -4  16   7       1      36
   5  16   7      44      40
  -5  16   7      45      39
   6  16   7      17      43
  -6  16   7      97      39
   7  16   7      99      49
  -7  16   7     120      46
   8  16   7       2      58
  -8  16   7      33      50
   9  16   7       6      56
  -9  16   7       3      54
  10  16   7       0      61
 -10  16   7     143      60
  11  16   7       2      65
 -11  16   7       2      64
  12  16   7      24      66
 -12  16   7       9      67
   1  17   7      45      48
  -1  17   7       6      49
   2  17   7      19      49
  -2  17   7      85      49
   3  17   7      34      50
  -3  17   7     126      50
   4  17   7      94      54
  -4  17   7      19      51
   5  17   7      32      55
  -5  17   7     199      54
   6  17   7       7      55
  -6  17   7      59      53
   7  17   7       2      55
  -7  17   7       1      52
   8  17   7       0      61
  -8  17   7      50      60
   9  17   7      14      63
  -9  17   7     190      63
  10  17   7       6      64
 -10  17   7      22      64
   0  18   7      11      18
   1  18   7       5      54
  -1  18   7      67      54
   2  18   7      53      53
  -2  18   7       3      53
   3  18   7     190      59
  -3  18   7      42      56
   4  18   7      59      62
  -4  18   7      40      57
   5  18   7       4      56
  -5  18   7     127      53
   6  18   7      31      57
  -6  18   7      28      53
   7  18   7      12      61
  -7  18   7      66      61
   8  18   7      30      62
  -8  18   7     183      63
   9  18   7       0      64
  -9  18   7     100      65
   1  19   7      26      59
  -1  19   7      49      57
   2  19   7       7      58
  -2  19   7      43      57
   3  19   7       5      58
  -3  19   7      31      58
   4  19   7      18      61
  -4  19   7     130      61
   5  19   7       2      61
  -5  19   7      30      60
   6  19   7       4      63
  -6  19   7     156      63
   0  20   7      28      22
   1  20   7      14      64
  -1  20   7     155      65
   2  20   7      61      70
  -2  20   7      17      68
   0   0   8   10829     161
   1   1   8    2846      27
   0   2   8  100651    3651
   1   2   8      59      13
  -1   2   8      74      13
   2   2   8   93248    1717
   1   3   8     191      16
  -1   3   8     119      17
   2   3   8    7377     109
  -2   3   8    7903     113
   3   3   8    7503      63
   0   4   8   71503     889
   1   4   8    1438      87
  -1   4   8    1422      87
   2   4   8   25709     666
  -2   4   8   25111     657
   3   4   8   13307     283
  -3   4   8   13127     272
   4   4   8   33873     299
   1   5   8     264      17
  -1   5   8     255      18
   2   5   8    6894     201
  -2   5   8    7124     210
   3   5   8    4391      92
  -3   5   8    4423      96
   4   5   8    7858     205
  -4   5   8    7336     199
   5   5   8    1539      22
   0   6   8   43700     366
   1   6   8    5246     200
  -1   6   8    4750     199
   2   6   8   58754    2171
  -2   6   8   55923    2263
   3   6   8    1489      65
  -3   6   8    1361      73
   4   6   8   22967     519
  -4   6   8   21933     543
   5   6   8     195      14
  -5   6   8     193      15
   6   6   8   28341     245
   1   7   8    1882      44
  -1   7   8    2092      42
   2   7   8    4250     100
  -2   7   8    4137     100
   3   7   8     271      39
  -3   7   8     274      38
   4   7   8     433      28
  -4   7   8     452      29
   5   7   8    8168     224
  -5   7   8    8606     232
   6   7   8      55      13
  -6   7   8      36      13
   7   7   8    7901      69
   0   8   8   39780     537
   1   8   8     618      54
  -1   8   8     575      50
   2   8   8   24545     783
  -2   8   8   26801     814
   3   8   8     380      33
  -3   8   8     638      30
   4   8   8   20822     680
  -4   8   8   22793     675
   5   8   8     107      16
  -5   8   8      90      16
   6   8   8   13761     441
  -6   8   8   14933     433
   7   8   8     683      46
  -7   8   8     779      46
   8   8   8    8433      80
   1   9   8      97      22
  -1   9   8      90      21
   2   9   8     203      21
  -2   9   8     214      20
   3   9   8     154      26
  -3   9   8     189      25
   4   9   8      10      14
  -4   9   8       1      13
   5   9   8    2555     105
  -5   9   8    3112     106
   6   9   8       7      19
  -6   9   8      15      18
   7   9   8    3139     127
  -7   9   8    3709     125
   8   9   8      63      23
  -8   9   8      70      24
   9   9   8     872      16
   0  10   8    6344      77
   1  10   8     273      44
  -1  10   8     372      45
   2  10   8    5025     185
  -2  10   8    5287     177
   3  10   8     109      28
  -3  10   8     180      24
   4  10   8    7400     275
  -4  10   8    7952     260
   5  10   8     158      24
  -5  10   8     160      25
   6  10   8    5490     205
  -6  10   8    6214     201
   7  10   8     429      38
  -7  10   8     549      37
   8  10   8    2914     122
  -8  10   8    2975     122
   9  10   8     268      34
  -9  10   8     319      34
  10  10   8    5757      70
   1  11   8     158      25
  -1  11   8      58      23
   2  11   8      50      22
  -2  11   8     103      20
   3  11   8     258      36
  -3  11   8     283      35
   4  11   8      18      23
  -4  11   8       0      20
   5  11   8    1479      69
  -5  11   8    1588      67
   6  11   8     301      44
  -6  11   8     290      40
   7  11   8    1927      92
  -7  11   8    2280      91
   8  11   8       5      26
  -8  11   8      23      25
   9  11   8    2648     114
  -9  11   8    2855     109
  10  11   8     481      45
 -10  11   8     476      44
  11  11   8     301      15
   0  12   8    3142      54
   1  12   8      59      25
  -1  12   8      30      25
   2  12   8     759      50
  -2  12   8     833      48
   3  12   8      45      26
  -3  12   8      88      24
   4  12   8    1968      99
  -4  12   8    2218      94
   5  12   8     132      33
  -5  12   8     113      27
   6  12   8    2280     103
  -6  12   8    2218      92
   7  12   8       0      29
  -7  12   8       0      26
   8  12   8    1276      88
  -8  12   8    1644      81
   9  12   8     242      46
  -9  12   8     277      43
  10  12   8     661      62
 -10  12   8     710      60
  11  12   8      47      41
 -11  12   8      16      38
  12  12   8     860      29
   1  13   8     392      43
  -1  13   8     614      41
   2  13   8     116      31
  -2  13   8     212      30
   3  13   8      64      31
  -3  13   8     141      31
   4  13   8      65      31
  -4  13   8     159      30
   5  13   8     271      43
  -5  13   8     426      44
   6  13   8      27      35
  -6  13   8      11      30
   7  13   8     630      64
  -7  13   8     851      60
   8  13   8     146      42
  -8  13   8      86      43
   9  13   8     383      71
  -9  13   8     592      64
  10  13   8      12      44
 -10  13   8      66      40
  11  13   8     789      91
 -11  13   8    1100      90
  12  13   8     212      56
 -12  13   8     122      58
  13  13   8    1021      35
   0  14   8       8      10
   1  14   8       5      29
  -1  14   8      12      29
   2  14   8     352      49
  -2  14   8     434      48
   3  14   8       0      31
  -3  14   8      12      30
   4  14   8     504      63
  -4  14   8     602      60
   5  14   8      16      36
  -5  14   8      16      35
   6  14   8     703      71
  -6  14   8     860      66
   7  14   8      54      37
  -7  14   8      71      34
   8  14   8     301      66
  -8  14   8     601      63
   9  14   8       5      46
  -9  14   8      70      44
  10  14   8     967      95
 -10  14   8    1020      91
  11  14   8      38      52
 -11  14   8     137      53
  12  14   8     545      90
 -12  14   8     638      90
  13  14   8      66      65
 -13  14   8      64      64
  14  14   8     339      25
   1  15   8      28      34
  -1  15   8      60      33
   2  15   8       0      35
  -2  15   8       4      33
   3  15   8      29      37
  -3  15   8     229      35
   4  15   8       3      35
  -4  15   8      19      33
   5  15   8     473      62
  -5  15   8     448      57
   6  15   8      28      42
  -6  15   8      39      38
   7  15   8     355      59
  -7  15   8     475      54
   8  15   8       8      48
  -8  15   8     133      49
   9  15   8     574      85
  -9  15   8     761      84
  10  15   8       3      52
 -10  15   8      89      54
  11  15   8     172      63
 -11  15   8     315      67
  12  15   8      23      60
 -12  15   8     112      63
  13  15   8     296      86
 -13  15   8     249      83
   0  16   8     500      21
   1  16   8      27      37
  -1  16   8      84      39
   2  16   8     112      41
  -2  16   8      83      39
   3  16   8       0      38
  -3  16   8       6      36
   4  16   8     253      58
  -4  16   8     654      58
   5  16   8     178      46
  -5  16   8     231      42
   6  16   8     177      50
  -6  16   8     262      46
   7  16   8      24      46
  -7  16   8      59      44
   8  16   8     210      58
  -8  16   8     343      61
   9  16   8      20      55
  -9  16   8      39      53
  10  16   8      61      64
 -10  16   8     174      60
  11  16   8      48      65
 -11  16   8      18      64
  12  16   8      29      74
 -12  16   8     325      76
   1  17   8      48      50
  -1  17   8     113      51
   2  17   8      28      49
  -2  17   8       0      50
   3  17   8      34      54
  -3  17   8     104      54
   4  17   8     125      56
  -4  17   8     164      54
   5  17   8      79      59
  -5  17   8     234      59
   6  17   8      16      54
  -6  17   8     125      52
   7  17   8     131      62
  -7  17   8     183      61
   8  17   8      10      60
  -8  17   8     151      60
   9  17   8      11      64
  -9  17   8     137      64
  10  17   8      12      69
 -10  17   8     167      75
   0  18   8       7      17
   1  18   8      74      55
  -1  18   8      14      54
   2  18   8      37      57
  -2  18   8     271      58
   3  18   8      67      56
  -3  18   8       9      55
   4  18   8     106      58
  -4  18   8       3      56
   5  18   8       2      56
  -5  18   8     132      54
   6  18   8      86      64
  -6  18   8     109      62
   7  18   8      31      62
  -7  18   8      80      62
   8  18   8      18      65
  -8  18   8     154      65
   1  19   8      17      59
  -1  19   8      14      59
   2  19   8      28      58
  -2  19   8      60      56
   3  19   8       9      59
  -3  19   8       1      57
   4  19   8      85      62
  -4  19   8      19      59
   5  19   8      17      62
  -5  19   8      32      62
   6  19   8      17      67
  -6  19   8      60      67
   0  20   8      14      21
   1  20   8      44      65
  -1  20   8       5      65
   2  20   8       7     101
  -2  20   8      39      95
   0   2   9    4728      35
   1   2   9     387      99
  -1   2   9     342      99
   1   3   9    2176      68
  -1   3   9    2111      67
   2   3   9      17      30
  -2   3   9      11      30
   0   4   9    4599      28
   1   4   9      43      13
  -1   4   9      21      12
   2   4   9    2599      48
  -2   4   9    2479      47
   3   4   9     912      75
  -3   4   9     798      72
   1   5   9    3814     158
  -1   5   9    4109     167
   2   5   9     515      35
  -2   5   9     445      35
   3   5   9     364      25
  -3   5   9     260      26
   4   5   9    2462      38
  -4   5   9    2347      37
   0   6   9      62       5
   1   6   9       4      11
  -1   6   9      27      12
   2   6   9    2203      58
  -2   6   9    1924      66
   3   6   9      67       9
  -3   6   9      53      11
   4   6   9    2310      64
  -4   6   9    2111      67
   5   6   9    1331      48
  -5   6   9    1488      49
   1   7   9      34      14
  -1   7   9      59      14
   2   7   9     203      24
  -2   7   9     290      25
   3   7   9    3846     128
  -3   7   9    4051     127
   4   7   9    1879      87
  -4   7   9    2019      92
   5   7   9    1436      43
  -5   7   9    1406      44
   6   7   9      98      22
  -6   7   9     125      22
   0   8   9    2838      30
   1   8   9    2023      63
  -1   8   9    2150      63
   2   8   9    4129     131
  -2   8   9    4291     133
   3   8   9    2575      91
  -3   8   9    3512      92
   4   8   9    2233      81
  -4   8   9    2126      85
   5   8   9     110      18
  -5   8   9     135      20
   6   8   9      28      18
  -6   8   9      16      17
   7   8   9      54      19
  -7   8   9     171      18
   1   9   9      58      18
  -1   9   9      66      18
   2   9   9       0      20
  -2   9   9       7      20
   3   9   9    1500      63
  -3   9   9    1784      58
   4   9   9     213      33
  -4   9   9     283      28
   5   9   9      81      19
  -5   9   9      99      20
   6   9   9     127      29
  -6   9   9     173      28
   7   9   9     198      27
  -7   9   9     191      25
   8   9   9      66      23
  -8   9   9      11      21
   0  10   9      70       9
   1  10   9     909      68
  -1  10   9     958      69
   2  10   9    1163      65
  -2  10   9    1168      63
   3  10   9      37      22
  -3  10   9     153      22
   4  10   9     230      36
  -4  10   9     205      34
   5  10   9     108      21
  -5  10   9     135      22
   6  10   9     655      42
  -6  10   9     518      40
   7  10   9     366      34
  -7  10   9     361      36
   8  10   9      63      27
  -8  10   9      57      28
   9  10   9      11      27
  -9  10   9       4      26
   1  11   9     646      49
  -1  11   9     703      50
   2  11   9     175      26
  -2  11   9     196      25
   3  11   9     614      47
  -3  11   9     631      45
   4  11   9     127      28
  -4  11   9      59      24
   5  11   9      12      21
  -5  11   9       6      21
   6  11   9       2      22
  -6  11   9      12      21
   7  11   9     101      27
  -7  11   9     133      26
   8  11   9      27      28
  -8  11   9      92      28
   9  11   9     273      46
  -9  11   9     234      47
  10  11   9      21      34
 -10  11   9      18      31
   0  12   9     330      13
   1  12   9     180      28
  -1  12   9      93      28
   2  12   9     288      38
  -2  12   9     299      37
   3  12   9       0      26
  -3  12   9       0      23
   4  12   9     235      34
  -4  12   9     220      33
   5  12   9     204      39
  -5  12   9     134      35
   6  12   9      47      28
  -6  12   9       2      24
   7  12   9       0      36
  -7  12   9       1      29
   8  12   9     205      39
  -8  12   9     240      35
   9  12   9      28      35
  -9  12   9      25      34
  10  12   9       2      37
 -10  12   9       7      34
  11  12   9      38      42
 -11  12   9      23      40
   1  13   9     676      52
  -1  13   9     577      49
   2  13   9     216      36
  -2  13   9     174      34
   3  13   9     163      34
  -3  13   9     141      33
   4  13   9     170      31
  -4  13   9      34      29
   5  13   9      69      37
  -5  13   9       6      32
   6  13   9       4      32
  -6  13   9      54      32
   7  13   9      80      36
  -7  13   9     110      32
   8  13   9       0      43
  -8  13   9      20      37
   9  13   9      55      41
  -9  13   9      23      38
  10  13   9       4      46
 -10  13   9     110      45
  11  13   9       6      55
 -11  13   9      22      55
  12  13   9      25      50
 -12  13   9       7      52
   0  14   9     712      21
   1  14   9      10      31
  -1  14   9      49      30
   2  14   9     181      36
  -2  14   9      94      33
   3  14   9     267      44
  -3  14   9     254      42
   4  14   9      10      35
  -4  14   9       8      32
   5  14   9      13      35
  -5  14   9      59      34
   6  14   9      42      39
  -6  14   9     255      36
   7  14   9      19      40
  -7  14   9       2      35
   8  14   9       5      41
  -8  14   9      77      38
   9  14   9      18      47
  -9  14   9      56      47
  10  14   9       3      54
 -10  14   9       3      52
  11  14   9      27      53
 -11  14   9      10      54
  12  14   9      22      57
 -12  14   9      45      60
  13  14   9       5      64
 -13  14   9      43      63
   1  15   9      24      35
  -1  15   9       1      34
   2  15   9      18      35
  -2  15   9      40      33
   3  15   9     101      40
  -3  15   9     187      38
   4  15   9       6      36
  -4  15   9      43      34
   5  15   9     238      48
  -5  15   9     181      43
   6  15   9     142      43
  -6  15   9      22      39
   7  15   9       8      42
  -7  15   9       7      37
   8  15   9       7      53
  -8  15   9      67      50
   9  15   9      13      49
  -9  15   9      11      49
  10  15   9      76      51
 -10  15   9      13      50
  11  15   9       6      57
 -11  15   9      75      61
  12  15   9      14      65
 -12  15   9      49      67
  13  15   9      17      67
 -13  15   9      40      68
   0  16   9      62      13
   1  16   9       7      37
  -1  16   9      36      36
   2  16   9     114      41
  -2  16   9     153      39
   3  16   9      12      39
  -3  16   9     109      38
   4  16   9      87      44
  -4  16   9      79      40
   5  16   9      31      43
  -5  16   9      23      39
   6  16   9       9      44
  -6  16   9      33      40
   7  16   9      29      48
  -7  16   9     223      46
   8  16   9       5      53
  -8  16   9      34      51
   9  16   9      82      52
  -9  16   9      15      52
  10  16   9       2      55
 -10  16   9      53      54
  11  16   9      36      65
 -11  16   9      81      65
  12  16   9     101     109
 -12  16   9      22     109
   1  17   9      73      41
  -1  17   9      11      40
   2  17   9       6      48
  -2  17   9      78      45
   3  17   9      40      50
  -3  17   9      49      44
   4  17   9       8      52
  -4  17   9       7      45
   5  17   9       3      50
  -5  17   9      27      44
   6  17   9      29      54
  -6  17   9      17      48
   7  17   9      25      58
  -7  17   9      72      56
   8  17   9      17      60
  -8  17   9      63      57
   9  17   9      26      63
  -9  17   9     105      61
  10  17   9      20      68
 -10  17   9     133      73
   0  18   9      54      19
   1  18   9     127      54
  -1  18   9      20      52
   2  18   9      44      55
  -2  18   9      10      54
   3  18   9      42      58
  -3  18   9      80      56
   4  18   9      39      57
  -4  18   9      89      55
   5  18   9      81      61
  -5  18   9      41      61
   6  18   9       2      60
  -6  18   9      65      60
   7  18   9      13      62
  -7  18   9      91      63
   8  18   9      11      64
  -8  18   9      32      63
   1  19   9      10      60
  -1  19   9       9      60
   2  19   9      32      60
  -2  19   9      67      60
   3  19   9       3      61
  -3  19   9      52      58
   4  19   9      17      63
  -4  19   9      12      65
   5  19   9       2      63
  -5  19   9      61      64
   6  19   9       6      68
  -6  19   9      71      67
   0  20   9       3      34
   0   0  10    8006     133
   1   1  10      29       2
   0   2  10    4696      31
   1   2  10      41       5
  -1   2  10      57       5
   2   2  10    3820      39
   1   3  10     265      12
  -1   3  10     277      11
   2   3  10     274      23
  -2   3  10     254      24
   3   3  10     307       5
   0   4  10    8792      68
   1   4  10      25      18
  -1   4  10      23      18
   2   4  10    3435      97
  -2   4  10    3474      96
   3   4  10     150       9
  -3   4  10     118       9
   4   4  10     185       4
   1   5  10       6       8
  -1   5  10      32       8
   2   5  10      30      10
  -2   5  10      31       9
   3   5  10     732      30
  -3   5  10     704      30
   4   5  10     775      38
  -4   5  10     914      38
   5   5  10     626       9
   0   6  10    3540      50
   1   6  10     109      19
  -1   6  10     115      20
   2   6  10    1120      50
  -2   6  10    1018      51
   3   6  10      74      12
  -3   6  10     114      12
   4   6  10    1603      46
  -4   6  10    1715      49
   5   6  10     156      21
  -5   6  10     202      22
   6   6  10     283       8
   1   7  10      52      14
  -1   7  10      14      16
   2   7  10     230      17
  -2   7  10     158      17
   3   7  10     319      27
  -3   7  10     267      26
   4   7  10     285      24
  -4   7  10     332      27
   5   7  10      52      13
  -5   7  10      53      13
   6   7  10      28      14
  -6   7  10      93      14
   7   7  10      33       5
   0   8  10     990      18
   1   8  10     164      28
  -1   8  10     171      29
   2   8  10    2558      87
  -2   8  10    2685      91
   3   8  10     275      26
  -3   8  10     321      24
   4   8  10    1339      44
  -4   8  10    1294      46
   5   8  10      17      13
  -5   8  10      43      15
   6   8  10     131      22
  -6   8  10     194      23
   7   8  10      21      17
  -7   8  10      23      17
   8   8  10     185      11
   1   9  10      17      21
  -1   9  10      38      20
   2   9  10     145      30
  -2   9  10     244      29
   3   9  10     133      28
  -3   9  10     318      27
   4   9  10      14      17
  -4   9  10      29      16
   5   9  10     403      23
  -5   9  10     402      24
   6   9  10       0      18
  -6   9  10       6      17
   7   9  10     183      26
  -7   9  10     194      25
   8   9  10       3      22
  -8   9  10       0      22
   9   9  10      33       8
   0  10  10     378      11
   1  10  10      75      23
  -1  10  10      18      22
   2  10  10     588      44
  -2  10  10     621      44
   3  10  10       7      20
  -3  10  10       7      19
   4  10  10     908      55
  -4  10  10     940      47
   5  10  10      30      19
  -5  10  10      49      18
   6  10  10     522      39
  -6  10  10     644      37
   7  10  10       3      21
  -7  10  10       0      21
   8  10  10     342      43
  -8  10  10     373      43
   9  10  10       1      30
  -9  10  10       2      27
  10  10  10      97      11
   1  11  10      24      26
  -1  11  10      52      26
   2  11  10       0      23
  -2  11  10       0      21
   3  11  10      12      23
  -3  11  10      11      22
   4  11  10     107      27
  -4  11  10      61      24
   5  11  10      53      24
  -5  11  10      21      21
   6  11  10      17      24
  -6  11  10      27      22
   7  11  10     273      30
  -7  11  10     161      28
   8  11  10      21      26
  -8  11  10      37      25
   9  11  10      27      29
  -9  11  10      42      28
  10  11  10      13      39
 -10  11  10      46      38
  11  11  10      26      14
   0  12  10      86       9
   1  12  10      11      27
  -1  12  10       4      26
   2  12  10      56      29
  -2  12  10      51      26
   3  12  10      64      30
  -3  12  10       5      26
   4  12  10     162      40
  -4  12  10     123      38
   5  12  10       0      29
  -5  12  10       0      26
   6  12  10     254      39
  -6  12  10     268      34
   7  12  10     101      32
  -7  12  10      46      29
   8  12  10     132      38
  -8  12  10     131      32
   9  12  10      21      37
  -9  12  10       5      32
  10  12  10     139      46
 -10  12  10     161      46
  11  12  10      11      44
 -11  12  10      11      46
  12  12  10      63      20
   1  13  10      26      27
  -1  13  10      23      26
   2  13  10      42      29
  -2  13  10      12      27
   3  13  10      54      31
  -3  13  10      70      29
   4  13  10       6      35
  -4  13  10       7      30
   5  13  10      43      34
  -5  13  10       3      32
   6  13  10       2      31
  -6  13  10      18      29
   7  13  10     107      40
  -7  13  10     154      35
   8  13  10      11      38
  -8  13  10      11      33
   9  13  10      45      46
  -9  13  10      84      45
  10  13  10       4      46
 -10  13  10       4      47
  11  13  10      20      51
 -11  13  10       8      54
  12  13  10      78      54
 -12  13  10      11      54
  13  13  10      48      19
   0  14  10       2      10
   1  14  10       9      30
  -1  14  10       8      29
   2  14  10      11      30
  -2  14  10      11      30
   3  14  10      30      33
  -3  14  10      27      31
   4  14  10       5      33
  -4  14  10      69      32
   5  14  10       0      35
  -5  14  10       0      32
   6  14  10      66      43
  -6  14  10     169      38
   7  14  10      18      44
  -7  14  10      18      36
   8  14  10      28      49
  -8  14  10      38      43
   9  14  10       0      51
  -9  14  10      10      48
  10  14  10       7      50
 -10  14  10      84      50
  11  14  10       8      53
 -11  14  10       7      54
  12  14  10       4      60
 -12  14  10       5      58
  13  14  10      13      65
 -13  14  10      80      63
  14  14  10      35      23
   1  15  10       3      35
  -1  15  10      59      35
   2  15  10      30      36
  -2  15  10       1      34
   3  15  10      19      35
  -3  15  10      57      34
   4  15  10       1      39
  -4  15  10      13      36
   5  15  10       7      42
  -5  15  10      69      37
   6  15  10       2      42
  -6  15  10      38      41
   7  15  10      19      44
  -7  15  10      15      42
   8  15  10       1      48
  -8  15  10      11      48
   9  15  10      18      51
  -9  15  10      90      54
  10  15  10       0      56
 -10  15  10       0      52
  11  15  10      12      60
 -11  15  10      13      65
  12  15  10      31      64
 -12  15  10      13      65
  13  15  10      17      74
 -13  15  10      16      74
   0  16  10      38      12
   1  16  10       0      40
  -1  16  10       0      37
   2  16  10      64      40
  -2  16  10      10      38
   3  16  10       1      42
  -3  16  10      13      38
   4  16  10      39      43
  -4  16  10      19      39
   5  16  10      11      43
  -5  16  10      44      39
   6  16  10      12      44
  -6  16  10      88      41
   7  16  10       9      48
  -7  16  10       1      46
   8  16  10       9      52
  -8  16  10     103      51
   9  16  10       0      52
  -9  16  10       0      51
  10  16  10      70      57
 -10  16  10      21      58
  11  16  10      33      63
 -11  16  10      37      71
   1  17  10       4      41
  -1  17  10      21      40
   2  17  10       0      43
  -2  17  10      17      41
   3  17  10       7      44
  -3  17  10      45      41
   4  17  10       2      45
  -4  17  10      12      42
   5  17  10      14      49
  -5  17  10     135      44
   6  17  10       5      54
  -6  17  10      18      48
   7  17  10      25      57
  -7  17  10     152      54
   8  17  10      27      59
  -8  17  10     101      56
   9  17  10      14      61
  -9  17  10     144      57
  10  17  10     117      65
 -10  17  10      11      65
   0  18  10      46      19
   1  18  10      31      62
  -1  18  10      31      61
   2  18  10       2      56
  -2  18  10      21      54
   3  18  10       7      55
  -3  18  10       6      53
   4  18  10      20      60
  -4  18  10     141      62
   5  18  10       0      59
  -5  18  10      28      59
   6  18  10      49      61
  -6  18  10      14      60
   7  18  10      11      62
  -7  18  10      65      62
   8  18  10      20      65
  -8  18  10     132      65
   1  19  10       8      60
  -1  19  10       9      62
   2  19  10      14      61
  -2  19  10      46      60
   3  19  10       1      63
  -3  19  10      48      66
   4  19  10       1      64
  -4  19  10       1      68
   5  19  10      51      64
  -5  19  10      59      62
   0   2  11      80       3
   1   2  11       2      10
  -1   2  11       3       9
   1   3  11     958      26
  -1   3  11     953      26
   2   3  11      19       9
  -2   3  11      11      10
   0   4  11     199       9
   1   4  11     317      25
  -1   4  11     299      25
   2   4  11    4628     126
  -2   4  11    4542     128
   3   4  11      59       9
  -3   4  11      46       8
   1   5  11    2222      56
  -1   5  11    2187      55
   2   5  11       9      16
  -2   5  11      15      16
   3   5  11      96      16
  -3   5  11     121      16
   4   5  11     132      21
  -4   5  11     204      21
   0   6  11    1074      13
   1   6  11     339      16
  -1   6  11     404      16
   2   6  11     147      18
  -2   6  11     126      17
   3   6  11     118      21
  -3   6  11     153      22
   4   6  11     120      24
  -4   6  11     155      25
   5   6  11     352      23
  -5   6  11     249      24
   1   7  11       0      13
  -1   7  11       0      13
   2   7  11      82      13
  -2   7  11     137      14
   3   7  11      15      11
  -3   7  11      34      11
   4   7  11      30      11
  -4   7  11      26      11
   5   7  11      23      18
  -5   7  11      76      19
   6   7  11     136      20
  -6   7  11     123      19
   0   8  11     259       7
   1   8  11     394      29
  -1   8  11     411      31
   2   8  11      83      19
  -2   8  11      44      20
   3   8  11     115      16
  -3   8  11     120      14
   4   8  11       1      13
  -4   8  11      19      13
   5   8  11      11      13
  -5   8  11      10      15
   6   8  11       0      14
  -6   8  11      22      15
   7   8  11      50      17
  -7   8  11      21      18
   1   9  11      18      18
  -1   9  11      29      17
   2   9  11       0      17
  -2   9  11       0      17
   3   9  11      12      18
  -3   9  11       1      18
   4   9  11      82      21
  -4   9  11      59      19
   5   9  11      61      19
  -5   9  11      95      21
   6   9  11     288      31
  -6   9  11     246      31
   7   9  11     112      22
  -7   9  11      72      21
   8   9  11      16      21
  -8   9  11       1      20
   0  10  11     420      15
   1  10  11      85      24
  -1  10  11      35      25
   2  10  11      61      22
  -2  10  11      42      22
   3  10  11     132      22
  -3  10  11      39      21
   4  10  11      35      21
  -4  10  11     107      17
   5  10  11       3      27
  -5  10  11       3      24
   6  10  11     327      36
  -6  10  11     373      33
   7  10  11     433      30
  -7  10  11     135      28
   8  10  11     102      30
  -8  10  11     162      30
   9  10  11       0      31
  -9  10  11       0      30
   1  11  11       1      22
  -1  11  11       3      21
   2  11  11      25      23
  -2  11  11      12      22
   3  11  11      24      23
  -3  11  11       0      22
   4  11  11     201      27
  -4  11  11      70      26
   5  11  11       8      27
  -5  11  11       6      23
   6  11  11       4      26
  -6  11  11      15      24
   7  11  11      41      29
  -7  11  11      91      25
   8  11  11      36      37
  -8  11  11     108      34
   9  11  11      62      36
  -9  11  11      35      33
  10  11  11       1      41
 -10  11  11       4      37
   0  12  11     927      21
   1  12  11     114      30
  -1  12  11      99      30
   2  12  11       1      27
  -2  12  11      14      25
   3  12  11     127      33
  -3  12  11      16      28
   4  12  11     166      30
  -4  12  11      54      28
   5  12  11     152      31
  -5  12  11      69      29
   6  12  11     135      36
  -6  12  11     147      34
   7  12  11      14      35
  -7  12  11      36      32
   8  12  11      49      40
  -8  12  11     139      39
   9  12  11       6      44
  -9  12  11      13      42
  10  12  11       5      43
 -10  12  11      31      43
  11  12  11      39      49
 -11  12  11      11      51
   1  13  11      50      30
  -1  13  11      56      29
   2  13  11     179      36
  -2  13  11     201      34
   3  13  11     323      38
  -3  13  11     197      37
   4  13  11       6      38
  -4  13  11       5      32
   5  13  11     221      38
  -5  13  11     208      36
   6  13  11      74      38
  -6  13  11      20      32
   7  13  11       1      36
  -7  13  11      16      31
   8  13  11       0      41
  -8  13  11       6      42
   9  13  11       0      44
  -9  13  11       8      44
  10  13  11       1      50
 -10  13  11      57      47
  11  13  11      12      52
 -11  13  11      13      54
  12  13  11       0      56
 -12  13  11       0      55
   0  14  11      14      11
   1  14  11      14      32
  -1  14  11       3      31
   2  14  11     198      37
  -2  14  11     103      35
   3  14  11      85      34
  -3  14  11      32      33
   4  14  11      19      36
  -4  14  11     118      34
   5  14  11      12      39
  -5  14  11      98      34
   6  14  11       5      40
  -6  14  11      33      35
   7  14  11       1      41
  -7  14  11       6      37
   8  14  11       0      44
  -8  14  11      40      41
   9  14  11      30      48
  -9  14  11      60      47
  10  14  11       3      50
 -10  14  11      50      50
  11  14  11       9      53
 -11  14  11       9      54
  12  14  11      84      61
 -12  14  11      27      60
  13  14  11       1      65
 -13  14  11       1      64
   1  15  11      16      35
  -1  15  11      17      33
   2  15  11      31      36
  -2  15  11      13      36
   3  15  11      36      40
  -3  15  11      20      36
   4  15  11      32      40
  -4  15  11       4      36
   5  15  11       2      42
  -5  15  11      73      37
   6  15  11       9      43
  -6  15  11      78      39
   7  15  11      11      45
  -7  15  11      77      43
   8  15  11       9      47
  -8  15  11      94      45
   9  15  11      30      50
  -9  15  11      32      50
  10  15  11       0      57
 -10  15  11      34      61
  11  15  11      11      57
 -11  15  11       4      60
  12  15  11      21      63
 -12  15  11      20      63
   0  16  11      17      12
   1  16  11      84      42
  -1  16  11      33      39
   2  16  11      12      40
  -2  16  11      10      37
   3  16  11      11      42
  -3  16  11      19      39
   4  16  11       8      43
  -4  16  11      27      39
   5  16  11      22      43
  -5  16  11      70      39
   6  16  11      21      52
  -6  16  11      99      48
   7  16  11       9      50
  -7  16  11      57      47
   8  16  11      31      51
  -8  16  11      21      51
   9  16  11       0      55
  -9  16  11      35      58
  10  16  11       8      63
 -10  16  11     115      63
  11  16  11      16      60
 -11  16  11       2      62
   1  17  11       2      42
  -1  17  11      83      42
   2  17  11       1      44
  -2  17  11       2      41
   3  17  11       3      45
  -3  17  11      41      42
   4  17  11      36      46
  -4  17  11     112      43
   5  17  11      81      48
  -5  17  11      23      45
   6  17  11      62      56
  -6  17  11       9      49
   7  17  11      15      60
  -7  17  11      13      51
   8  17  11      15      60
  -8  17  11      88      57
   9  17  11      18      63
  -9  17  11      85      59
  10  17  11      68      87
 -10  17  11       0      78
   0  18  11       1      19
   1  18  11       2      59
  -1  18  11      27      59
   2  18  11      24      56
  -2  18  11       7      57
   3  18  11      16      59
  -3  18  11       6      59
   4  18  11       0      61
  -4  18  11      17      63
   5  18  11      20      60
  -5  18  11      33      59
   6  18  11      11      61
  -6  18  11      54      61
   7  18  11      16      61
  -7  18  11     121      62
   8  18  11      60      67
  -8  18  11      23      66
   1  19  11      66      61
  -1  19  11       7      60
   2  19  11       0      61
  -2  19  11       5      63
   3  19  11       0      64
  -3  19  11      89      68
   4  19  11       0      63
  -4  19  11      10      65
   5  19  11      27      65
  -5  19  11     149      68
   0   0  12   60892    1600
   1   1  12     154       7
   0   2  12   98314    1817
   1   2  12     386      16
  -1   2  12     419      14
   2   2  12   62761     880
   1   3  12    1335      84
  -1   3  12    1695      83
   2   3  12     950      46
  -2   3  12     808      46
   3   3  12    2981      38
   0   4  12   36627     359
   1   4  12     722      44
  -1   4  12     676      43
   2   4  12   39658    1112
  -2   4  12   40554    1162
   3   4  12    3049      93
  -3   4  12    3112      91
   4   4  12   94519    1710
   1   5  12     323      18
  -1   5  12     261      19
   2   5  12      36       9
  -2   5  12      10       9
   3   5  12    8471     257
  -3   5  12    8485     269
   4   5  12    1721      61
  -4   5  12    1722      63
   5   5  12      89      11
   0   6  12   19970     206
   1   6  12     686      33
  -1   6  12     701      30
   2   6  12   30357     877
  -2   6  12   28798     872
   3   6  12     481      30
  -3   6  12     566      29
   4   6  12   20415     550
  -4   6  12   22153     551
   5   6  12    4146     126
  -5   6  12    4332     128
   6   6  12   13163     125
   1   7  12     311      20
  -1   7  12     253      21
   2   7  12     723      42
  -2   7  12     667      45
   3   7  12      41      18
  -3   7  12      72      15
   4   7  12    3912     134
  -4   7  12    4316     137
   5   7  12     532      31
  -5   7  12     505      31
   6   7  12     782      37
  -6   7  12     656      35
   7   7  12    5278      50
   0   8  12    6301      70
   1   8  12     319      20
  -1   8  12     231      21
   2   8  12    4387     143
  -2   8  12    4617     152
   3   8  12    1383      49
  -3   8  12    1450      49
   4   8  12   10878     307
  -4   8  12   10565     310
   5   8  12      25      12
  -5   8  12      54      14
   6   8  12   10097     327
  -6   8  12   11586     342
   7   8  12    1148      51
  -7   8  12    1018      49
   8   8  12    6479      66
   1   9  12     102      19
  -1   9  12      85      19
   2   9  12      46      19
  -2   9  12      53      20
   3   9  12    2074      85
  -3   9  12    2110      89
   4   9  12      63      19
  -4   9  12      59      16
   5   9  12     570      37
  -5   9  12     701      40
   6   9  12    1030      49
  -6   9  12    1001      48
   7   9  12    3468     115
  -7   9  12    3682     117
   8   9  12      13      21
  -8   9  12       1      21
   9   9  12    3451      41
   0  10  12    1450      28
   1  10  12     121      27
  -1  10  12     117      26
   2  10  12    7575     281
  -2  10  12    8296     285
   3  10  12      81      23
  -3  10  12      37      22
   4  10  12    2771     110
  -4  10  12    2866     104
   5  10  12      23      26
  -5  10  12       0      22
   6  10  12    5480     212
  -6  10  12    5725     199
   7  10  12     139      30
  -7  10  12      43      26
   8  10  12    3309     120
  -8  10  12    3433     114
   9  10  12      79      36
  -9  10  12      16      30
  10  10  12    2420      39
   1  11  12    1733      93
  -1  11  12    1551      92
   2  11  12     269      33
  -2  11  12     288      32
   3  11  12     681      50
  -3  11  12     674      49
   4  11  12      39      27
  -4  11  12      37      28
   5  11  12    1649      78
  -5  11  12    1619      74
   6  11  12     749      58
  -6  11  12     906      56
   7  11  12    1438      89
  -7  11  12    1463      82
   8  11  12       1      34
  -8  11  12      28      30
   9  11  12    2497     122
  -9  11  12    2746     118
  10  11  12     336      53
 -10  11  12     380      53
  11  11  12     934      27
   0  12  12    4178      55
   1  12  12      86      32
  -1  12  12      78      30
   2  12  12    2434     110
  -2  12  12    2360     107
   3  12  12       2      29
  -3  12  12       2      26
   4  12  12    2009      91
  -4  12  12    2024      87
   5  12  12     652      56
  -5  12  12     769      54
   6  12  12    1942     105
  -6  12  12    1984      94
   7  12  12       5      37
  -7  12  12      50      31
   8  12  12    1881     106
  -8  12  12    1895     100
   9  12  12     227      47
  -9  12  12     326      45
  10  12  12     717      77
 -10  12  12     731      78
  11  12  12       2      47
 -11  12  12       0      51
  12  12  12     337      23
   1  13  12     244      39
  -1  13  12     265      38
   2  13  12     423      51
  -2  13  12     425      49
   3  13  12     691      61
  -3  13  12     771      59
   4  13  12     147      39
  -4  13  12      77      34
   5  13  12     931      67
  -5  13  12     982      62
   6  13  12      18      37
  -6  13  12      80      34
   7  13  12     317      53
  -7  13  12     316      52
   8  13  12     130      43
  -8  13  12      62      39
   9  13  12     540      77
  -9  13  12     609      74
  10  13  12       8      53
 -10  13  12      20      54
  11  13  12     293      66
 -11  13  12     438      71
  12  13  12      20      56
 -12  13  12       0      56
  13  13  12      72      24
   0  14  12    1038      25
   1  14  12      57      34
  -1  14  12      96      33
   2  14  12     758      69
  -2  14  12    1035      69
   3  14  12       0      35
  -3  14  12       0      32
   4  14  12     485      68
  -4  14  12     525      62
   5  14  12      26      39
  -5  14  12       3      34
   6  14  12     308      48
  -6  14  12     340      43
   7  14  12       2      43
  -7  14  12      34      40
   8  14  12     917      81
  -8  14  12     558      75
   9  14  12       1      53
  -9  14  12      76      51
  10  14  12     308      75
 -10  14  12     641      83
  11  14  12       2      54
 -11  14  12       4      55
  12  14  12     199      71
 -12  14  12      46      66
  13  14  12      41      65
 -13  14  12      13      65
   1  15  12      46      37
  -1  15  12      47      36
   2  15  12       5      38
  -2  15  12       4      35
   3  15  12       7      40
  -3  15  12      26      37
   4  15  12      36      41
  -4  15  12      11      37
   5  15  12      57      44
  -5  15  12      53      39
   6  15  12      15      45
  -6  15  12      31      42
   7  15  12     197      56
  -7  15  12     319      55
   8  15  12      46      48
  -8  15  12       4      46
   9  15  12     327      62
  -9  15  12     431      64
  10  15  12      30      57
 -10  15  12       2      60
  11  15  12     157      62
 -11  15  12      65      64
  12  15  12      21      66
 -12  15  12      82      69
   0  16  12     106      14
   1  16  12       3      42
  -1  16  12       3      39
   2  16  12       7      41
  -2  16  12      44      38
   3  16  12       4      44
  -3  16  12      29      42
   4  16  12     261      51
  -4  16  12     226      47
   5  16  12      20      46
  -5  16  12     119      44
   6  16  12     240      55
  -6  16  12     224      53
   7  16  12      30      50
  -7  16  12      29      49
   8  16  12     190      60
  -8  16  12     367      58
   9  16  12       7      56
  -9  16  12     155      58
  10  16  12      20      66
 -10  16  12     127      68
  11  16  12      14      66
 -11  16  12     102      67
   1  17  12       2      44
  -1  17  12      36      43
   2  17  12      48      53
  -2  17  12     188      47
   3  17  12      53      49
  -3  17  12     124      46
   4  17  12       4      49
  -4  17  12      27      49
   5  17  12      26      49
  -5  17  12       4      46
   6  17  12       9      52
  -6  17  12      98      52
   7  17  12     253      60
  -7  17  12      18      53
   8  17  12      31      58
  -8  17  12      60      56
   9  17  12      23      66
  -9  17  12     133      66
   0  18  12      74      20
   1  18  12       4      59
  -1  18  12      40      58
   2  18  12     108      59
  -2  18  12      14      58
   3  18  12     115      69
  -3  18  12       9      66
   4  18  12      19      60
  -4  18  12      81      61
   5  18  12      16      64
  -5  18  12     139      62
   6  18  12       9      66
  -6  18  12     185      64
   7  18  12      10      63
  -7  18  12      57      63
   1  19  12       9      62
  -1  19  12      70      62
   2  19  12      64      67
  -2  19  12      77      70
   3  19  12      15      67
  -3  19  12     150      70
   4  19  12      53      65
  -4  19  12      60      67
   0   2  13    1569      11
   1   2  13     808      39
  -1   2  13     788      38
   1   3  13    1868      52
  -1   3  13    1971      51
   2   3  13      45      12
  -2   3  13      10      12
   0   4  13   12281      97
   1   4  13     110      11
  -1   4  13     126      11
   2   4  13     861      40
  -2   4  13     808      41
   3   4  13     275      23
  -3   4  13      63      32
   1   5  13    2074     101
  -1   5  13    2310      99
   2   5  13     222      15
  -2   5  13      41      12
   3   5  13     240      14
  -3   5  13     228      14
   4   5  13     160      27
  -4   5  13     101      29
   0   6  13      30       8
   1   6  13      36      13
  -1   6  13      38      12
   2   6  13     546      31
  -2   6  13     479      29
   3   6  13    2152      83
  -3   6  13    2290      83
   4   6  13     130      22
  -4   6  13      88      22
   5   6  13     194      23
  -5   6  13     207      23
   1   7  13       3      12
  -1   7  13       0      13
   2   7  13     262      25
  -2   7  13     338      23
   3   7  13      99      14
  -3   7  13      18      12
   4   7  13    1098      33
  -4   7  13    1060      34
   5   7  13     309      20
  -5   7  13     276      20
   6   7  13     261      29
  -6   7  13     287      25
   0   8  13     804      13
   1   8  13     263      20
  -1   8  13     249      21
   2   8  13      53      19
  -2   8  13     156      20
   3   8  13       3      14
  -3   8  13       6      12
   4   8  13     610      41
  -4   8  13     477      39
   5   8  13     397      35
  -5   8  13     499      32
   6   8  13     132      15
  -6   8  13      34      15
   7   8  13     201      28
  -7   8  13     183      27
   1   9  13     231      25
  -1   9  13     156      23
   2   9  13      45      16
  -2   9  13      17      19
   3   9  13     261      22
  -3   9  13     182      23
   4   9  13      14      16
  -4   9  13      57      14
   5   9  13      18      17
  -5   9  13       0      19
   6   9  13       3      18
  -6   9  13       1      19
   7   9  13     133      26
  -7   9  13     121      25
   8   9  13      15      21
  -8   9  13       1      20
   0  10  13     185       9
   1  10  13     152      27
  -1  10  13     152      26
   2  10  13      52      22
  -2  10  13      79      23
   3  10  13     268      39
  -3  10  13     267      39
   4  10  13      94      27
  -4  10  13       3      21
   5  10  13      88      27
  -5  10  13      68      24
   6  10  13     703      48
  -6  10  13     817      46
   7  10  13     976      49
  -7  10  13     728      45
   8  10  13      27      26
  -8  10  13      55      25
   9  10  13      11      31
  -9  10  13       1      29
   1  11  13     717      51
  -1  11  13     667      50
   2  11  13     756      52
  -2  11  13     751      51
   3  11  13     121      26
  -3  11  13      18      27
   4  11  13      14      26
  -4  11  13       4      25
   5  11  13    1975      94
  -5  11  13    2278      90
   6  11  13     371      48
  -6  11  13     277      42
   7  11  13      29      33
  -7  11  13      46      29
   8  11  13      67      35
  -8  11  13      21      31
   9  11  13      17      39
  -9  11  13      34      35
  10  11  13      30      41
 -10  11  13       0      38
   0  12  13     182      11
   1  12  13     895      62
  -1  12  13     945      63
   2  12  13    2042      97
  -2  12  13    2063      95
   3  12  13      32      27
  -3  12  13       5      26
   4  12  13    1206      72
  -4  12  13    1241      69
   5  12  13     423      51
  -5  12  13     346      47
   6  12  13      62      34
  -6  12  13       3      30
   7  12  13      81      38
  -7  12  13      30      35
   8  12  13       4      41
  -8  12  13      78      37
   9  12  13     314      47
  -9  12  13     188      43
  10  12  13      11      44
 -10  12  13      42      49
  11  12  13       0      49
 -11  12  13      93      53
   1  13  13     174      45
  -1  13  13     210      46
   2  13  13      44      32
  -2  13  13      25      30
   3  13  13       8      33
  -3  13  13       7      30
   4  13  13      22      36
  -4  13  13      49      32
   5  13  13       2      34
  -5  13  13      39      31
   6  13  13     164      40
  -6  13  13     141      36
   7  13  13      66      42
  -7  13  13       7      42
   8  13  13      34      43
  -8  13  13     118      40
   9  13  13      18      47
  -9  13  13       4      41
  10  13  13       5      49
 -10  13  13      19      50
  11  13  13      42      60
 -11  13  13       4      59
  12  13  13       5      58
 -12  13  13      69      61
   0  14  13     114      11
   1  14  13      35      33
  -1  14  13      13      32
   2  14  13      85      39
  -2  14  13     140      37
   3  14  13      17      37
  -3  14  13     120      34
   4  14  13     106      44
  -4  14  13     108      38
   5  14  13     254      54
  -5  14  13     243      48
   6  14  13      48      42
  -6  14  13       6      39
   7  14  13      22      45
  -7  14  13     117      41
   8  14  13       6      51
  -8  14  13      33      45
   9  14  13      10      49
  -9  14  13      10      48
  10  14  13       7      53
 -10  14  13      55      54
  11  14  13      16      61
 -11  14  13      48      63
  12  14  13     129      64
 -12  14  13      26      66
  13  14  13      39      67
 -13  14  13      41      66
   1  15  13      32      39
  -1  15  13       1      36
   2  15  13      55      40
  -2  15  13      15      36
   3  15  13       4      40
  -3  15  13       3      36
   4  15  13     170      45
  -4  15  13     160      40
   5  15  13      15      43
  -5  15  13      98      41
   6  15  13       0      49
  -6  15  13       9      45
   7  15  13      33      47
  -7  15  13      14      44
   8  15  13       3      50
  -8  15  13      31      49
   9  15  13      69      53
  -9  15  13      17      51
  10  15  13       7      63
 -10  15  13      52      64
  11  15  13      18      67
 -11  15  13      16      69
  12  15  13     101      66
 -12  15  13      14      65
   0  16  13       3      14
   1  16  13      10      44
  -1  16  13      26      41
   2  16  13      56      49
  -2  16  13       8      43
   3  16  13     122      46
  -3  16  13      10      42
   4  16  13      55      45
  -4  16  13      21      43
   5  16  13       2      46
  -5  16  13      76      44
   6  16  13       4      48
  -6  16  13       9      45
   7  16  13       1      49
  -7  16  13       7      48
   8  16  13     185      54
  -8  16  13      12      51
   9  16  13      33      57
  -9  16  13      66      62
  10  16  13      13      63
 -10  16  13     152      72
  11  16  13      23     108
 -11  16  13      26     111
   1  17  13       0      46
  -1  17  13      39      45
   2  17  13      69      48
  -2  17  13      12      46
   3  17  13      29      52
  -3  17  13      80      50
   4  17  13      81      49
  -4  17  13      19      47
   5  17  13       0      49
  -5  17  13      21      47
   6  17  13      18      50
  -6  17  13      95      48
   7  17  13     125      55
  -7  17  13       3      51
   8  17  13       7      54
  -8  17  13     117      55
   9  17  13      16      64
  -9  17  13      17      69
   0  18  13       0      19
   1  18  13     116      58
  -1  18  13      14      56
   2  18  13      26      58
  -2  18  13      61      58
   3  18  13      14      62
  -3  18  13      48      65
   4  18  13      61      64
  -4  18  13       3      60
   5  18  13      18      63
  -5  18  13     162      62
   6  18  13     149      65
  -6  18  13     111      67
   7  18  13      66      64
  -7  18  13       6      64
   1  19  13      32      63
  -1  19  13       0      66
   2  19  13      11      64
  -2  19  13      56      68
   3  19  13      24      65
  -3  19  13      48      69
   4  19  13      19     117
  -4  19  13     244     138
   0   0  14   11211     180
   1   1  14     273       5
   0   2  14    6945      63
   1   2  14      16       7
  -1   2  14      53       7
   2   2  14   10173      91
   1   3  14       0      10
  -1   3  14       7       9
   2   3  14     914      33
  -2   3  14     865      34
   3   3  14     459       9
   0   4  14    3343      29
   1   4  14     238      16
  -1   4  14     267      15
   2   4  14    6000     188
  -2   4  14    6068     187
   3   4  14      17      10
  -3   4  14       2      11
   4   4  14    3225      41
   1   5  14     163      15
  -1   5  14     124      14
   2   5  14     825      34
  -2   5  14     878      32
   3   5  14     417      24
  -3   5  14     389      25
   4   5  14      23      13
  -4   5  14      37      14
   5   5  14     987      19
   0   6  14    1350      11
   1   6  14     225      15
  -1   6  14     202      15
   2   6  14    1948      64
  -2   6  14    1925      62
   3   6  14      74      15
  -3   6  14      53      15
   4   6  14    3650     124
  -4   6  14    3784     129
   5   6  14      37      15
  -5   6  14      40      15
   6   6  14    2388      35
   1   7  14       0      13
  -1   7  14      12      14
   2   7  14     129      17
  -2   7  14     131      14
   3   7  14     273      15
  -3   7  14     230      14
   4   7  14      52      13
  -4   7  14      25      12
   5   7  14     109      19
  -5   7  14     109      20
   6   7  14     260      35
  -6   7  14     262      36
   7   7  14      81       9
   0   8  14     870      19
   1   8  14      81      16
  -1   8  14      67      17
   2   8  14    1640      69
  -2   8  14    1749      74
   3   8  14      15      17
  -3   8  14       2      14
   4   8  14     980      33
  -4   8  14     742      31
   5   8  14     188      19
  -5   8  14     250      20
   6   8  14     917      47
  -6   8  14     711      44
   7   8  14      92      25
  -7   8  14     124      26
   8   8  14     389      13
   1   9  14     106      25
  -1   9  14     120      25
   2   9  14     285      23
  -2   9  14     188      24
   3   9  14      11      16
  -3   9  14       4      17
   4   9  14     231      25
  -4   9  14     166      22
   5   9  14     327      24
  -5   9  14      38      21
   6   9  14       3      21
  -6   9  14       3      19
   7   9  14      93      23
  -7   9  14     100      24
   8   9  14      87      28
  -8   9  14     107      28
   9   9  14     101      10
   0  10  14    1414      22
   1  10  14       8      22
  -1  10  14       3      21
   2  10  14      59      23
  -2  10  14      17      23
   3  10  14       6      26
  -3  10  14       1      25
   4  10  14     865      53
  -4  10  14     581      49
   5  10  14      19      26
  -5  10  14      18      22
   6  10  14     417      51
  -6  10  14     385      41
   7  10  14       5      28
  -7  10  14       4      24
   8  10  14     245      40
  -8  10  14     246      36
   9  10  14      15      36
  -9  10  14      49      32
  10  10  14     289      16
   1  11  14       1      24
  -1  11  14       1      23
   2  11  14      39      23
  -2  11  14      40      24
   3  11  14     956      61
  -3  11  14     893      62
   4  11  14       9      23
  -4  11  14      33      23
   5  11  14     239      38
  -5  11  14     137      33
   6  11  14      47      32
  -6  11  14      36      27
   7  11  14      43      36
  -7  11  14       1      32
   8  11  14      12      39
  -8  11  14      11      34
   9  11  14      51      38
  -9  11  14      98      37
  10  11  14      13      42
 -10  11  14      14      44
  11  11  14     114      17
   0  12  14     994      22
   1  12  14       9      29
  -1  12  14      41      29
   2  12  14     648      54
  -2  12  14     667      54
   3  12  14      16      31
  -3  12  14      14      28
   4  12  14     192      38
  -4  12  14     217      34
   5  12  14      90      36
  -5  12  14      47      32
   6  12  14     115      38
  -6  12  14     118      35
   7  12  14      15      39
  -7  12  14      15      35
   8  12  14      97      43
  -8  12  14      87      39
   9  12  14       1      40
  -9  12  14       0      37
  10  12  14      19      50
 -10  12  14     212      54
  11  12  14      43      53
 -11  12  14       1      53
  12  12  14      34      20
   1  13  14       0      30
  -1  13  14       0      30
   2  13  14      52      33
  -2  13  14      19      30
   3  13  14     124      39
  -3  13  14     252      36
   4  13  14       1      37
  -4  13  14       1      33
   5  13  14      34      37
  -5  13  14      86      33
   6  13  14      89      40
  -6  13  14       9      36
   7  13  14      20      40
  -7  13  14      19      37
   8  13  14      28      42
  -8  13  14      70      40
   9  13  14      18      46
  -9  13  14       4      42
  10  13  14      19      54
 -10  13  14       4      55
  11  13  14      12      59
 -11  13  14      37      59
  12  13  14       6      63
 -12  13  14       6      62
  13  13  14      81      23
   0  14  14     118      16
   1  14  14       2      36
  -1  14  14      12      33
   2  14  14     277      45
  -2  14  14     217      44
   3  14  14       8      37
  -3  14  14       7      33
   4  14  14      73      40
  -4  14  14     124      36
   5  14  14      35      41
  -5  14  14      10      38
   6  14  14      32      45
  -6  14  14      14      41
   7  14  14      55      49
  -7  14  14     105      43
   8  14  14      27      51
  -8  14  14       9      46
   9  14  14       1      48
  -9  14  14       4      45
  10  14  14      24      54
 -10  14  14     146      56
  11  14  14      80      68
 -11  14  14       1      65
  12  14  14     129      75
 -12  14  14      82      72
  13  14  14      19      66
 -13  14  14      18      65
   1  15  14      15      40
  -1  15  14       1      39
   2  15  14       4      40
  -2  15  14       3      37
   3  15  14     161      42
  -3  15  14      15      38
   4  15  14      59      48
  -4  15  14       5      42
   5  15  14       8      44
  -5  15  14      16      42
   6  15  14      10      49
  -6  15  14       2      45
   7  15  14       4      47
  -7  15  14       3      44
   8  15  14      15      50
  -8  15  14      13      49
   9  15  14      54      56
  -9  15  14       6      59
  10  15  14     141      64
 -10  15  14      32      64
  11  15  14      21      69
 -11  15  14      91      71
  12  15  14      57      77
 -12  15  14      11      73
   0  16  14      15      14
   1  16  14      21      44
  -1  16  14      89      42
   2  16  14      74      45
  -2  16  14      16      43
   3  16  14      12      46
  -3  16  14       0      46
   4  16  14       1      46
  -4  16  14      19      43
   5  16  14       1      47
  -5  16  14       3      45
   6  16  14      28      48
  -6  16  14      30      45
   7  16  14      75      50
  -7  16  14      31      48
   8  16  14      25      56
  -8  16  14       4      51
   9  16  14      15      63
  -9  16  14     104      66
  10  16  14      68      66
 -10  16  14      16      73
   1  17  14       4      48
  -1  17  14       0      46
   2  17  14       5      49
  -2  17  14       0      48
   3  17  14      44      50
  -3  17  14       7      50
   4  17  14       0      52
  -4  17  14       3      53
   5  17  14       0      52
  -5  17  14      23      55
   6  17  14       0      52
  -6  17  14       2      49
   7  17  14       4      53
  -7  17  14      14      50
   8  17  14       9      53
  -8  17  14      45      52
   9  17  14      10     100
  -9  17  14       8      91
   0  18  14       2      16
   1  18  14      22      57
  -1  18  14      23      58
   2  18  14       1      52
  -2  18  14       4      51
   3  18  14       1      58
  -3  18  14       4      57
   4  18  14      78      62
  -4  18  14      13      54
   5  18  14       5      62
  -5  18  14      58      65
   6  18  14      55      61
  -6  18  14      24      56
   1  19  14      15      66
  -1  19  14       3      69
   2  19  14      12      65
  -2  19  14      74      69
   3  19  14       2     101
  -3  19  14      86     105
   0   2  15     201       3
   1   2  15      68      11
  -1   2  15     118      12
   1   3  15      54      16
  -1   3  15      32      14
   2   3  15     180      15
  -2   3  15     148      14
   0   4  15     405       7
   1   4  15       8      12
  -1   4  15      50      11
   2   4  15       9      11
  -2   4  15       7      11
   3   4  15       7      12
  -3   4  15       1      12
   1   5  15      16      10
  -1   5  15      18       9
   2   5  15     255      22
  -2   5  15     274      22
   3   5  15     221      18
  -3   5  15     196      17
   4   5  15      16      16
  -4   5  15      51      16
   0   6  15      20       3
   1   6  15      96      13
  -1   6  15     108      13
   2   6  15     133      16
  -2   6  15     149      17
   3   6  15     203      22
  -3   6  15     212      22
   4   6  15     129      15
  -4   6  15      55      17
   5   6  15     129      19
  -5   6  15      67      19
   1   7  15      60      19
  -1   7  15      31      16
   2   7  15       9      16
  -2   7  15       1      13
   3   7  15      51      15
  -3   7  15      62      14
   4   7  15     848      42
  -4   7  15     847      45
   5   7  15       0      15
  -5   7  15       0      16
   6   7  15      57      20
  -6   7  15      43      20
   0   8  15       6       5
   1   8  15      46      17
  -1   8  15      40      19
   2   8  15      57      19
  -2   8  15       4      17
   3   8  15       1      17
  -3   8  15       1      15
   4   8  15       7      14
  -4   8  15       9      13
   5   8  15      60      19
  -5   8  15       2      19
   6   8  15      34      18
  -6   8  15       1      17
   7   8  15       1      21
  -7   8  15       0      24
   1   9  15      26      17
  -1   9  15      31      18
   2   9  15     206      22
  -2   9  15     162      24
   3   9  15     109      24
  -3   9  15      74      23
   4   9  15      76      22
  -4   9  15       4      21
   5   9  15      17      22
  -5   9  15       4      20
   6   9  15      55      21
  -6   9  15      27      19
   7   9  15      52      23
  -7   9  15      11      23
   8   9  15       8      25
  -8   9  15      17      25
   0  10  15      10       8
   1  10  15      67      23
  -1  10  15       5      22
   2  10  15     247      29
  -2  10  15      11      26
   3  10  15    1043      60
  -3  10  15     775      58
   4  10  15     143      28
  -4  10  15       7      24
   5  10  15      52      27
  -5  10  15      17      22
   6  10  15       0      27
  -6  10  15       1      22
   7  10  15      68      30
  -7  10  15       2      27
   8  10  15      18      30
  -8  10  15      17      27
   9  10  15       2      35
  -9  10  15       2      31
   1  11  15      23      26
  -1  11  15      75      25
   2  11  15     197      43
  -2  11  15     282      39
   3  11  15       1      29
  -3  11  15      20      25
   4  11  15     110      30
  -4  11  15       7      26
   5  11  15     240      33
  -5  11  15      81      28
   6  11  15     117      35
  -6  11  15      19      31
   7  11  15       0      34
  -7  11  15       4      31
   8  11  15      48      40
  -8  11  15     128      37
   9  11  15      16      37
  -9  11  15      16      35
  10  11  15       2      42
 -10  11  15       2      46
   0  12  15       5       9
   1  12  15      43      28
  -1  12  15      33      29
   2  12  15       1      32
  -2  12  15       6      31
   3  12  15      39      33
  -3  12  15      22      31
   4  12  15     118      34
  -4  12  15      37      31
   5  12  15     125      36
  -5  12  15      12      34
   6  12  15       6      39
  -6  12  15       1      35
   7  12  15      68      38
  -7  12  15      45      35
   8  12  15      35      39
  -8  12  15      11      36
   9  12  15      15      43
  -9  12  15       1      39
  10  12  15       8      49
 -10  12  15      84      53
  11  12  15       4      53
 -11  12  15       5      52
   1  13  15      18      35
  -1  13  15      15      32
   2  13  15       2      34
  -2  13  15      18      31
   3  13  15       2      35
  -3  13  15       8      32
   4  13  15      17      36
  -4  13  15      84      33
   5  13  15      31      37
  -5  13  15       7      35
   6  13  15      64      40
  -6  13  15      47      38
   7  13  15      10      40
  -7  13  15      27      38
   8  13  15      15      44
  -8  13  15       0      39
   9  13  15      14      49
  -9  13  15      54      45
  10  13  15      70      51
 -10  13  15      48      52
  11  13  15      42      63
 -11  13  15      11      58
  12  13  15       7      64
 -12  13  15      89      65
   0  14  15       2      13
   1  14  15      32      37
  -1  14  15      10      36
   2  14  15      12      37
  -2  14  15      13      34
   3  14  15       2      38
  -3  14  15       2      34
   4  14  15       3      40
  -4  14  15      30      38
   5  14  15     184      45
  -5  14  15     111      42
   6  14  15       2      43
  -6  14  15       7      40
   7  14  15       4      48
  -7  14  15       5      44
   8  14  15      37      50
  -8  14  15      17      45
   9  14  15      53      51
  -9  14  15       6      51
  10  14  15      12      57
 -10  14  15      13      57
  11  14  15      16      67
 -11  14  15      82      66
  12  14  15      10      74
 -12  14  15      96      78
   1  15  15       4      41
  -1  15  15      12      39
   2  15  15      12      42
  -2  15  15      13      39
   3  15  15      38      43
  -3  15  15      39      42
   4  15  15      17      44
  -4  15  15      50      42
   5  15  15     108      47
  -5  15  15      10      45
   6  15  15       3      45
  -6  15  15       2      43
   7  15  15      57      48
  -7  15  15       1      45
   8  15  15       1      49
  -8  15  15       0      46
   9  15  15      17      57
  -9  15  15      17      55
  10  15  15      64      60
 -10  15  15      19      64
  11  15  15     102      67
 -11  15  15      23      69
   0  16  15      68      15
   1  16  15      49      47
  -1  16  15      66      44
   2  16  15       5      48
  -2  16  15      36      47
   3  16  15      88      49
  -3  16  15       1      48
   4  16  15      78      49
  -4  16  15      60      47
   5  16  15      16      50
  -5  16  15       0      49
   6  16  15      15      52
  -6  16  15     154      53
   7  16  15       4      50
  -7  16  15      13      48
   8  16  15       9      53
  -8  16  15       9      50
   9  16  15      83      58
  -9  16  15       4      60
  10  16  15     118      73
 -10  16  15      11      71
   1  17  15      30      49
  -1  17  15       4      49
   2  17  15       7      50
  -2  17  15       6      50
   3  17  15     152      52
  -3  17  15       9      51
   4  17  15      17      50
  -4  17  15      77      50
   5  17  15      40      52
  -5  17  15      92      50
   6  17  15      33      53
  -6  17  15       1      51
   7  17  15      76      58
  -7  17  15      13      54
   8  17  15      45      57
  -8  17  15       0      53
   0  18  15      14      17
   1  18  15      63      49
  -1  18  15      10      50
   2  18  15       7      53
  -2  18  15      72      52
   3  18  15       9      55
  -3  18  15      74      58
   4  18  15     113      56
  -4  18  15       3      53
   5  18  15      47      61
  -5  18  15      74      56
   6  18  15     107      64
  -6  18  15      32      57
   1  19  15      12     109
  -1  19  15      83     113
   0   0  16   38014     555
   1   1  16    3316      25
   0   2  16   67578     743
   1   2  16     650      27
  -1   2  16     660      27
   2   2  16   42232     438
   1   3  16    2421      68
  -1   3  16    2460      63
   2   3  16     802      36
  -2   3  16     796      36
   3   3  16    3930      41
   0   4  16   63585     570
   1   4  16       4      13
  -1   4  16      56      11
   2   4  16   23887     732
  -2   4  16   23680     742
   3   4  16      35      13
  -3   4  16      82      13
   4   4  16   15378     161
   1   5  16      54      22
  -1   5  16      46      20
   2   5  16     440      28
  -2   5  16     376      27
   3   5  16    2748     100
  -3   5  16    2777     105
   4   5  16     377      29
  -4   5  16     378      29
   5   5  16    1733      30
   0   6  16   25391     234
   1   6  16       7      13
  -1   6  16      18      11
   2   6  16   18176     489
  -2   6  16   18364     482
   3   6  16     175      23
  -3   6  16     143      24
   4   6  16   10501     298
  -4   6  16   10908     309
   5   6  16     641      39
  -5   6  16     600      39
   6   6  16    7777      86
   1   7  16      65      20
  -1   7  16      49      17
   2   7  16     611      31
  -2   7  16     543      29
   3   7  16    1223      51
  -3   7  16    1096      49
   4   7  16    1183      53
  -4   7  16    1255      56
   5   7  16    3174     107
  -5   7  16    3207     111
   6   7  16      59      19
  -6   7  16      28      19
   7   7  16    1310      21
   0   8  16   13944     163
   1   8  16     347      30
  -1   8  16     264      31
   2   8  16    9042     295
  -2   8  16    9476     291
   3   8  16     172      24
  -3   8  16     134      21
   4   8  16   13918     402
  -4   8  16   12256     392
   5   8  16     145      22
  -5   8  16      70      22
   6   8  16    4424     149
  -6   8  16    4461     151
   7   8  16     284      34
  -7   8  16     268      34
   8   8  16    1410      26
   1   9  16     528      38
  -1   9  16     640      40
   2   9  16     155      27
  -2   9  16      13      25
   3   9  16    6176     210
  -3   9  16    5823     205
   4   9  16     698      45
  -4   9  16     527      41
   5   9  16    1365      66
  -5   9  16    1227      60
   6   9  16     593      44
  -6   9  16     468      44
   7   9  16     539      44
  -7   9  16     623      47
   8   9  16     270      34
  -8   9  16     251      35
   9   9  16     333      15
   0  10  16    3168      41
   1  10  16     166      28
  -1  10  16     203      29
   2  10  16   12404     406
  -2  10  16   12138     398
   3  10  16     119      32
  -3  10  16     167      29
   4  10  16     699      60
  -4  10  16     409      51
   5  10  16     435      39
  -5  10  16     172      33
   6  10  16    2000     101
  -6  10  16    1875      95
   7  10  16     245      34
  -7  10  16     131      32
   8  10  16     926      65
  -8  10  16     976      64
   9  10  16       9      33
  -9  10  16      34      31
  10  10  16     337      19
   1  11  16       4      28
  -1  11  16       3      25
   2  11  16      18      29
  -2  11  16      44      28
   3  11  16     885      66
  -3  11  16     729      59
   4  11  16     194      39
  -4  11  16     238      35
   5  11  16    1323      80
  -5  11  16    1176      75
   6  11  16     223      38
  -6  11  16      77      35
   7  11  16     916      70
  -7  11  16     705      65
   8  11  16      83      38
  -8  11  16       5      35
   9  11  16     245      43
  -9  11  16     112      41
  10  11  16       7      41
 -10  11  16       8      41
  11  11  16     387      22
   0  12  16     143      13
   1  12  16     137      36
  -1  12  16      33      34
   2  12  16     505      57
  -2  12  16     441      52
   3  12  16       7      32
  -3  12  16       7      28
   4  12  16    1584      96
  -4  12  16    1732      93
   5  12  16     112      38
  -5  12  16      33      36
   6  12  16    1508      91
  -6  12  16    1250      86
   7  12  16     211      42
  -7  12  16      99      38
   8  12  16     448      55
  -8  12  16     405      51
   9  12  16      13      43
  -9  12  16      59      42
  10  12  16     678      80
 -10  12  16     673      79
  11  12  16      86      57
 -11  12  16       7      56
  12  12  16    1223      36
   1  13  16     113      39
  -1  13  16      54      36
   2  13  16      41      36
  -2  13  16       9      32
   3  13  16      24      37
  -3  13  16      31      32
   4  13  16      90      40
  -4  13  16      25      37
   5  13  16     833      74
  -5  13  16     734      71
   6  13  16      87      42
  -6  13  16       3      39
   7  13  16     465      64
  -7  13  16     392      59
   8  13  16     103      47
  -8  13  16      16      42
   9  13  16     569      79
  -9  13  16     652      79
  10  13  16      61      53
 -10  13  16      61      54
  11  13  16     776     102
 -11  13  16     636      99
  12  13  16      60      69
 -12  13  16      53      64
  13  13  16     203      30
   0  14  16     893      25
   1  14  16       6      38
  -1  14  16      30      37
   2  14  16     322      54
  -2  14  16     328      49
   3  14  16      44      40
  -3  14  16       7      38
   4  14  16     689      73
  -4  14  16     561      69
   5  14  16      12      42
  -5  14  16      13      39
   6  14  16     528      61
  -6  14  16     223      54
   7  14  16     210      53
  -7  14  16      59      47
   8  14  16     473      70
  -8  14  16     671      68
   9  14  16      68      53
  -9  14  16      34      55
  10  14  16     374      71
 -10  14  16     356      70
  11  14  16      33      66
 -11  14  16      97      70
  12  14  16      58      72
 -12  14  16     358      77
   1  15  16      40      42
  -1  15  16      24      41
   2  15  16      34      44
  -2  15  16      19      44
   3  15  16     176      48
  -3  15  16      21      47
   4  15  16       1      49
  -4  15  16       5      45
   5  15  16     310      55
  -5  15  16     225      50
   6  15  16       8      48
  -6  15  16      60      45
   7  15  16     431      60
  -7  15  16     172      55
   8  15  16      42      53
  -8  15  16      68      50
   9  15  16     312      67
  -9  15  16     221      66
  10  15  16      48      64
 -10  15  16      14      66
  11  15  16      20      83
 -11  15  16     395      84
   0  16  16     219      17
   1  16  16       8      48
  -1  16  16       0      48
   2  16  16     188      58
  -2  16  16     124      55
   3  16  16      50      50
  -3  16  16      18      49
   4  16  16     276      56
  -4  16  16     175      53
   5  16  16       3      49
  -5  16  16       3      47
   6  16  16      60      54
  -6  16  16      85      51
   7  16  16      93      53
  -7  16  16       7      50
   8  16  16     231      66
  -8  16  16     466      66
   9  16  16      15      59
  -9  16  16      87      61
   1  17  16     128      56
  -1  17  16      14      53
   2  17  16      49      51
  -2  17  16      48      51
   3  17  16     279      62
  -3  17  16      14      56
   4  17  16      92      51
  -4  17  16       7      50
   5  17  16      40      53
  -5  17  16      24      51
   6  17  16      52      54
  -6  17  16       8      53
   7  17  16     283      67
  -7  17  16     202      62
   8  17  16     139      67
  -8  17  16      16      68
   0  18  16      44      19
   1  18  16       2      52
  -1  18  16      53      53
   2  18  16     104      59
  -2  18  16     111      57
   3  18  16       3      55
  -3  18  16      27      58
   4  18  16     126      59
  -4  18  16      13      55
   5  18  16      13      57
  -5  18  16      88      55
   0   2  17    3117      42
   1   2  17     513      32
  -1   2  17     520      30
   1   3  17      87      21
  -1   3  17      94      18
   2   3  17      76      14
  -2   3  17      43      13
   0   4  17    4934      52
   1   4  17    1807      69
  -1   4  17    1727      68
   2   4  17     318      25
  -2   4  17     316      25
   3   4  17      63      14
  -3   4  17      27      15
   1   5  17       1      13
  -1   5  17       3      12
   2   5  17     142      15
  -2   5  17      92      17
   3   5  17     425      31
  -3   5  17     385      31
   4   5  17     454      29
  -4   5  17     380      29
   0   6  17     397       6
   1   6  17     299      20
  -1   6  17     264      19
   2   6  17      49      13
  -2   6  17      76      13
   3   6  17    2751     106
  -3   6  17    2809     106
   4   6  17      26      16
  -4   6  17       4      17
   5   6  17      16      16
  -5   6  17       1      17
   1   7  17      17      17
  -1   7  17      23      14
   2   7  17     487      29
  -2   7  17     372      27
   3   7  17     199      17
  -3   7  17     182      18
   4   7  17     728      42
  -4   7  17     760      44
   5   7  17      14      17
  -5   7  17      13      18
   6   7  17      82      22
  -6   7  17      48      23
   0   8  17      21       6
   1   8  17     619      42
  -1   8  17     605      40
   2   8  17      16      19
  -2   8  17       1      17
   3   8  17      67      20
  -3   8  17       5      17
   4   8  17     492      38
  -4   8  17     336      39
   5   8  17     545      36
  -5   8  17     464      37
   6   8  17      90      24
  -6   8  17      90      25
   7   8  17     273      30
  -7   8  17     247      30
   1   9  17     359      37
  -1   9  17     419      37
   2   9  17    1589      77
  -2   9  17    1451      73
   3   9  17     157      27
  -3   9  17     205      28
   4   9  17     889      52
  -4   9  17     686      48
   5   9  17     180      25
  -5   9  17      46      24
   6   9  17     195      25
  -6   9  17     183      26
   7   9  17      57      26
  -7   9  17     100      28
   8   9  17      58      27
  -8   9  17      13      27
   0  10  17     624      17
   1  10  17      38      24
  -1  10  17       9      22
   2  10  17      86      27
  -2  10  17      19      28
   3  10  17    3542     149
  -3  10  17    3897     145
   4  10  17      41      30
  -4  10  17      11      25
   5  10  17      54      32
  -5  10  17      18      29
   6  10  17      14      28
  -6  10  17      14      28
   7  10  17      15      30
  -7  10  17      14      32
   8  10  17      46      31
  -8  10  17       7      30
   9  10  17       0      35
  -9  10  17      12      36
   1  11  17      27      30
  -1  11  17      32      27
   2  11  17     204      39
  -2  11  17     188      36
   3  11  17      51      31
  -3  11  17      21      27
   4  11  17     126      36
  -4  11  17     113      34
   5  11  17     723      66
  -5  11  17     556      61
   6  11  17      21      35
  -6  11  17      10      33
   7  11  17      52      38
  -7  11  17       5      34
   8  11  17      87      41
  -8  11  17     174      38
   9  11  17       0      41
  -9  11  17      42      41
  10  11  17       7      45
 -10  11  17       6      43
   0  12  17      42      12
   1  12  17     200      40
  -1  12  17     168      40
   2  12  17     169      38
  -2  12  17     197      34
   3  12  17     149      40
  -3  12  17     198      36
   4  12  17      25      35
  -4  12  17       7      33
   5  12  17      33      39
  -5  12  17      13      35
   6  12  17     183      42
  -6  12  17      54      38
   7  12  17      49      43
  -7  12  17     127      42
   8  12  17     111      43
  -8  12  17     213      40
   9  12  17     112      48
  -9  12  17      15      45
  10  12  17       7      53
 -10  12  17      82      52
  11  12  17       5      55
 -11  12  17      57      54
   1  13  17      36      41
  -1  13  17       2      37
   2  13  17     107      38
  -2  13  17       7      34
   3  13  17      74      42
  -3  13  17     126      39
   4  13  17     111      41
  -4  13  17      49      38
   5  13  17      17      40
  -5  13  17       2      37
   6  13  17      31      42
  -6  13  17       8      39
   7  13  17      21      43
  -7  13  17      13      39
   8  13  17     171      47
  -8  13  17       9      42
   9  13  17     139      50
  -9  13  17     129      49
  10  13  17      46      59
 -10  13  17      24      55
  11  13  17     209      72
 -11  13  17      40      66
  12  13  17      87      71
 -12  13  17      13      66
   0  14  17       0      13
   1  14  17     185      45
  -1  14  17     186      42
   2  14  17     142      43
  -2  14  17      26      42
   3  14  17      84      42
  -3  14  17      10      41
   4  14  17      30      42
  -4  14  17       1      40
   5  14  17      59      44
  -5  14  17      19      41
   6  14  17     261      52
  -6  14  17      86      47
   7  14  17      15      48
  -7  14  17      64      45
   8  14  17     192      55
  -8  14  17      60      48
   9  14  17      79      51
  -9  14  17      13      49
  10  14  17      30      71
 -10  14  17      92      71
  11  14  17     149      70
 -11  14  17      10      68
  12  14  17       3      69
 -12  14  17     330      75
   1  15  17      43      44
  -1  15  17       1      46
   2  15  17      35      45
  -2  15  17       8      46
   3  15  17      90      47
  -3  15  17      69      45
   4  15  17     128      49
  -4  15  17      47      47
   5  15  17     103      50
  -5  15  17       1      47
   6  15  17      68      51
  -6  15  17       7      46
   7  15  17       8      50
  -7  15  17      34      47
   8  15  17       9      53
  -8  15  17      36      51
   9  15  17     107      57
  -9  15  17      93      57
  10  15  17      20      69
 -10  15  17     103      73
  11  15  17      74      77
 -11  15  17       3      78
   0  16  17       5      16
   1  16  17      63      51
  -1  16  17     102      51
   2  16  17     171      53
  -2  16  17       8      51
   3  16  17     150      51
  -3  16  17       8      48
   4  16  17      81      53
  -4  16  17      51      51
   5  16  17      24      51
  -5  16  17      39      49
   6  16  17      10      58
  -6  16  17      49      54
   7  16  17      14      54
  -7  16  17      13      54
   8  16  17       7      62
  -8  16  17     208      69
   9  16  17      10      60
  -9  16  17      10      61
   1  17  17       5      55
  -1  17  17      50      53
   2  17  17      98      52
  -2  17  17      18      52
   3  17  17      83      52
  -3  17  17       7      51
   4  17  17      14      51
  -4  17  17      14      50
   5  17  17      14      54
  -5  17  17      67      52
   6  17  17      16      55
  -6  17  17      13      54
   7  17  17      17      56
  -7  17  17      15      53
   0  18  17     107      19
   1  18  17      10      56
  -1  18  17      98      56
   2  18  17      11      61
  -2  18  17      71      57
   3  18  17      98      56
  -3  18  17      19      54
   4  18  17      77      61
  -4  18  17       8      56
   0   0  18   26553     597
   1   1  18       4       4
   0   2  18   14833     120
   1   2  18       3      10
  -1   2  18      10      10
   2   2  18    9554      99
   1   3  18      30      13
  -1   3  18      45      12
   2   3  18     936      41
  -2   3  18     944      42
   3   3  18     218      10
   0   4  18    5737      48
   1   4  18     250      24
  -1   4  18     262      21
   2   4  18    5341     175
  -2   4  18    5247     178
   3   4  18      32      15
  -3   4  18      19      15
   4   4  18    2009      26
   1   5  18     382      23
  -1   5  18     368      22
   2   5  18      75      17
  -2   5  18      49      17
   3   5  18     351      33
  -3   5  18     388      35
   4   5  18      79      21
  -4   5  18     107      20
   5   5  18     279      10
   0   6  18    4592      37
   1   6  18      84      14
  -1   6  18      63      13
   2   6  18    3381      99
  -2   6  18    3434      99
   3   6  18     349      25
  -3   6  18     362      27
   4   6  18    1481      72
  -4   6  18    1494      73
   5   6  18     144      25
  -5   6  18     104      24
   6   6  18     798      16
   1   7  18     253      13
  -1   7  18     133      12
   2   7  18     105      16
  -2   7  18     130      15
   3   7  18     297      19
  -3   7  18     301      20
   4   7  18     179      21
  -4   7  18     157      22
   5   7  18     168      24
  -5   7  18     117      24
   6   7  18       1      21
  -6   7  18       2      23
   7   7  18     280      12
   0   8  18    1189      25
   1   8  18     104      24
  -1   8  18      93      23
   2   8  18    2713     109
  -2   8  18    2630     106
   3   8  18     319      34
  -3   8  18     361      32
   4   8  18     891      42
  -4   8  18     701      42
   5   8  18      23      20
  -5   8  18      36      21
   6   8  18     754      45
  -6   8  18     583      45
   7   8  18       9      23
  -7   8  18       4      23
   8   8  18     378      13
   1   9  18     215      30
  -1   9  18      99      27
   2   9  18       5      22
  -2   9  18       5      21
   3   9  18     239      26
  -3   9  18     141      25
   4   9  18      61      23
  -4   9  18       8      21
   5   9  18     322      41
  -5   9  18     373      39
   6   9  18      54      26
  -6   9  18       4      25
   7   9  18     287      35
  -7   9  18     206      33
   8   9  18       4      31
  -8   9  18       3      29
   9   9  18       9      11
   0  10  18    1115      23
   1  10  18      18      26
  -1  10  18       8      26
   2  10  18     450      40
  -2  10  18     262      35
   3  10  18      11      25
  -3  10  18      62      23
   4  10  18    1535      84
  -4  10  18    1426      80
   5  10  18       9      27
  -5  10  18      10      27
   6  10  18     160      36
  -6  10  18     151      35
   7  10  18      10      31
  -7  10  18       9      31
   8  10  18     163      39
  -8  10  18     121      40
   9  10  18       9      35
  -9  10  18       9      37
  10  10  18     241      15
   1  11  18       0      29
  -1  11  18      25      26
   2  11  18       6      30
  -2  11  18      16      27
   3  11  18     132      34
  -3  11  18      64      29
   4  11  18      11      32
  -4  11  18      21      30
   5  11  18      13      36
  -5  11  18      13      33
   6  11  18     123      40
  -6  11  18     102      38
   7  11  18      76      39
  -7  11  18      40      37
   8  11  18      49      40
  -8  11  18      22      36
   9  11  18      80      42
  -9  11  18       7      41
  10  11  18      44      49
 -10  11  18      68      48
  11  11  18      27      17
   0  12  18     322      15
   1  12  18      35      34
  -1  12  18      11      33
   2  12  18     314      45
  -2  12  18     296      41
   3  12  18      21      35
  -3  12  18      19      33
   4  12  18     113      41
  -4  12  18      94      38
   5  12  18      71      39
  -5  12  18      35      37
   6  12  18     136      41
  -6  12  18      12      37
   7  12  18       1      39
  -7  12  18       1      36
   8  12  18     186      48
  -8  12  18     240      46
   9  12  18      56      47
  -9  12  18      22      45
  10  12  18     103      54
 -10  12  18      35      50
  11  12  18       5      53
 -11  12  18       6      53
  12  12  18      53      20
   1  13  18      20      38
  -1  13  18       4      37
   2  13  18      67      40
  -2  13  18       9      41
   3  13  18       8      39
  -3  13  18       0      39
   4  13  18      15      39
  -4  13  18      51      37
   5  13  18       1      40
  -5  13  18       1      38
   6  13  18      23      41
  -6  13  18       1      39
   7  13  18     149      46
  -7  13  18      45      43
   8  13  18      46      45
  -8  13  18       2      42
   9  13  18      73      48
  -9  13  18      22      48
  10  13  18      17      56
 -10  13  18      50      54
  11  13  18      88      68
 -11  13  18      30      68
  12  13  18      11      70
 -12  13  18      37      70
   0  14  18       7      13
   1  14  18       9      41
  -1  14  18      49      43
   2  14  18      85      45
  -2  14  18      99      45
   3  14  18       4      42
  -3  14  18      11      42
   4  14  18     202      46
  -4  14  18      27      44
   5  14  18     183      48
  -5  14  18      14      44
   6  14  18     108      51
  -6  14  18      28      46
   7  14  18      25      48
  -7  14  18      11      44
   8  14  18      91      55
  -8  14  18      25      54
   9  14  18     152      58
  -9  14  18      33      55
  10  14  18      13      65
 -10  14  18     110      60
  11  14  18      11      69
 -11  14  18      34      69
   1  15  18      33      45
  -1  15  18       4      46
   2  15  18      78      46
  -2  15  18      15      46
   3  15  18      21      47
  -3  15  18      90      46
   4  15  18     109      49
  -4  15  18       4      46
   5  15  18      81      50
  -5  15  18      38      48
   6  15  18      71      51
  -6  15  18       3      50
   7  15  18      93      54
  -7  15  18      61      51
   8  15  18      35      59
  -8  15  18       1      55
   9  15  18     158      61
  -9  15  18       8      58
  10  15  18       0      68
 -10  15  18      35      70
   0  16  18      29      17
   1  16  18      57      53
  -1  16  18      16      51
   2  16  18      43      53
  -2  16  18      74      52
   3  16  18      57      50
  -3  16  18      13      48
   4  16  18     105      52
  -4  16  18      24      49
   5  16  18      27      51
  -5  16  18      47      49
   6  16  18      80      55
  -6  16  18     154      54
   7  16  18      23      55
  -7  16  18       0      53
   8  16  18      16      59
  -8  16  18      37      61
   9  16  18       4      91
  -9  16  18       4      87
   1  17  18      18      57
  -1  17  18       3      54
   2  17  18      13      56
  -2  17  18      41      54
   3  17  18      51      53
  -3  17  18      11      51
   4  17  18       2      53
  -4  17  18       2      52
   5  17  18      24      56
  -5  17  18     149      55
   6  17  18      31      56
  -6  17  18       2      55
   0  18  18      56      19
   1  18  18       4      55
  -1  18  18      26      55
   2  18  18       5      61
  -2  18  18      49      59
   3  18  18      58      61
  -3  18  18      23      56
   0   2  19      39       6
   1   2  19     117      11
  -1   2  19     113      11
   1   3  19      53      12
  -1   3  19      22      11
   2   3  19      48      14
  -2   3  19       4      14
   0   4  19      77       4
   1   4  19       7      14
  -1   4  19      11      11
   2   4  19     167      26
  -2   4  19     179      26
   3   4  19      14      15
  -3   4  19      60      15
   1   5  19      65      14
  -1   5  19      48      13
   2   5  19      13      16
  -2   5  19       5      16
   3   5  19      50      16
  -3   5  19      35      16
   4   5  19       0      17
  -4   5  19       2      18
   0   6  19      37       5
   1   6  19      10      13
  -1   6  19       9      11
   2   6  19      51      14
  -2   6  19      13      15
   3   6  19      60      22
  -3   6  19      14      20
   4   6  19       5      17
  -4   6  19       4      17
   5   6  19      16      20
  -5   6  19      16      20
   1   7  19       0      13
  -1   7  19       9      12
   2   7  19     140      16
  -2   7  19     130      15
   3   7  19      88      18
  -3   7  19      18      18
   4   7  19      74      21
  -4   7  19      60      22
   5   7  19       0      19
  -5   7  19      12      20
   6   7  19       3      20
  -6   7  19       0      21
   0   8  19      27       7
   1   8  19      25      21
  -1   8  19       0      20
   2   8  19      14      20
  -2   8  19       0      17
   3   8  19     101      21
  -3   8  19      84      19
   4   8  19      34      19
  -4   8  19      41      20
   5   8  19     198      26
  -5   8  19      86      27
   6   8  19       1      21
  -6   8  19       1      22
   7   8  19      17      24
  -7   8  19      62      24
   1   9  19      41      24
  -1   9  19       7      21
   2   9  19     133      24
  -2   9  19      30      21
   3   9  19      47      24
  -3   9  19       1      23
   4   9  19       2      24
  -4   9  19       5      25
   5   9  19      73      26
  -5   9  19      38      25
   6   9  19      50      26
  -6   9  19      17      25
   7   9  19      53      28
  -7   9  19       6      27
   8   9  19       4      32
  -8   9  19       3      31
   0  10  19     167      11
   1  10  19      24      28
  -1  10  19       6      24
   2  10  19      13      26
  -2  10  19      86      24
   3  10  19       0      27
  -3  10  19       0      26
   4  10  19      15      28
  -4  10  19       0      28
   5  10  19      25      31
  -5  10  19      28      30
   6  10  19      11      33
  -6  10  19     168      33
   7  10  19      90      38
  -7  10  19      33      39
   8  10  19      26      33
  -8  10  19       6      32
   9  10  19      90      37
  -9  10  19      17      39
   1  11  19       6      31
  -1  11  19       6      31
   2  11  19       0      30
  -2  11  19      10      27
   3  11  19       1      32
  -3  11  19       1      30
   4  11  19       5      33
  -4  11  19       5      32
   5  11  19      72      36
  -5  11  19      12      34
   6  11  19      88      37
  -6  11  19      34      37
   7  11  19      40      39
  -7  11  19      20      38
   8  11  19       1      39
  -8  11  19       1      37
   9  11  19      31      41
  -9  11  19      13      42
  10  11  19       0      46
 -10  11  19       0      43
   0  12  19      45      12
   1  12  19     237      40
  -1  12  19     177      39
   2  12  19      93      38
  -2  12  19      69      38
   3  12  19      27      37
  -3  12  19       2      37
   4  12  19       7      37
  -4  12  19       6      35
   5  12  19       0      38
  -5  12  19       0      36
   6  12  19       6      39
  -6  12  19       5      37
   7  12  19      12      41
  -7  12  19       2      38
   8  12  19      87      44
  -8  12  19      16      43
   9  12  19      45      46
  -9  12  19      45      46
  10  12  19      58      52
 -10  12  19      23      48
  11  12  19      14      57
 -11  12  19       0      63
   1  13  19      71      42
  -1  13  19      12      44
   2  13  19       8      40
  -2  13  19       2      41
   3  13  19       5      40
  -3  13  19      32      40
   4  13  19      18      40
  -4  13  19       1      39
   5  13  19      15      40
  -5  13  19      15      39
   6  13  19       2      43
  -6  13  19       0      40
   7  13  19      62      47
  -7  13  19      11      42
   8  13  19      54      48
  -8  13  19      13      47
   9  13  19       9      49
  -9  13  19       9      48
  10  13  19       6      57
 -10  13  19      25      55
  11  13  19      49      65
 -11  13  19       4      61
  12  13  19       1      70
 -12  13  19      48      68
   0  14  19      11      16
   1  14  19      97      44
  -1  14  19      23      45
   2  14  19       6      43
  -2  14  19      65      45
   3  14  19     146      45
  -3  14  19       9      43
   4  14  19      63      44
  -4  14  19      10      43
   5  14  19       0      44
  -5  14  19       5      43
   6  14  19      20      46
  -6  14  19       4      44
   7  14  19       5      48
  -7  14  19       0      46
   8  14  19      24      52
  -8  14  19     106      51
   9  14  19      70      64
  -9  14  19       6      57
  10  14  19      78      66
 -10  14  19       8      60
  11  14  19     144      68
 -11  14  19      28      66
   1  15  19      58      50
  -1  15  19       2      48
   2  15  19      27      48
  -2  15  19      13      49
   3  15  19      64      47
  -3  15  19      13      46
   4  15  19       1      49
  -4  15  19       1      46
   5  15  19       1      50
  -5  15  19       1      48
   6  15  19       2      52
  -6  15  19      18      50
   7  15  19      67      58
  -7  15  19       0      52
   8  15  19      22      55
  -8  15  19       5      55
   9  15  19      20      61
  -9  15  19      93      60
  10  15  19      33      70
 -10  15  19       4      63
   0  16  19       0      17
   1  16  19      22      55
  -1  16  19     114      53
   2  16  19      42      54
  -2  16  19      40      52
   3  16  19     164      53
  -3  16  19       2      50
   4  16  19      15      53
  -4  16  19       3      50
   5  16  19      48      53
  -5  16  19       1      50
   6  16  19       5      53
  -6  16  19       2      50
   7  16  19       2      57
  -7  16  19       6      55
   8  16  19      74      60
  -8  16  19       7      58
   1  17  19       1      57
  -1  17  19       8      55
   2  17  19      22      58
  -2  17  19      22      56
   3  17  19       3      61
  -3  17  19       4      61
   4  17  19      39      54
  -4  17  19       6      53
   5  17  19       0      57
  -5  17  19       0      57
   6  17  19       0      57
  -6  17  19      29      55
   0  18  19       1      19
   1  18  19      17      57
  -1  18  19      16      56
   2  18  19     109     207
  -2  18  19      21     278
   0   0  20   25654     491
   1   1  20      62       5
   0   2  20   31012     250
   1   2  20     175      16
  -1   2  20     213      16
   2   2  20   24626     243
   1   3  20     119      21
  -1   3  20     129      18
   2   3  20     387      32
  -2   3  20     365      33
   3   3  20     326       8
   0   4  20   16899     137
   1   4  20     833      34
  -1   4  20     944      30
   2   4  20   18742     582
  -2   4  20   19883     567
   3   4  20      59      19
  -3   4  20      41      18
   4   4  20   21004     214
   1   5  20     555      29
  -1   5  20     447      27
   2   5  20     128      18
  -2   5  20     124      18
   3   5  20    1197      57
  -3   5  20    1322      55
   4   5  20       1      16
  -4   5  20       2      17
   5   5  20     223      11
   0   6  20   13558     127
   1   6  20    2854      95
  -1   6  20    2807      91
   2   6  20   15229     447
  -2   6  20   15330     447
   3   6  20     429      35
  -3   6  20     458      35
   4   6  20    6374     207
  -4   6  20    6728     208
   5   6  20      36      19
  -5   6  20       7      20
   6   6  20    3321      42
   1   7  20     993      43
  -1   7  20    1051      42
   2   7  20     113      19
  -2   7  20      69      19
   3   7  20     206      23
  -3   7  20     120      23
   4   7  20     565      43
  -4   7  20     492      44
   5   7  20     729      48
  -5   7  20     767      47
   6   7  20      38      22
  -6   7  20      15      22
   7   7  20     953      19
   0   8  20    7306      92
   1   8  20       9      23
  -1   8  20      20      18
   2   8  20    2782     101
  -2   8  20    2568      95
   3   8  20      13      18
  -3   8  20       1      18
   4   8  20    5396     187
  -4   8  20    5379     185
   5   8  20     754      47
  -5   8  20     688      47
   6   8  20    1960      83
  -6   8  20    1956      87
   7   8  20      17      24
  -7   8  20      17      25
   8   8  20    1473      23
   1   9  20      27      23
  -1   9  20      35      21
   2   9  20       4      22
  -2   9  20       3      20
   3   9  20    1384      66
  -3   9  20    1287      65
   4   9  20      90      29
  -4   9  20      85      29
   5   9  20      61      28
  -5   9  20      34      28
   6   9  20      31      32
  -6   9  20      26      33
   7   9  20     635      62
  -7   9  20     517      59
   8   9  20     449      54
  -8   9  20     355      52
   9   9  20    1329      29
   0  10  20     724      21
   1  10  20       7      27
  -1  10  20       6      27
   2  10  20    4236     165
  -2  10  20    3908     156
   3  10  20      89      33
  -3  10  20      63      31
   4  10  20    1383      76
  -4  10  20    1346      74
   5  10  20     175      37
  -5  10  20     199      37
   6  10  20    1852      91
  -6  10  20    1693      88
   7  10  20      54      35
  -7  10  20      79      34
   8  10  20    1499      90
  -8  10  20    1440      93
   9  10  20     313      57
  -9  10  20     394      58
  10  10  20    1042      29
   1  11  20     732      65
  -1  11  20     534      65
   2  11  20      36      33
  -2  11  20       4      32
   3  11  20     324      50
  -3  11  20     277      47
   4  11  20     275      49
  -4  11  20     358      48
   5  11  20     607      63
  -5  11  20     410      59
   6  11  20      96      41
  -6  11  20      26      38
   7  11  20     619      70
  -7  11  20     660      66
   8  11  20     249      51
  -8  11  20     314      50
   9  11  20     703      80
  -9  11  20    1110      79
  10  11  20      70      46
 -10  11  20      70      46
  11  11  20     456      22
   0  12  20    1632      34
   1  12  20     187      41
  -1  12  20      27      43
   2  12  20    1211      86
  -2  12  20    1188      85
   3  12  20     310      51
  -3  12  20     341      51
   4  12  20    1216      91
  -4  12  20    1408      92
   5  12  20      26      39
  -5  12  20      24      36
   6  12  20     808      82
  -6  12  20     779      77
   7  12  20     192      47
  -7  12  20     155      44
   8  12  20     484      67
  -8  12  20     337      64
   9  12  20     124      54
  -9  12  20      81      50
  10  12  20     236      64
 -10  12  20     416      62
  11  12  20     374      76
 -11  12  20     434      73
  12  12  20     415      26
   1  13  20     129      43
  -1  13  20      10      46
   2  13  20      21      41
  -2  13  20       3      41
   3  13  20     310      51
  -3  13  20     219      50
   4  13  20       4      42
  -4  13  20      65      41
   5  13  20     286      55
  -5  13  20     183      50
   6  13  20     276      54
  -6  13  20     107      53
   7  13  20     176      49
  -7  13  20      46      46
   8  13  20      99      51
  -8  13  20      99      50
   9  13  20     425      86
  -9  13  20     295      73
  10  13  20     190      67
 -10  13  20     190      63
  11  13  20     437      90
 -11  13  20     328      84
  12  13  20     108      69
 -12  13  20      58      70
   0  14  20     646      28
   1  14  20      21      48
  -1  14  20      72      47
   2  14  20     529      54
  -2  14  20     128      53
   3  14  20     161      50
  -3  14  20      10      47
   4  14  20     283      53
  -4  14  20      83      51
   5  14  20     224      53
  -5  14  20     245      52
   6  14  20     278      54
  -6  14  20     122      53
   7  14  20      66      50
  -7  14  20      14      48
   8  14  20     499      67
  -8  14  20     226      65
   9  14  20     129      64
  -9  14  20      24      59
  10  14  20     240      69
 -10  14  20     216      67
  11  14  20      96      77
 -11  14  20     110      74
   1  15  20      15      51
  -1  15  20      49      50
   2  15  20      96      52
  -2  15  20       7      49
   3  15  20      42      50
  -3  15  20       0      48
   4  15  20      75      52
  -4  15  20      79      51
   5  15  20     242      54
  -5  15  20       9      51
   6  15  20     197      55
  -6  15  20      21      50
   7  15  20     107      56
  -7  15  20      79      57
   8  15  20      44      61
  -8  15  20      68      59
   9  15  20     247      68
  -9  15  20     187      64
   0  16  20      23      18
   1  16  20     123      55
  -1  16  20      23      53
   2  16  20      24      56
  -2  16  20       3      53
   3  16  20      37      61
  -3  16  20       8      53
   4  16  20     136      59
  -4  16  20     139      54
   5  16  20      45      54
  -5  16  20       7      51
   6  16  20     238      59
  -6  16  20      15      54
   7  16  20      27      58
  -7  16  20      25      58
   1  17  20      13      59
  -1  17  20      13      57
   2  17  20       6      58
  -2  17  20       5      55
   3  17  20       7      59
  -3  17  20      21      56
   4  17  20      14      59
  -4  17  20      13      56
   5  17  20      72      58
  -5  17  20      22      56
   0   2  21    1080      13
   1   2  21    1214      60
  -1   2  21    1236      60
   1   3  21     826      42
  -1   3  21     806      39
   2   3  21     722      38
  -2   3  21     799      38
   0   4  21     348       8
   1   4  21    1927      60
  -1   4  21    1784      55
   2   4  21    2335      81
  -2   4  21    2452      82
   3   4  21     536      34
  -3   4  21     477      33
   1   5  21    1588      53
  -1   5  21    1600      49
   2   5  21     637      41
  -2   5  21     594      40
   3   5  21      46      18
  -3   5  21      11      18
   4   5  21     609      41
  -4   5  21     569      43
   0   6  21     589      15
   1   6  21     513      34
  -1   6  21     549      33
   2   6  21      96      18
  -2   6  21      76      18
   3   6  21     545      35
  -3   6  21     434      34
   4   6  21     192      26
  -4   6  21     232      27
   5   6  21     254      37
  -5   6  21     300      37
   1   7  21     113      18
  -1   7  21      93      17
   2   7  21     440      32
  -2   7  21     443      33
   3   7  21     274      26
  -3   7  21     231      25
   4   7  21     228      34
  -4   7  21     253      34
   5   7  21     384      42
  -5   7  21     466      43
   6   7  21      92      24
  -6   7  21     103      24
   0   8  21     393      13
   1   8  21    2128      90
  -1   8  21    2048      87
   2   8  21     324      33
  -2   8  21     259      30
   3   8  21      70      23
  -3   8  21      60      21
   4   8  21      53      25
  -4   8  21      21      24
   5   8  21      96      29
  -5   8  21     134      30
   6   8  21      15      27
  -6   8  21       0      25
   7   8  21     118      31
  -7   8  21     100      30
   1   9  21      19      26
  -1   9  21      74      25
   2   9  21      37      27
  -2   9  21       1      26
   3   9  21       9      26
  -3   9  21      10      25
   4   9  21     129      32
  -4   9  21      94      32
   5   9  21     752      61
  -5   9  21     734      60
   6   9  21     709      60
  -6   9  21     678      59
   7   9  21       9      33
  -7   9  21      39      32
   8   9  21     120      36
  -8   9  21      41      37
   0  10  21      10      11
   1  10  21     708      55
  -1  10  21     573      53
   2  10  21      41      32
  -2  10  21     113      33
   3  10  21       1      29
  -3  10  21      15      30
   4  10  21     363      48
  -4  10  21     439      46
   5  10  21       8      32
  -5  10  21      33      32
   6  10  21     103      36
  -6  10  21     137      35
   7  10  21     105      36
  -7  10  21      63      35
   8  10  21       7      39
  -8  10  21      30      40
   9  10  21      17      40
  -9  10  21      47      40
   1  11  21      88      38
  -1  11  21      78      39
   2  11  21      12      36
  -2  11  21      81      36
   3  11  21      34      37
  -3  11  21      14      35
   4  11  21     165      40
  -4  11  21      47      38
   5  11  21       5      37
  -5  11  21      21      34
   6  11  21      14      39
  -6  11  21     109      37
   7  11  21     418      62
  -7  11  21     629      60
   8  11  21      62      42
  -8  11  21       6      41
   9  11  21       3      43
  -9  11  21       3      43
  10  11  21       8      45
 -10  11  21      51      45
   0  12  21     786      31
   1  12  21     195      43
  -1  12  21      76      46
   2  12  21      48      40
  -2  12  21      13      40
   3  12  21       3      39
  -3  12  21       3      38
   4  12  21     157      46
  -4  12  21      18      42
   5  12  21      51      43
  -5  12  21      78      41
   6  12  21     405      57
  -6  12  21     266      54
   7  12  21      53      46
  -7  12  21       8      41
   8  12  21       8      46
  -8  12  21       1      45
   9  12  21      11      51
  -9  12  21      31      48
  10  12  21       1      53
 -10  12  21       5      49
  11  12  21     109      56
 -11  12  21      11      51
   1  13  21     167      56
  -1  13  21     258      59
   2  13  21      84      45
  -2  13  21     128      46
   3  13  21     167      45
  -3  13  21       2      44
   4  13  21     108      48
  -4  13  21     101      46
   5  13  21     200      48
  -5  13  21      98      47
   6  13  21     108      47
  -6  13  21       9      44
   7  13  21      83      48
  -7  13  21       6      45
   8  13  21       9      49
  -8  13  21      37      50
   9  13  21      18      59
  -9  13  21       0      53
  10  13  21      21      57
 -10  13  21      57      55
  11  13  21       3      63
 -11  13  21      74      61
   0  14  21      33      17
   1  14  21      42      49
  -1  14  21       5      47
   2  14  21     143      55
  -2  14  21     276      52
   3  14  21     421      59
  -3  14  21     247      55
   4  14  21      17      46
  -4  14  21      16      45
   5  14  21      11      50
  -5  14  21      11      47
   6  14  21       2      48
  -6  14  21      16      47
   7  14  21      22      55
  -7  14  21      21      54
   8  14  21       2      57
  -8  14  21      15      57
   9  14  21      58      60
  -9  14  21       7      57
  10  14  21      29      61
 -10  14  21      59      58
   1  15  21      11      52
  -1  15  21      12      51
   2  15  21      86      53
  -2  15  21      22      49
   3  15  21      25      54
  -3  15  21     119      50
   4  15  21     108      55
  -4  15  21       3      50
   5  15  21      26      51
  -5  15  21       0      49
   6  15  21      94      53
  -6  15  21      11      50
   7  15  21      80      59
  -7  15  21      16      57
   8  15  21     141      58
  -8  15  21      30      57
   9  15  21       5      81
  -9  15  21      21      77
   0  16  21      27      18
   1  16  21      16      63
  -1  16  21      14      56
   2  16  21      70      62
  -2  16  21       4      54
   3  16  21      96      58
  -3  16  21       6      54
   4  16  21      63      63
  -4  16  21       1      55
   5  16  21      55      54
  -5  16  21       4      53
   6  16  21     151      57
  -6  16  21      61      54
   7  16  21       4      58
  -7  16  21      37      58
   1  17  21      14      60
  -1  17  21      14      57
   2  17  21      40      60
  -2  17  21      11      58
   3  17  21     105      61
  -3  17  21      20      57
   4  17  21      28      61
  -4  17  21      25      57
   0   0  22     352      20
   1   1  22       8       5
   0   2  22    4461      43
   1   2  22       1      15
  -1   2  22      10      14
   2   2  22    6382      65
   1   3  22       0      16
  -1   3  22      31      14
   2   3  22       0      16
  -2   3  22      10      17
   3   3  22      52       7
   0   4  22   11614     100
   1   4  22      18      17
  -1   4  22      28      15
   2   4  22    8111     244
  -2   4  22    8340     247
   3   4  22       7      19
  -3   4  22       6      18
   4   4  22    2874      37
   1   5  22     141      20
  -1   5  22     122      19
   2   5  22       2      16
  -2   5  22       1      17
   3   5  22      43      18
  -3   5  22      40      18
   4   5  22     120      25
  -4   5  22      96      23
   5   5  22     404      11
   0   6  22    4186      41
   1   6  22      38      17
  -1   6  22      54      17
   2   6  22    1798      69
  -2   6  22    1786      67
   3   6  22     143      20
  -3   6  22     135      20
   4   6  22    2413     104
  -4   6  22    2687     108
   5   6  22      15      22
  -5   6  22       1      21
   6   6  22    2160      29
   1   7  22     102      23
  -1   7  22      65      22
   2   7  22      39      18
  -2   7  22      13      18
   3   7  22     333      27
  -3   7  22     457      28
   4   7  22       1      22
  -4   7  22       0      21
   5   7  22     119      26
  -5   7  22     100      27
   6   7  22      54      27
  -6   7  22      15      25
   7   7  22      33       9
   0   8  22     534      16
   1   8  22     126      27
  -1   8  22     144      26
   2   8  22    1331      70
  -2   8  22    1251      70
   3   8  22      22      24
  -3   8  22       9      23
   4   8  22     617      48
  -4   8  22     569      45
   5   8  22       5      26
  -5   8  22       2      25
   6   8  22    1029      66
  -6   8  22    1039      62
   7   8  22     730      58
  -7   8  22     716      55
   8   8  22     571      19
   1   9  22     153      31
  -1   9  22      93      32
   2   9  22      36      26
  -2   9  22       4      29
   3   9  22     134      33
  -3   9  22     161      33
   4   9  22       2      27
  -4   9  22      22      27
   5   9  22     223      39
  -5   9  22     238      39
   6   9  22       0      32
  -6   9  22      23      32
   7   9  22     154      36
  -7   9  22      87      34
   8   9  22       1      35
  -8   9  22       2      36
   9   9  22     316      17
   0  10  22    1245      27
   1  10  22     215      34
  -1  10  22      19      35
   2  10  22     544      57
  -2  10  22     636      58
   3  10  22       0      30
  -3  10  22       0      31
   4  10  22     253      41
  -4  10  22     319      40
   5  10  22       1      33
  -5  10  22       0      32
   6  10  22     268      47
  -6  10  22     272      47
   7  10  22     254      45
  -7  10  22     150      43
   8  10  22     426      52
  -8  10  22     393      52
   9  10  22      94      42
  -9  10  22      21      41
  10  10  22      58      15
   1  11  22       0      35
  -1  11  22       1      38
   2  11  22      95      37
  -2  11  22      39      37
   3  11  22       5      36
  -3  11  22       4      35
   4  11  22       0      37
  -4  11  22       0      35
   5  11  22      23      41
  -5  11  22      90      42
   6  11  22      61      39
  -6  11  22     179      38
   7  11  22     201      43
  -7  11  22     145      41
   8  11  22       7      40
  -8  11  22       8      41
   9  11  22     110      49
  -9  11  22     176      49
  10  11  22      25      48
 -10  11  22     123      48
  11  11  22     188      18
   0  12  22     118      16
   1  12  22      50      45
  -1  12  22       2      42
   2  12  22     164      47
  -2  12  22     263      47
   3  12  22       1      40
  -3  12  22       8      39
   4  12  22     308      54
  -4  12  22     252      52
   5  12  22      29      44
  -5  12  22      93      43
   6  12  22     448      68
  -6  12  22     296      62
   7  12  22       1      45
  -7  12  22       2      45
   8  12  22     218      53
  -8  12  22     233      53
   9  12  22       7      54
  -9  12  22      68      51
  10  12  22     135      63
 -10  12  22     110      56
  11  12  22      15      57
 -11  12  22       4      54
  12  12  22      44      20
   1  13  22      66      48
  -1  13  22      41      47
   2  13  22      12      47
  -2  13  22      11      44
   3  13  22      22      43
  -3  13  22      44      42
   4  13  22      11      43
  -4  13  22      47      43
   5  13  22      48      46
  -5  13  22      26      44
   6  13  22       5      46
  -6  13  22       6      44
   7  13  22     101      51
  -7  13  22       2      52
   8  13  22      24      54
  -8  13  22       4      53
   9  13  22     100      58
  -9  13  22      91      57
  10  13  22       3      57
 -10  13  22      87      57
  11  13  22      13      63
 -11  13  22      88      58
   0  14  22      97      19
   1  14  22       5      49
  -1  14  22      27      46
   2  14  22     166      54
  -2  14  22      81      50
   3  14  22       6      50
  -3  14  22       5      46
   4  14  22     283      53
  -4  14  22     141      52
   5  14  22       9      47
  -5  14  22       8      45
   6  14  22     254      52
  -6  14  22      28      49
   7  14  22     173      55
  -7  14  22      15      53
   8  14  22      53      62
  -8  14  22     150      60
   9  14  22      65      60
  -9  14  22      20      57
  10  14  22      19      84
 -10  14  22     131      88
   1  15  22       6      54
  -1  15  22       6      53
   2  15  22      62      53
  -2  15  22      23      49
   3  15  22       4      55
  -3  15  22      25      51
   4  15  22      84      57
  -4  15  22       5      52
   5  15  22      36      51
  -5  15  22      10      49
   6  15  22      54      54
  -6  15  22      24      51
   7  15  22      60      57
  -7  15  22      16      56
   8  15  22      24      62
  -8  15  22       7      59
   0  16  22      35      19
   1  16  22      32      59
  -1  16  22       6      54
   2  16  22      23      59
  -2  16  22     140      55
   3  16  22      84      57
  -3  16  22      26      53
   4  16  22       7      60
  -4  16  22      74      56
   5  16  22       4      62
  -5  16  22       4      62
   6  16  22      11      59
  -6  16  22      11      58
   1  17  22      31      60
  -1  17  22      14      57
   2  17  22      54      62
  -2  17  22      18      57
   0   2  23     117       7
   1   2  23      33      16
  -1   2  23      57      16
   1   3  23       2      15
  -1   3  23       3      14
   2   3  23       9      17
  -2   3  23       2      17
   0   4  23       9       5
   1   4  23      86      20
  -1   4  23     101      17
   2   4  23      57      20
  -2   4  23      56      19
   3   4  23     125      19
  -3   4  23     106      18
   1   5  23     233      19
  -1   5  23     203      18
   2   5  23      21      18
  -2   5  23       4      18
   3   5  23      49      23
  -3   5  23      43      20
   4   5  23       0      20
  -4   5  23       0      22
   0   6  23     167       8
   1   6  23      26      16
  -1   6  23       9      14
   2   6  23       3      18
  -2   6  23      36      18
   3   6  23       7      19
  -3   6  23       0      19
   4   6  23       6      19
  -4   6  23      12      19
   5   6  23       2      23
  -5   6  23       4      23
   1   7  23       0      17
  -1   7  23       0      18
   2   7  23       7      18
  -2   7  23      17      18
   3   7  23      11      18
  -3   7  23       6      18
   4   7  23      22      22
  -4   7  23      99      23
   5   7  23      13      23
  -5   7  23      12      23
   6   7  23       1      26
  -6   7  23      19      26
   0   8  23      31       7
   1   8  23       3      27
  -1   8  23      12      26
   2   8  23       3      26
  -2   8  23       1      27
   3   8  23      46      26
  -3   8  23       6      26
   4   8  23      23      27
  -4   8  23       0      26
   5   8  23       4      29
  -5   8  23       7      28
   6   8  23      17      31
  -6   8  23       7      31
   7   8  23      20      31
  -7   8  23       0      30
   1   9  23       4      28
  -1   9  23       0      30
   2   9  23       3      28
  -2   9  23       9      30
   3   9  23      18      28
  -3   9  23      19      30
   4   9  23       1      29
  -4   9  23       1      28
   5   9  23       4      30
  -5   9  23       0      30
   6   9  23      71      36
  -6   9  23      25      34
   7   9  23       0      33
  -7   9  23       0      33
   8   9  23       4      37
  -8   9  23       4      38
   0  10  23      14      12
   1  10  23      60      33
  -1  10  23      14      34
   2  10  23      10      32
  -2  10  23      11      33
   3  10  23       7      32
  -3  10  23      40      33
   4  10  23       0      35
  -4  10  23       0      33
   5  10  23       6      35
  -5  10  23       7      36
   6  10  23      22      36
  -6  10  23     127      35
   7  10  23      41      37
  -7  10  23      13      37
   8  10  23      13      41
  -8  10  23       0      40
   9  10  23      37      42
  -9  10  23      21      43
   1  11  23       4      42
  -1  11  23       3      40
   2  11  23      21      37
  -2  11  23       8      37
   3  11  23       5      38
  -3  11  23      15      38
   4  11  23       4      39
  -4  11  23      26      37
   5  11  23      46      40
  -5  11  23       7      37
   6  11  23      69      38
  -6  11  23      15      38
   7  11  23      19      40
  -7  11  23       0      42
   8  11  23      59      44
  -8  11  23       5      43
   9  11  23       7      46
  -9  11  23       5      45
  10  11  23       5      49
 -10  11  23      39      48
   0  12  23       3      16
   1  12  23      48      45
  -1  12  23      14      44
   2  12  23      55      46
  -2  12  23      12      42
   3  12  23      10      41
  -3  12  23      24      40
   4  12  23      27      42
  -4  12  23       4      41
   5  12  23      27      44
  -5  12  23       2      41
   6  12  23      14      44
  -6  12  23       1      42
   7  12  23      56      51
  -7  12  23      10      49
   8  12  23      13      52
  -8  12  23      14      51
   9  12  23      26      57
  -9  12  23     107      53
  10  12  23       7      56
 -10  12  23       7      53
  11  12  23      10      57
 -11  12  23      47      54
   1  13  23       3      54
  -1  13  23      59      53
   2  13  23       9      48
  -2  13  23      28      45
   3  13  23      15      48
  -3  13  23      53      44
   4  13  23      17      44
  -4  13  23      36      43
   5  13  23      33      46
  -5  13  23      75      45
   6  13  23      54      47
  -6  13  23       4      45
   7  13  23       5      50
  -7  13  23       5      51
   8  13  23      61      55
  -8  13  23       7      55
   9  13  23       5      56
  -9  13  23      19      54
  10  13  23      76      59
 -10  13  23      12      58
   0  14  23       0      17
   1  14  23      13      51
  -1  14  23      11      48
   2  14  23      22      51
  -2  14  23      18      47
   3  14  23      20      52
  -3  14  23      40      48
   4  14  23      46      53
  -4  14  23       8      49
   5  14  23      91      51
  -5  14  23      31      48
   6  14  23      30      49
  -6  14  23       1      48
   7  14  23       9      54
  -7  14  23      10      54
   8  14  23       7      58
  -8  14  23       6      59
   9  14  23      26      61
  -9  14  23      26      58
   1  15  23      14      53
  -1  15  23      13      50
   2  15  23       5      55
  -2  15  23       7      51
   3  15  23      12      54
  -3  15  23      11      51
   4  15  23      51      56
  -4  15  23      10      53
   5  15  23      43      58
  -5  15  23      12      55
   6  15  23      17      56
  -6  15  23       2      56
   7  15  23      17      58
  -7  15  23       1      57
   0  16  23      23      19
   1  16  23      26      59
  -1  16  23      94      55
   2  16  23      11      62
  -2  16  23      10      59
   3  16  23      85      60
  -3  16  23       6      55
   4  16  23      56      59
  -4  16  23       9      54
   5  16  23      30      63
  -5  16  23      26      60
   0   0  24   11086     239
   1   1  24      57       7
   0   2  24   17270     159
   1   2  24     251      26
  -1   2  24     213      26
   2   2  24   14448     145
   1   3  24      72      19
  -1   3  24      65      17
   2   3  24     138      21
  -2   3  24      69      19
   3   3  24     290       9
   0   4  24    8070      77
   1   4  24      46      17
  -1   4  24      19      16
   2   4  24    6725     205
  -2   4  24    6538     204
   3   4  24     228      24
  -3   4  24     206      23
   4   4  24    7183      69
   1   5  24      38      21
  -1   5  24     116      20
   2   5  24     242      30
  -2   5  24     216      27
   3   5  24     124      22
  -3   5  24      78      22
   4   5  24     607      40
  -4   5  24     493      40
   5   5  24      70       7
   0   6  24    3178      36
   1   6  24     256      31
  -1   6  24     365      31
   2   6  24    6474     188
  -2   6  24    6044     186
   3   6  24     221      31
  -3   6  24     349      32
   4   6  24    3159     125
  -4   6  24    3240     121
   5   6  24       6      23
  -5   6  24      20      23
   6   6  24    5248      61
   1   7  24     299      33
  -1   7  24     310      36
   2   7  24     607      43
  -2   7  24     775      46
   3   7  24      28      21
  -3   7  24      41      22
   4   7  24     145      29
  -4   7  24      86      28
   5   7  24     798      57
  -5   7  24     647      54
   6   7  24     944      60
  -6   7  24     875      60
   7   7  24     801      22
   0   8  24    5887      69
   1   8  24     606      57
  -1   8  24     594      57
   2   8  24    2137      98
  -2   8  24    2089      99
   3   8  24      25      29
  -3   8  24      18      30
   4   8  24    3163     127
  -4   8  24    3256     123
   5   8  24     193      36
  -5   8  24     211      35
   6   8  24    2963     120
  -6   8  24    2702     118
   7   8  24      33      34
  -7   8  24      97      36
   8   8  24    2244      38
   1   9  24       4      28
  -1   9  24       4      31
   2   9  24       7      29
  -2   9  24       8      32
   3   9  24      63      30
  -3   9  24      14      31
   4   9  24      32      31
  -4   9  24       2      32
   5   9  24     568      55
  -5   9  24     475      55
   6   9  24     311      45
  -6   9  24     305      43
   7   9  24    1105      82
  -7   9  24    1131      84
   8   9  24     355      51
  -8   9  24     382      51
   9   9  24     456      19
   0  10  24    1327      31
   1  10  24     210      48
  -1  10  24     168      45
   2  10  24     516      67
  -2  10  24     930      71
   3  10  24      52      36
  -3  10  24      81      36
   4  10  24    1557      91
  -4  10  24    1526      90
   5  10  24     247      47
  -5  10  24     379      48
   6  10  24    1730      93
  -6  10  24    1735      93
   7  10  24      27      39
  -7  10  24      32      40
   8  10  24     933      85
  -8  10  24     793      82
   9  10  24     270      52
  -9  10  24     290      52
  10  10  24    1075      30
   1  11  24      13      46
  -1  11  24     106      45
   2  11  24      27      43
  -2  11  24       9      40
   3  11  24     263      48
  -3  11  24     204      47
   4  11  24      37      42
  -4  11  24      58      41
   5  11  24     419      62
  -5  11  24     400      63
   6  11  24       3      40
  -6  11  24       3      39
   7  11  24     600      64
  -7  11  24     430      64
   8  11  24     233      57
  -8  11  24     261      56
   9  11  24     731      80
  -9  11  24     450      77
  10  11  24       9      49
 -10  11  24      40      48
  11  11  24     170      18
   0  12  24    1106      32
   1  12  24      92      47
  -1  12  24      18      45
   2  12  24     314      55
  -2  12  24     197      51
   3  12  24      79      48
  -3  12  24      78      44
   4  12  24     550      70
  -4  12  24     488      68
   5  12  24      27      44
  -5  12  24       0      41
   6  12  24     646      68
  -6  12  24     239      62
   7  12  24     213      55
  -7  12  24     248      56
   8  12  24     369      80
  -8  12  24     614      88
   9  12  24      58      55
  -9  12  24      26      53
  10  12  24     285      69
 -10  12  24     211      63
  11  12  24     194      65
 -11  12  24     153      62
   1  13  24      21      51
  -1  13  24      74      49
   2  13  24      19      50
  -2  13  24     136      47
   3  13  24     153      53
  -3  13  24      51      49
   4  13  24       8      51
  -4  13  24       1      47
   5  13  24      50      50
  -5  13  24     112      49
   6  13  24      47      51
  -6  13  24      19      49
   7  13  24     113      61
  -7  13  24     322      61
   8  13  24      40      55
  -8  13  24       6      54
   9  13  24      87      67
  -9  13  24     164      61
  10  13  24     114      62
 -10  13  24     107      59
   0  14  24       0      17
   1  14  24       8      54
  -1  14  24       7      50
   2  14  24     332      60
  -2  14  24     154      55
   3  14  24      46      52
  -3  14  24       7      49
   4  14  24     155      59
  -4  14  24     210      54
   5  14  24      93      56
  -5  14  24      56      51
   6  14  24     167      56
  -6  14  24      44      58
   7  14  24       5      53
  -7  14  24      36      54
   8  14  24      39      63
  -8  14  24     102      61
   1  15  24      13      56
  -1  15  24     141      54
   2  15  24      14      55
  -2  15  24      13      52
   3  15  24     103      59
  -3  15  24      14      54
   4  15  24       8      57
  -4  15  24       1      54
   5  15  24     159      61
  -5  15  24      25      55
   6  15  24      47      63
  -6  15  24       2      59
   0  16  24      88      20
   1  16  24      12      60
  -1  16  24      45      56
   2  16  24      44      61
  -2  16  24      15      57
   3  16  24       6      62
  -3  16  24       5      57
   4  16  24      69     108
  -4  16  24     126      92
   0   2  25     654      14
   1   2  25      67      19
  -1   2  25      67      18
   1   3  25     470      37
  -1   3  25     460      34
   2   3  25      73      21
  -2   3  25      85      20
   0   4  25    1405      21
   1   4  25     595      40
  -1   4  25     671      37
   2   4  25      24      19
  -2   4  25      54      18
   3   4  25     772      40
  -3   4  25     706      40
   1   5  25     734      40
  -1   5  25     690      41
   2   5  25     143      22
  -2   5  25     135      22
   3   5  25     391      34
  -3   5  25     341      33
   4   5  25     664      47
  -4   5  25     772      47
   0   6  25     413      14
   1   6  25     966      52
  -1   6  25    1118      58
   2   6  25     232      26
  -2   6  25     179      26
   3   6  25       4      24
  -3   6  25      26      22
   4   6  25      11      22
  -4   6  25      44      22
   5   6  25     407      45
  -5   6  25     406      45
   1   7  25     135      34
  -1   7  25      96      34
   2   7  25    1202      69
  -2   7  25    1076      69
   3   7  25     161      32
  -3   7  25     117      31
   4   7  25       6      28
  -4   7  25      81      26
   5   7  25      97      31
  -5   7  25      16      28
   6   7  25      76      30
  -6   7  25      10      28
   0   8  25     737      18
   1   8  25       1      30
  -1   8  25      27      30
   2   8  25     494      54
  -2   8  25     588      55
   3   8  25    1117      61
  -3   8  25     928      62
   4   8  25      57      32
  -4   8  25      22      32
   5   8  25     336      43
  -5   8  25     257      42
   6   8  25     235      39
  -6   8  25     203      39
   7   8  25     108      36
  -7   8  25      20      37
   1   9  25     147      37
  -1   9  25      56      38
   2   9  25      19      33
  -2   9  25       5      36
   3   9  25     137      33
  -3   9  25      15      34
   4   9  25      47      35
  -4   9  25      51      35
   5   9  25      46      36
  -5   9  25      65      35
   6   9  25      29      38
  -6   9  25     101      37
   7   9  25     169      43
  -7   9  25     266      44
   8   9  25      16      41
  -8   9  25      93      41
   0  10  25      96      14
   1  10  25      81      42
  -1  10  25      94      42
   2  10  25       4      37
  -2  10  25      46      37
   3  10  25      35      34
  -3  10  25       4      35
   4  10  25      14      35
  -4  10  25      48      35
   5  10  25      38      37
  -5  10  25      63      37
   6  10  25      53      40
  -6  10  25      10      38
   7  10  25      79      41
  -7  10  25      12      43
   8  10  25     168      51
  -8  10  25     229      51
   9  10  25      59      48
  -9  10  25      54      47
   1  11  25       1      45
  -1  11  25      39      45
   2  11  25       2      46
  -2  11  25      24      42
   3  11  25      20      46
  -3  11  25      83      43
   4  11  25      37      41
  -4  11  25      15      40
   5  11  25      74      41
  -5  11  25      65      41
   6  11  25       6      40
  -6  11  25      89      40
   7  11  25     102      45
  -7  11  25      28      47
   8  11  25       6      48
  -8  11  25      78      48
   9  11  25      79      53
  -9  11  25       4      51
  10  11  25       4      49
 -10  11  25      26      49
   0  12  25      48      15
   1  12  25     223      55
  -1  12  25      68      53
   2  12  25       5      47
  -2  12  25      80      47
   3  12  25       6      47
  -3  12  25       7      44
   4  12  25      29      50
  -4  12  25     229      47
   5  12  25      17      46
  -5  12  25      50      45
   6  12  25      12      48
  -6  12  25      11      49
   7  12  25       6      49
  -7  12  25       7      51
   8  12  25      99      55
  -8  12  25      21      52
   9  12  25       5      56
  -9  12  25      50      56
  10  12  25       4      57
 -10  12  25       4      54
   1  13  25      11      52
  -1  13  25      31      50
   2  13  25      26      51
  -2  13  25      28      48
   3  13  25     145      55
  -3  13  25      35      52
   4  13  25      13      53
  -4  13  25      62      49
   5  13  25      10      52
  -5  13  25      10      48
   6  13  25     106      52
  -6  13  25      15      53
   7  13  25      51      54
  -7  13  25       8      53
   8  13  25      92      58
  -8  13  25      70      56
   9  13  25       9      61
  -9  13  25      25      57
   0  14  25     169      20
   1  14  25     136      56
  -1  14  25      23      52
   2  14  25     256      61
  -2  14  25     184      56
   3  14  25     139      56
  -3  14  25      11      51
   4  14  25      84      60
  -4  14  25      20      53
   5  14  25      18      54
  -5  14  25      16      50
   6  14  25      75      58
  -6  14  25      25      58
   7  14  25      14      60
  -7  14  25      46      59
   8  14  25      24     106
  -8  14  25      28     120
   1  15  25     251      63
  -1  15  25     268      59
   2  15  25      20      57
  -2  15  25      21      54
   3  15  25      27      60
  -3  15  25      83      58
   4  15  25       4      59
  -4  15  25      33      54
   5  15  25      45      59
  -5  15  25       8      54
   0  16  25      90      19
   1  16  25       9      61
  -1  16  25      82      57
   2  16  25     265     358
  -2  16  25      24     240
   0   0  26   13401     219
   1   1  26      36       8
   0   2  26    4572      50
   1   2  26      10      19
  -1   2  26       8      18
   2   2  26    2517      30
   1   3  26      82      21
  -1   3  26      84      20
   2   3  26      79      21
  -2   3  26      33      20
   3   3  26       0       7
   0   4  26     792      16
   1   4  26     116      24
  -1   4  26     147      24
   2   4  26    2775      94
  -2   4  26    2845      95
   3   4  26     329      36
  -3   4  26     383      37
   4   4  26    3342      37
   1   5  26     126      24
  -1   5  26     125      26
   2   5  26     352      33
  -2   5  26     287      32
   3   5  26      57      23
  -3   5  26      23      22
   4   5  26      25      21
  -4   5  26       4      21
   5   5  26     302      11
   0   6  26    3384      40
   1   6  26      89      23
  -1   6  26      26      25
   2   6  26    2144      81
  -2   6  26    2103      85
   3   6  26       8      22
  -3   6  26       2      22
   4   6  26    2728     107
  -4   6  26    2716     105
   5   6  26     483      50
  -5   6  26     541      48
   6   6  26     728      19
   1   7  26       7      29
  -1   7  26      62      29
   2   7  26     176      35
  -2   7  26     241      37
   3   7  26     136      29
  -3   7  26      76      29
   4   7  26     156      34
  -4   7  26      97      34
   5   7  26     109      34
  -5   7  26     109      33
   6   7  26      83      33
  -6   7  26      23      32
   7   7  26     891      25
   0   8  26    1290      27
   1   8  26     113      34
  -1   8  26     115      33
   2   8  26    1771      91
  -2   8  26    2025      93
   3   8  26      77      34
  -3   8  26     190      35
   4   8  26    1740      90
  -4   8  26    1950      90
   5   8  26     139      36
  -5   8  26     166      37
   6   8  26    1313      83
  -6   8  26    1607      85
   7   8  26      46      38
  -7   8  26      11      37
   8   8  26     461      20
   1   9  26      11      34
  -1   9  26      13      35
   2   9  26       4      34
  -2   9  26      15      35
   3   9  26     118      34
  -3   9  26       7      35
   4   9  26     186      41
  -4   9  26     232      40
   5   9  26      60      38
  -5   9  26     130      37
   6   9  26      40      37
  -6   9  26      30      36
   7   9  26     162      47
  -7   9  26     203      48
   8   9  26      47      45
  -8   9  26     101      46
   9   9  26     341      19
   0  10  26     341      18
   1  10  26      17      41
  -1  10  26      16      41
   2  10  26     854      78
  -2  10  26     742      78
   3  10  26      20      39
  -3  10  26       7      38
   4  10  26     412      60
  -4  10  26     652      61
   5  10  26      13      36
  -5  10  26       2      36
   6  10  26     924      74
  -6  10  26     681      75
   7  10  26      31      45
  -7  10  26       3      44
   8  10  26     720      79
  -8  10  26     485      79
   9  10  26       9      47
  -9  10  26       9      47
  10  10  26     116      17
   1  11  26      11      43
  -1  11  26       9      43
   2  11  26      23      46
  -2  11  26       9      43
   3  11  26       6      46
  -3  11  26      53      43
   4  11  26       9      41
  -4  11  26      35      41
   5  11  26     225      45
  -5  11  26     139      46
   6  11  26      43      44
  -6  11  26      77      47
   7  11  26     126      49
  -7  11  26      78      51
   8  11  26      95      48
  -8  11  26      19      49
   9  11  26      12      49
  -9  11  26      11      49
  10  11  26      72      54
 -10  11  26      27      53
  11  11  26       9      19
   0  12  26      73      16
   1  12  26      17      47
  -1  12  26      16      46
   2  12  26     251      56
  -2  12  26     236      52
   3  12  26       3      49
  -3  12  26       3      45
   4  12  26     104      53
  -4  12  26      32      49
   5  12  26      67      51
  -5  12  26      24      46
   6  12  26      95      54
  -6  12  26     160      55
   7  12  26      38      53
  -7  12  26       3      52
   8  12  26      74      56
  -8  12  26      24      54
   9  12  26      21      57
  -9  12  26      89      55
  10  12  26     247      67
 -10  12  26      14      61
   1  13  26      15      51
  -1  13  26      41      51
   2  13  26       1      52
  -2  13  26      26      49
   3  13  26      22      52
  -3  13  26      17      48
   4  13  26       1      53
  -4  13  26      32      49
   5  13  26      81      55
  -5  13  26      48      50
   6  13  26       0      55
  -6  13  26      21      54
   7  13  26      14      57
  -7  13  26      77      55
   8  13  26     133      59
  -8  13  26       7      56
   9  13  26      53     287
  -9  13  26     475     289
   0  14  26     275      22
   1  14  26       2      55
  -1  14  26      36      52
   2  14  26       6      56
  -2  14  26      68      52
   3  14  26      34      57
  -3  14  26      34      56
   4  14  26      15      56
  -4  14  26      37      52
   5  14  26      56      57
  -5  14  26       1      52
   6  14  26      23      58
  -6  14  26      83      57
   7  14  26      34      65
  -7  14  26      32      60
   1  15  26      14      58
  -1  15  26      92      55
   2  15  26       4      59
  -2  15  26      62      54
   3  15  26       8      56
  -3  15  26       7      53
   4  15  26      13      60
  -4  15  26      12      55
   0   2  27      40       7
   1   2  27       2      21
  -1   2  27       0      18
   1   3  27      33      20
  -1   3  27      59      20
   2   3  27       4      19
  -2   3  27       0      19
   0   4  27      91       8
   1   4  27      28      21
  -1   4  27      20      22
   2   4  27      20      20
  -2   4  27       7      19
   3   4  27      13      21
  -3   4  27       1      22
   1   5  27      46      23
  -1   5  27      65      25
   2   5  27      34      22
  -2   5  27      12      23
   3   5  27      35      21
  -3   5  27       8      21
   4   5  27      10      23
  -4   5  27      16      23
   0   6  27      29       8
   1   6  27       3      24
  -1   6  27      23      25
   2   6  27      42      22
  -2   6  27       2      23
   3   6  27      91      24
  -3   6  27      20      25
   4   6  27      15      23
  -4   6  27      15      25
   5   6  27      14      25
  -5   6  27      14      25
   1   7  27       2      29
  -1   7  27       2      28
   2   7  27      54      32
  -2   7  27       0      31
   3   7  27      30      28
  -3   7  27      28      28
   4   7  27       0      32
  -4   7  27      16      32
   5   7  27      16      33
  -5   7  27      44      33
   6   7  27       2      33
  -6   7  27       2      34
   0   8  27      15      11
   1   8  27      23      32
  -1   8  27     152      32
   2   8  27       1      32
  -2   8  27      12      31
   3   8  27      54      33
  -3   8  27      40      35
   4   8  27      42      32
  -4   8  27       1      32
   5   8  27      84      33
  -5   8  27      17      33
   6   8  27       8      34
  -6   8  27       8      36
   7   8  27      37      39
  -7   8  27       0      39
   1   9  27       2      34
  -1   9  27       2      34
   2   9  27       0      35
  -2   9  27       0      36
   3   9  27       0      38
  -3   9  27       0      36
   4   9  27       2      34
  -4   9  27       2      33
   5   9  27      41      35
  -5   9  27       8      35
   6   9  27       0      40
  -6   9  27       1      40
   7   9  27       9      42
  -7   9  27      10      42
   8   9  27      20      45
  -8   9  27      19      45
   0  10  27      62      15
   1  10  27      32      40
  -1  10  27       2      42
   2  10  27       5      38
  -2  10  27       5      38
   3  10  27      95      40
  -3  10  27      82      39
   4  10  27       6      39
  -4  10  27       4      37
   5  10  27      15      38
  -5  10  27      54      37
   6  10  27       4      41
  -6  10  27      31      43
   7  10  27       7      46
  -7  10  27       2      46
   8  10  27      64      46
  -8  10  27      18      46
   9  10  27       1      50
  -9  10  27      33      50
   1  11  27      15      44
  -1  11  27      13      44
   2  11  27       4      46
  -2  11  27       1      43
   3  11  27      17      48
  -3  11  27      17      44
   4  11  27      25      42
  -4  11  27       0      41
   5  11  27      25      45
  -5  11  27       9      43
   6  11  27      10      43
  -6  11  27       3      45
   7  11  27      23      46
  -7  11  27       2      48
   8  11  27       5      47
  -8  11  27       6      48
   9  11  27      12      50
  -9  11  27      12      50
  10  11  27      29      54
 -10  11  27      50      54
   0  12  27       0      16
   1  12  27      33      49
  -1  12  27      23      48
   2  12  27      14      50
  -2  12  27      12      47
   3  12  27      32      51
  -3  12  27       4      47
   4  12  27       4      52
  -4  12  27      37      51
   5  12  27     101      52
  -5  12  27       6      47
   6  12  27       8      54
  -6  12  27       7      51
   7  12  27      63      55
  -7  12  27       9      53
   8  12  27      21      55
  -8  12  27      21      53
   9  12  27       4      59
  -9  12  27      41      57
   1  13  27       5      51
  -1  13  27       5      49
   2  13  27       0      53
  -2  13  27      25      50
   3  13  27       9      54
  -3  13  27       8      50
   4  13  27       1      53
  -4  13  27       6      49
   5  13  27       5      55
  -5  13  27       5      55
   6  13  27     115      61
  -6  13  27       9      56
   7  13  27      43      63
  -7  13  27       8      57
   8  13  27      94      82
  -8  13  27      10      78
   0  14  27      11      18
   1  14  27       6      53
  -1  14  27      26      52
   2  14  27      38      57
  -2  14  27      13      53
   3  14  27      12      55
  -3  14  27      19      51
   4  14  27      25      56
  -4  14  27      25      51
   5  14  27      40      59
  -5  14  27      11      56
   6  14  27      18      77
  -6  14  27     134      74
   1  15  27      18      57
  -1  15  27      40      56
   2  15  27      48      59
  -2  15  27      12      54
   3  15  27      20      91
   0   0  28    3432      70
   1   1  28      46       8
   0   2  28    1553      23
   1   2  28     330      35
  -1   2  28     360      35
   2   2  28    4050      47
   1   3  28     460      41
  -1   3  28     406      41
   2   3  28     658      46
  -2   3  28     697      47
   3   3  28     618      14
   0   4  28    7898      85
   1   4  28     196      26
  -1   4  28     121      27
   2   4  28    4207     142
  -2   4  28    4139     147
   3   4  28       3      22
  -3   4  28       4      22
   4   4  28    3261      38
   1   5  28      45      26
  -1   5  28     101      27
   2   5  28      70      24
  -2   5  28      17      26
   3   5  28     196      32
  -3   5  28     229      34
   4   5  28     391      41
  -4   5  28     409      42
   5   5  28     336      13
   0   6  28    2077      29
   1   6  28       4      25
  -1   6  28       4      26
   2   6  28    4008     137
  -2   6  28    3885     136
   3   6  28     662      54
  -3   6  28     713      54
   4   6  28    2874     112
  -4   6  28    2881     110
   5   6  28       7      29
  -5   6  28      50      28
   6   6  28    3414      50
   1   7  28      56      33
  -1   7  28      40      32
   2   7  28     154      36
  -2   7  28     259      36
   3   7  28     373      40
  -3   7  28     329      40
   4   7  28      26      31
  -4   7  28       5      30
   5   7  28     808      64
  -5   7  28     818      65
   6   7  28     171      42
  -6   7  28     232      44
   7   7  28      35      13
   0   8  28    1512      29
   1   8  28      34      35
  -1   8  28      91      35
   2   8  28    2164     103
  -2   8  28    2067     102
   3   8  28     142      37
  -3   8  28     118      37
   4   8  28    1324      83
  -4   8  28    1295      83
   5   8  28     150      37
  -5   8  28     141      38
   6   8  28     728      70
  -6   8  28     725      72
   7   8  28     240      54
  -7   8  28     273      52
   8   8  28    1411      34
   1   9  28      45      36
  -1   9  28      41      36
   2   9  28       2      37
  -2   9  28      31      38
   3   9  28       9      38
  -3   9  28      62      37
   4   9  28      94      43
  -4   9  28     112      43
   5   9  28     311      45
  -5   9  28     220      44
   6   9  28     186      48
  -6   9  28     291      48
   7   9  28     296      59
  -7   9  28     366      60
   8   9  28       8      47
  -8   9  28      21      46
   9   9  28     107      18
   0  10  28    1162      31
   1  10  28       6      40
  -1  10  28       6      42
   2  10  28     689      77
  -2  10  28     847      79
   3  10  28      75      42
  -3  10  28      37      41
   4  10  28     550      79
  -4  10  28     850      76
   5  10  28      74      45
  -5  10  28      88      42
   6  10  28     408      54
  -6  10  28     332      55
   7  10  28      89      48
  -7  10  28      50      47
   8  10  28     374      56
  -8  10  28      59      54
   9  10  28     102      55
  -9  10  28     141      55
  10  10  28     275      23
   1  11  28      17      46
  -1  11  28       7      45
   2  11  28      34      48
  -2  11  28      36      46
   3  11  28      17      49
  -3  11  28      41      46
   4  11  28      86      46
  -4  11  28      35      45
   5  11  28     103      47
  -5  11  28      23      46
   6  11  28     111      49
  -6  11  28      15      50
   7  11  28     140      51
  -7  11  28      67      52
   8  11  28      22      51
  -8  11  28     160      53
   9  11  28     312      68
  -9  11  28     429      67
  10  11  28      57     283
 -10  11  28     192     286
   0  12  28     439      24
   1  12  28     126      52
  -1  12  28      58      52
   2  12  28     160      54
  -2  12  28     103      52
   3  12  28      22      53
  -3  12  28       5      49
   4  12  28     295      62
  -4  12  28     218      58
   5  12  28      89      56
  -5  12  28       8      53
   6  12  28      64      59
  -6  12  28     247      57
   7  12  28     142      64
  -7  12  28      13      58
   8  12  28     417      80
  -8  12  28     266      71
   1  13  28      45      54
  -1  13  28      34      51
   2  13  28       4      52
  -2  13  28       3      50
   3  13  28     104      58
  -3  13  28      39      53
   4  13  28      27      55
  -4  13  28      25      51
   5  13  28       4      56
  -5  13  28      70      55
   6  13  28      94      66
  -6  13  28      55      60
   7  13  28     211      88
  -7  13  28     502      85
   0  14  28       3      19
   1  14  28      55      55
  -1  14  28       4      52
   2  14  28      88      58
  -2  14  28     184      57
   3  14  28       9      57
  -3  14  28       8      53
   4  14  28      14      58
  -4  14  28      70      54
   5  14  28     115     100
   0   2  29     257      11
   1   2  29      47      27
  -1   2  29      62      28
   1   3  29      70      27
  -1   3  29      41      27
   2   3  29     210      26
  -2   3  29     138      28
   0   4  29     791      19
   1   4  29      16      26
  -1   4  29      55      26
   2   4  29     105      24
  -2   4  29      32      25
   3   4  29     273      33
  -3   4  29     310      35
   1   5  29     473      46
  -1   5  29     527      47
   2   5  29     253      37
  -2   5  29     237      38
   3   5  29      97      27
  -3   5  29     101      28
   4   5  29      56      27
  -4   5  29     122      28
   0   6  29      45      11
   1   6  29     576      55
  -1   6  29     557      53
   2   6  29      51      33
  -2   6  29     102      33
   3   6  29      73      33
  -3   6  29      47      32
   4   6  29      19      28
  -4   6  29       3      28
   5   6  29     137      34
  -5   6  29     139      34
   1   7  29     343      42
  -1   7  29     319      42
   2   7  29      34      34
  -2   7  29      11      33
   3   7  29      42      32
  -3   7  29       7      31
   4   7  29      10      32
  -4   7  29      18      31
   5   7  29      47      32
  -5   7  29      42      34
   6   7  29      12      40
  -6   7  29     126      40
   0   8  29     204      14
   1   8  29      90      37
  -1   8  29      46      36
   2   8  29     128      36
  -2   8  29      73      36
   3   8  29     493      48
  -3   8  29     478      48
   4   8  29      26      35
  -4   8  29       1      34
   5   8  29     133      38
  -5   8  29       4      37
   6   8  29       3      41
  -6   8  29      23      41
   7   8  29     133      55
  -7   8  29     149      50
   1   9  29      89      40
  -1   9  29      51      39
   2   9  29      64      39
  -2   9  29      11      39
   3   9  29       0      39
  -3   9  29      36      39
   4   9  29       7      38
  -4   9  29      25      38
   5   9  29      43      41
  -5   9  29      44      40
   6   9  29      66      45
  -6   9  29      29      45
   7   9  29      66      46
  -7   9  29       7      45
   8   9  29      27      49
  -8   9  29      58      48
   0  10  29     275      17
   1  10  29     260      54
  -1  10  29     367      56
   2  10  29       0      40
  -2  10  29      10      41
   3  10  29     135      46
  -3  10  29     110      46
   4  10  29       0      42
  -4  10  29       0      41
   5  10  29     197      50
  -5  10  29     196      51
   6  10  29      22      48
  -6  10  29      22      46
   7  10  29      18      50
  -7  10  29      36      48
   8  10  29       4      49
  -8  10  29      54      48
   9  10  29      88      52
  -9  10  29       7      51
   1  11  29       0      48
  -1  11  29      30      49
   2  11  29      59      50
  -2  11  29      84      48
   3  11  29       2      44
  -3  11  29      43      45
   4  11  29      75      46
  -4  11  29       4      44
   5  11  29      12      48
  -5  11  29      34      49
   6  11  29       9      52
  -6  11  29      39      52
   7  11  29       3      52
  -7  11  29      15      51
   8  11  29      80      57
  -8  11  29      11      54
   9  11  29      82      55
  -9  11  29      39      55
   0  12  29      83      19
   1  12  29      12      51
  -1  12  29      31      51
   2  12  29      24      51
  -2  12  29      22      49
   3  12  29     307      66
  -3  12  29     286      59
   4  12  29      28      54
  -4  12  29      67      49
   5  12  29      25      58
  -5  12  29      72      55
   6  12  29      17      63
  -6  12  29     200      57
   7  12  29      23      63
  -7  12  29      74      60
   8  12  29      23     280
  -8  12  29      21     276
   1  13  29      14      54
  -1  13  29     170      53
   2  13  29      15      56
  -2  13  29      74      54
   3  13  29       8      55
  -3  13  29       8      51
   4  13  29       6      57
  -4  13  29       5      52
   5  13  29       4      60
  -5  13  29      25      57
   6  13  29      42     255
  -6  13  29      28     179
   0  14  29       9      19
   1  14  29      28      56
  -1  14  29      91      55
   2  14  29      15      56
  -2  14  29      62      54
   3  14  29      32     199
  -3  14  29      22     156
   0   0  30     295      19
   1   1  30     779      17
   0   2  30    4751      58
   1   2  30     912      62
  -1   2  30     949      62
   2   2  30    2540      36
   1   3  30      14      25
  -1   3  30      15      26
   2   3  30     138      26
  -2   3  30     109      28
   3   3  30     163      11
   0   4  30    1945      31
   1   4  30      70      27
  -1   4  30      66      28
   2   4  30    2968     111
  -2   4  30    2978     112
   3   4  30     249      33
  -3   4  30     188      34
   4   4  30    2692      37
   1   5  30     182      33
  -1   5  30     208      34
   2   5  30     218      31
  -2   5  30     212      33
   3   5  30     175      30
  -3   5  30     133      31
   4   5  30      93      30
  -4   5  30      77      30
   5   5  30      48      10
   0   6  30    2503      37
   1   6  30     124      35
  -1   6  30      44      36
   2   6  30    1706      87
  -2   6  30    1683      87
   3   6  30       7      32
  -3   6  30       7      32
   4   6  30    1369      85
  -4   6  30    1627      84
   5   6  30     167      38
  -5   6  30     125      37
   6   6  30     766      25
   1   7  30       7      35
  -1   7  30      87      35
   2   7  30     170      38
  -2   7  30     197      38
   3   7  30      91      35
  -3   7  30      57      34
   4   7  30     192      41
  -4   7  30     338      41
   5   7  30       5      38
  -5   7  30       5      39
   6   7  30      76      43
  -6   7  30     121      42
   7   7  30     225      17
   0   8  30     843      24
   1   8  30      89      37
  -1   8  30      11      36
   2   8  30     653      64
  -2   8  30     513      65
   3   8  30      79      36
  -3   8  30      15      35
   4   8  30     942      73
  -4   8  30     803      74
   5   8  30       2      39
  -5   8  30      24      41
   6   8  30     951      88
  -6   8  30     905      85
   7   8  30      73      45
  -7   8  30       8      44
   8   8  30     168      17
   1   9  30      24      38
  -1   9  30       3      37
   2   9  30      73      39
  -2   9  30      19      39
   3   9  30     165      44
  -3   9  30     166      44
   4   9  30       0      39
  -4   9  30       0      38
   5   9  30      90      45
  -5   9  30       9      45
   6   9  30      17      51
  -6   9  30       6      47
   7   9  30      30      51
  -7   9  30       6      47
   8   9  30     179      56
  -8   9  30     243      55
   9   9  30      88      18
   0  10  30     445      22
   1  10  30      18      42
  -1  10  30       5      44
   2  10  30     522      72
  -2  10  30     507      73
   3  10  30       7      42
  -3  10  30       1      42
   4  10  30     374      54
  -4  10  30     359      54
   5  10  30     129      48
  -5  10  30      58      48
   6  10  30     190      57
  -6  10  30     184      53
   7  10  30      17      55
  -7  10  30      86      51
   8  10  30     299      68
  -8  10  30     200      62
   9  10  30      18      60
  -9  10  30      17      57
   1  11  30      15      49
  -1  11  30      14      48
   2  11  30       5      49
  -2  11  30      34      46
   3  11  30       9      45
  -3  11  30      33      44
   4  11  30       0      47
  -4  11  30       1      45
   5  11  30       5      50
  -5  11  30      69      51
   6  11  30       7      53
  -6  11  30     102      53
   7  11  30     174      63
  -7  11  30     301      60
   8  11  30      14      58
  -8  11  30      12      56
   0  12  30     244      20
   1  12  30      12      53
  -1  12  30      12      52
   2  12  30     316      62
  -2  12  30     295      59
   3  12  30       1      54
  -3  12  30      16      53
   4  12  30     243      63
  -4  12  30     176      57
   5  12  30      43      57
  -5  12  30      14      54
   6  12  30     383      88
  -6  12  30     195      74
  -7  12  30      17      88
   1  13  30      14      55
  -1  13  30      56      53
   2  13  30      75      55
  -2  13  30       9      52
   3  13  30      11      55
  -3  13  30      28      53
   4  13  30      19      60
  -4  13  30      18      59
   0   2  31      68       9
   1   2  31      47      31
  -1   2  31       7      30
   1   3  31       4      26
  -1   3  31       5      27
   2   3  31      11      29
  -2   3  31       2      28
   0   4  31       1       9
   1   4  31       7      28
  -1   4  31      43      28
   2   4  31      24      27
  -2   4  31      10      27
   3   4  31       0      28
  -3   4  31       2      28
   1   5  31       7      27
  -1   5  31       8      28
   2   5  31       1      29
  -2   5  31      10      29
   3   5  31      15      32
  -3   5  31      14      29
   4   5  31       1      35
  -4   5  31       4      31
   0   6  31       2      11
   1   6  31      38      34
  -1   6  31      56      34
   2   6  31      20      33
  -2   6  31       1      32
   3   6  31      23      33
  -3   6  31       1      32
   4   6  31       1      36
  -4   6  31      34      33
   5   6  31      46      39
  -5   6  31       3      40
   1   7  31       7      34
  -1   7  31       8      34
   2   7  31      33      37
  -2   7  31       6      35
   3   7  31      14      35
  -3   7  31       0      33
   4   7  31      27      39
  -4   7  31      45      35
   5   7  31      14      40
  -5   7  31      56      40
   6   7  31     137      46
  -6   7  31      24      44
   0   8  31       9      12
   1   8  31      68      36
  -1   8  31      20      36
   2   8  31      11      36
  -2   8  31      11      35
   3   8  31      13      39
  -3   8  31       3      36
   4   8  31       9      38
  -4   8  31      10      37
   5   8  31      38      45
  -5   8  31       7      44
   6   8  31      24      47
  -6   8  31       4      44
   7   8  31      22      50
  -7   8  31      21      47
   1   9  31       2      39
  -1   9  31       2      38
   2   9  31       4      40
  -2   9  31       5      40
   3   9  31       3      40
  -3   9  31       4      39
   4   9  31       1      40
  -4   9  31      28      40
   5   9  31       3      45
  -5   9  31       3      45
   6   9  31      46      52
  -6   9  31      25      48
   7   9  31       1      51
  -7   9  31       1      48
   8   9  31       1      52
  -8   9  31      33      51
   0  10  31       1      15
   1  10  31       1      43
  -1  10  31       2      45
   2  10  31       6      43
  -2  10  31      42      44
   3  10  31       5      43
  -3  10  31       9      42
   4  10  31      45      44
  -4  10  31      10      44
   5  10  31       0      46
  -5  10  31      34      48
   6  10  31      42      53
  -6  10  31      41      51
   7  10  31       7      55
  -7  10  31       3      52
   8  10  31       1      56
  -8  10  31       1      53
   1  11  31       7      50
  -1  11  31      82      50
   2  11  31      26      50
  -2  11  31       3      47
   3  11  31       5      49
  -3  11  31       4      46
   4  11  31       0      47
  -4  11  31      61      50
   5  11  31       8      57
  -5  11  31      29      54
   6  11  31       2      56
  -6  11  31      34      54
   7  11  31       1      57
  -7  11  31       1      55
   0  12  31      23      17
   1  12  31      16      53
  -1  12  31      16      52
   2  12  31      11      54
  -2  12  31       1      50
   3  12  31      14      52
  -3  12  31      62      51
   4  12  31       8      55
  -4  12  31     121      55
   5  12  31       2      63
  -5  12  31      56      58
   1  13  31       1      56
  -1  13  31       1      54
   2  13  31       6      69
  -2  13  31     101      65
   0   0  32   16218     353
   1   1  32    1138      27
   0   2  32    1222      25
   1   2  32     328      41
  -1   2  32     183      40
   2   2  32    3052      44
   1   3  32      21      29
  -1   3  32      22      29
   2   3  32     229      36
  -2   3  32     230      36
   3   3  32       4      10
   0   4  32    1737      29
   1   4  32     409      41
  -1   4  32     275      40
   2   4  32    1859      91
  -2   4  32    1836      91
   3   4  32      21      31
  -3   4  32      20      31
   4   4  32    1569      27
   1   5  32       8      33
  -1   5  32      41      35
   2   5  32      15      36
  -2   5  32      40      34
   3   5  32      38      36
  -3   5  32       3      33
   4   5  32      66      40
  -4   5  32      82      36
   5   5  32       4      14
   0   6  32    1380      28
   1   6  32     102      39
  -1   6  32     183      40
   2   6  32    1409      84
  -2   6  32    1519      83
   3   6  32      46      38
  -3   6  32      60      35
   4   6  32     931      81
  -4   6  32    1114      74
   5   6  32      14      45
  -5   6  32     100      43
   6   6  32     566      27
   1   7  32       9      36
  -1   7  32       9      36
   2   7  32      13      35
  -2   7  32      11      35
   3   7  32      86      40
  -3   7  32     101      38
   4   7  32      12      39
  -4   7  32      11      35
   5   7  32     103      50
  -5   7  32     198      48
   6   7  32      16      46
  -6   7  32      16      44
   7   7  32      60      18
   0   8  32     558      23
   1   8  32      18      39
  -1   8  32      46      39
   2   8  32     946      77
  -2   8  32    1015      76
   3   8  32       6      38
  -3   8  32      17      37
   4   8  32     554      73
  -4   8  32     645      69
   5   8  32     151      49
  -5   8  32       8      46
   6   8  32     141      56
  -6   8  32     154      52
   7   8  32     201      55
  -7   8  32      60      52
   8   8  32     575      31
   1   9  32      30      41
  -1   9  32      25      41
   2   9  32       9      41
  -2   9  32       9      41
   3   9  32      75      42
  -3   9  32       4      42
   4   9  32      37      47
  -4   9  32      26      47
   5   9  32     100      52
  -5   9  32      50      49
   6   9  32      23      51
  -6   9  32       6      48
   7   9  32     242      68
  -7   9  32     556      67
   8   9  32      77      56
  -8   9  32      11      53
   0  10  32     260      19
   1  10  32      86      45
  -1  10  32      14      47
   2  10  32     325      53
  -2  10  32     301      53
   3  10  32      51      45
  -3  10  32      71      45
   4  10  32     507      65
  -4  10  32     304      67
   5  10  32      20      54
  -5  10  32      17      52
   6  10  32     632      94
  -6  10  32     653      90
   7  10  32      11      58
  -7  10  32     104      56
   1  11  32       9      50
  -1  11  32      10      50
   2  11  32      10      50
  -2  11  32      10      47
   3  11  32      57      48
  -3  11  32      43      47
   4  11  32      14      48
  -4  11  32      52      52
   5  11  32      18      62
  -5  11  32     276      65
   6  11  32      38      86
  -6  11  32     140      80
   0  12  32      61      20
   1  12  32      12      55
  -1  12  32      11      52
   2  12  32      39      56
  -2  12  32     119      54
   3  12  32      14      55
  -3  12  32      12      52
  -4  12  32      93      83
   0   2  33     748      24
   1   2  33     119      37
  -1   2  33      63      39
   1   3  33     315      46
  -1   3  33     320      47
   2   3  33      65      33
  -2   3  33      46      34
   0   4  33      54      12
   1   4  33      86      33
  -1   4  33      75      33
   2   4  33      73      36
  -2   4  33     229      37
   3   4  33      20      32
  -3   4  33       2      32
   1   5  33      26      40
  -1   5  33      99      39
   2   5  33      98      40
  -2   5  33       8      36
   3   5  33      16      38
  -3   5  33      43      35
   4   5  33       0      40
  -4   5  33       6      40
   0   6  33       0      12
   1   6  33     322      43
  -1   6  33     180      44
   2   6  33      87      42
  -2   6  33     152      38
   3   6  33     289      54
  -3   6  33     606      53
   4   6  33       5      41
  -4   6  33       6      42
   5   6  33       8      47
  -5   6  33       8      47
   1   7  33       6      37
  -1   7  33      52      38
   2   7  33      88      41
  -2   7  33      11      39
   3   7  33      15      42
  -3   7  33      35      39
   4   7  33      35      45
  -4   7  33      68      45
   5   7  33       7      48
  -5   7  33      51      45
   6   7  33       5      50
  -6   7  33      60      51
   0   8  33      20      13
   1   8  33     226      47
  -1   8  33     171      45
   2   8  33      11      39
  -2   8  33      33      37
   3   8  33     245      50
  -3   8  33     227      45
   4   8  33      82      46
  -4   8  33      17      45
   5   8  33       3      50
  -5   8  33      22      47
   6   8  33      11      50
  -6   8  33      11      47
   7   8  33      65      53
  -7   8  33      24      54
   1   9  33      34      42
  -1   9  33       6      42
   2   9  33     164      47
  -2   9  33      87      47
   3   9  33      32      46
  -3   9  33      12      44
   4   9  33      23      49
  -4   9  33      46      49
   5   9  33      35      51
  -5   9  33      15      48
   6   9  33       3      53
  -6   9  33     105      50
   7   9  33      13      55
  -7   9  33      13      54
   8   9  33      28     174
  -8   9  33      63     170
   0  10  33       6      16
   1  10  33     310      56
  -1  10  33     353      59
   2  10  33      17      46
  -2  10  33      17      49
   3  10  33      11      45
  -3  10  33      11      45
   4  10  33      70      50
  -4  10  33       4      50
   5  10  33     227      59
  -5  10  33     138      57
   6  10  33      16      55
  -6  10  33      83      55
   1  11  33      21      52
  -1  11  33      20      51
   2  11  33      14      53
  -2  11  33      94      52
   3  11  33       2      48
  -3  11  33       3      50
   4  11  33      11      55
  -4  11  33      93      58
   0  12  33      10      76
   1  12  33     154     236
  -1  12  33      46     243
   0   0  34     694      54
   1   1  34     796      25
   0   2  34    6791      87
   1   2  34     207      39
  -1   2  34      70      41
   2   2  34    2108      36
   1   3  34      49      35
  -1   3  34      58      38
   2   3  34     111      36
  -2   3  34      91      36
   3   3  34       1      11
   0   4  34    2088      37
   1   4  34     126      40
  -1   4  34     171      40
   2   4  34    1391      90
  -2   4  34    1397      87
   3   4  34     130      42
  -3   4  34      73      39
   4   4  34     811      26
   1   5  34      11      38
  -1   5  34     102      36
   2   5  34      13      39
  -2   5  34      11      37
   3   5  34      17      40
  -3   5  34       2      37
   4   5  34       9      43
  -4   5  34       9      45
   5   5  34      92      17
   0   6  34    1071      27
   1   6  34     111      42
  -1   6  34      67      40
   2   6  34    1053      83
  -2   6  34    1053      78
   3   6  34      85      44
  -3   6  34     147      42
   4   6  34     523      74
  -4   6  34     542      77
   5   6  34      10      48
  -5   6  34      10      49
   6   6  34     394      23
   1   7  34      10      40
  -1   7  34      22      39
   2   7  34       5      41
  -2   7  34       5      38
   3   7  34      24      42
  -3   7  34      11      39
   4   7  34      11      46
  -4   7  34      11      48
   5   7  34      72      54
  -5   7  34      92      55
   6   7  34      44      53
  -6   7  34      70      53
   7   7  34     178      20
   0   8  34     807      26
   1   8  34      16      41
  -1   8  34      16      40
   2   8  34     568      76
  -2   8  34     720      71
   3   8  34       6      45
  -3   8  34      75      41
   4   8  34     354      71
  -4   8  34     553      69
   5   8  34      72      54
  -5   8  34      97      54
   6   8  34     446      84
  -6   8  34     674      87
   7   8  34      68      57
  -7   8  34      39      57
   1   9  34       6      43
  -1   9  34      34      42
   2   9  34      65      47
  -2   9  34      14      45
   3   9  34      16      50
  -3   9  34     101      49
   4   9  34      56      52
  -4   9  34      13      51
   5   9  34     115      58
  -5   9  34     197      55
   6   9  34      20      57
  -6   9  34     187      58
   0  10  34     216      19
   1  10  34      51      47
  -1  10  34      11      48
   2  10  34     240      60
  -2  10  34     439      62
   3  10  34       8      51
  -3  10  34       9      51
   4  10  34     219      65
  -4  10  34     505      66
   5  10  34     125     202
  -5  10  34      52     236
   1  11  34       4      52
  -1  11  34      31      51
   2  11  34     142     185
  -2  11  34      57     205
   0   2  35      71      14
   1   2  35      74      39
  -1   2  35      28      40
   1   3  35      55      37
  -1   3  35      17      38
   2   3  35      46      37
  -2   3  35      58      37
   0   4  35      10      15
   1   4  35      74      43
  -1   4  35       8      43
   2   4  35       3      40
  -2   4  35       4      39
   3   4  35     136      42
  -3   4  35      57      39
   1   5  35      20      40
  -1   5  35      20      41
   2   5  35       0      41
  -2   5  35       0      39
   3   5  35       2      41
  -3   5  35       9      39
   4   5  35       5      47
  -4   5  35       4      48
   0   6  35      17      15
   1   6  35      22      42
  -1   6  35      81      42
   2   6  35      27      41
  -2   6  35       3      39
   3   6  35      12      42
  -3   6  35       2      41
   4   6  35       4      49
  -4   6  35       3      49
   5   6  35       1      50
  -5   6  35       2      51
   1   7  35      13      45
  -1   7  35      12      41
   2   7  35       5      42
  -2   7  35       5      39
   3   7  35      16      45
  -3   7  35      53      48
   4   7  35      15      51
  -4   7  35      41      53
   5   7  35       4      51
  -5   7  35       3      51
   6   7  35       1      52
  -6   7  35      15      53
   0   8  35      12      14
   1   8  35      12      45
  -1   8  35      70      43
   2   8  35       3      44
  -2   8  35       3      40
   3   8  35      24      48
  -3   8  35     110      47
   4   8  35       6      51
  -4   8  35       6      50
   5   8  35       9      53
  -5   8  35       7      53
   6   8  35       7      55
  -6   8  35       8      56
   1   9  35      69      47
  -1   9  35      31      45
   2   9  35       5      48
  -2   9  35       5      47
   3   9  35       6      49
  -3   9  35      36      51
   4   9  35       6      58
  -4   9  35       0      53
   5   9  35      12      90
  -5   9  35      12      93
   0  10  35       2      17
   1  10  35      15      49
  -1  10  35      74      49
   2  10  35       5      50
  -2  10  35      32      49
   3  10  35     390     235
  -3  10  35      17     223
   0   0  36    2328      88
   1   1  36      81      14
   0   2  36     677      26
   1   2  36      76      39
  -1   2  36       9      39
   2   2  36    1998      38
   1   3  36     108      40
  -1   3  36      92      41
   2   3  36     203      43
  -2   3  36      77      42
   3   3  36      22      14
   0   4  36    1130      34
   1   4  36      74      46
  -1   4  36      17      45
   2   4  36     672      83
  -2   4  36     673      80
   3   4  36      14      45
  -3   4  36      16      48
   4   4  36     522      21
   1   5  36      23      46
  -1   5  36       7      45
   2   5  36     106      45
  -2   5  36       7      46
   3   5  36       1      49
  -3   5  36       1      53
   4   5  36      12      49
  -4   5  36      44      50
   5   5  36      12      17
   0   6  36     420      25
   1   6  36      44      45
  -1   6  36      14      45
   2   6  36     362      60
  -2   6  36     448      56
   3   6  36      15      45
  -3   6  36      18      48
   4   6  36     397      65
  -4   6  36     327      66
   5   6  36      72      54
  -5   6  36     127      55
   6   6  36     488      25
   1   7  36       9      44
  -1   7  36       9      44
   2   7  36       7      43
  -2   7  36      60      41
   3   7  36      10      47
  -3   7  36       9      49
   4   7  36     160      56
  -4   7  36      61      56
   5   7  36      47      55
  -5   7  36      12      54
   6   7  36      16      56
  -6   7  36      16      57
   0   8  36     274      19
   1   8  36      10      46
  -1   8  36      10      45
   2   8  36     244      59
  -2   8  36     181      53
   3   8  36       8      52
  -3   8  36     142      55
   4   8  36     270      65
  -4   8  36     349      65
   5   8  36      45     168
  -5   8  36      43     164
   1   9  36      32      47
  -1   9  36      13      44
   2   9  36      10      50
  -2   9  36      59      49
   3   9  36     118     197
  -3   9  36      45     227
   0   2  37       7      14
   1   2  37     130      41
  -1   2  37      34      41
   1   3  37      18      46
  -1   3  37       2      45
   2   3  37      37      47
  -2   3  37       9      44
   0   4  37      49      16
   1   4  37     433      63
  -1   4  37     269      60
   2   4  37      14      48
  -2   4  37      18      45
   3   4  37     148      58
  -3   4  37     113      59
   1   5  37       3      49
  -1   5  37      34      47
   2   5  37      88      49
  -2   5  37      92      47
   3   5  37      53      57
  -3   5  37     113      59
   4   5  37     141      56
  -4   5  37     165      57
   0   6  37      90      17
   1   6  37      18      51
  -1   6  37     133      50
   2   6  37      14      46
  -2   6  37      13      46
   3   6  37      19      54
  -3   6  37      63      56
   4   6  37      26      51
  -4   6  37     127      53
   5   6  37      63      55
  -5   6  37      42      55
   1   7  37      15      46
  -1   7  37      14      45
   2   7  37     105      51
  -2   7  37      35      49
   3   7  37      51      54
  -3   7  37       7      55
   4   7  37      49      55
  -4   7  37       6      55
   0   8  37       4      16
   1   8  37      18      50
  -1   8  37      35      50
   2   8  37      37      55
  -2   8  37      50      62
   3   8  37     314     256
  -3   8  37      44     257
   0   0  38    1962      82
   1   1  38       0      13
   0   2  38    1305      32
   1   2  38       9      39
  -1   2  38       8      40
   2   2  38     484      20
   1   3  38      15      50
  -1   3  38     187      48
   2   3  38     126      49
  -2   3  38      15      47
   3   3  38      26      19
   0   4  38     493      23
   1   4  38      51      49
  -1   4  38       8      46
   2   4  38    1323     112
  -2   4  38    1532     111
   3   4  38      33      59
  -3   4  38     133      60
   4   4  38    1524      43
   1   5  38      19      50
  -1   5  38      19      47
   2   5  38      20      51
  -2   5  38     129      54
   3   5  38      19      59
  -3   5  38     113      60
   4   5  38     181      59
  -4   5  38      18      60
   5   5  38      10      28
   0   6  38     811      33
   1   6  38       8      49
  -1   6  38      69      46
   2   6  38     842     102
  -2   6  38     804     106
   3   6  38      85      59
  -3   6  38      73      60
   4   6  38     209     248
  -4   6  38    1060     303
   1   7  38      78      85
  -1   7  38      12      77
   2   7  38      67     251
  -2   7  38     144     260
   0   2  39      30      16
   1   2  39       6      47
  -1   2  39       5      46
   1   3  39       1      49
  -1   3  39      56      46
   2   3  39       9      56
  -2   3  39      10      56
   0   4  39      15      17
   1   4  39      13      50
  -1   4  39       2      48
   2   4  39       0      56
  -2   4  39      58      56
   3   4  39      18      57
  -3   4  39      67      58
   1   5  39       3      50
  -1   5  39       8      47
   2   5  39       3      56
  -2   5  39       3      57
   3   5  39       2      74
   0   0  40     153      28
   1   1  40      13      16
   0   2  40     213      19
   1   2  40      11      51
  -1   2  40      12      48
   2   2  40     317      23
   1   3  40      45      85
  -1   3  40      84      82
   0   0   0       4       0
;
_shelx_hkl_checksum              55315
_shelx_fab_file
;
    0    2    0   -191.99      0.00
    1    3    0     74.62      0.00
    2    4    0    -30.64      0.00
    4    4    0     25.35      0.00
    3    5    0      6.92      0.00
    5    5    0     -9.02      0.00
    0    6    0      2.70      0.00
    2    6    0    -15.69      0.00
    4    6    0      0.54      0.00
    6    6    0     -1.89      0.00
    1    7    0     -7.07      0.00
    3    7    0      7.76      0.00
    5    7    0      0.59      0.00
    7    7    0      6.09      0.00
    0    8    0     11.91      0.00
    2    8    0     -3.84      0.00
    4    8    0      5.75      0.00
    6    8    0      3.18      0.00
    8    8    0     -1.55      0.00
    1    9    0    -11.01      0.00
    3    9    0      5.66      0.00
    5    9    0     -0.64      0.00
    7    9    0     -1.13      0.00
    9    9    0      2.86      0.00
    0   10    0     -1.04      0.00
    2   10    0     -0.89      0.00
    4   10    0      1.28      0.00
    6   10    0     -0.37      0.00
    8   10    0      0.85      0.00
   10   10    0     -4.51      0.00
    1   11    0     -6.30      0.00
    3   11    0      3.24      0.00
    5   11    0     -0.55      0.00
    7   11    0     -1.45      0.00
    9   11    0     -1.82      0.00
   11   11    0      0.12      0.00
    0   12    0     -6.50      0.00
    2   12    0      2.54      0.00
    4   12    0     -0.38      0.00
    6   12    0     -0.61      0.00
    8   12    0      0.08      0.00
   10   12    0     -1.13      0.00
   12   12    0      1.52      0.00
    1   13    0      2.39      0.00
    3   13    0     -1.00      0.00
    5   13    0      1.39      0.00
    7   13    0     -1.28      0.00
    9   13    0     -1.07      0.00
   11   13    0      1.75      0.00
   13   13    0     -0.87      0.00
    0   14    0     -1.22      0.00
    2   14    0     -0.19      0.00
    4   14    0      3.10      0.00
    6   14    0     -1.47      0.00
    8   14    0     -0.35      0.00
   10   14    0      1.31      0.00
   12   14    0     -0.97      0.00
   14   14    0      0.38      0.00
    1   15    0      3.70      0.00
    3   15    0      1.11      0.00
    5   15    0     -2.22      0.00
    7   15    0     -1.54      0.00
    9   15    0      0.89      0.00
   11   15    0     -0.69      0.00
   13   15    0      1.45      0.00
    0   16    0      2.73      0.00
    2   16    0     -0.61      0.00
    4   16    0     -2.39      0.00
    6   16    0      0.47      0.00
    8   16    0      1.52      0.00
   10   16    0      0.89      0.00
   12   16    0      2.51      0.00
    1   17    0      0.05      0.00
    3   17    0     -2.88      0.00
    5   17    0      2.80      0.00
    7   17    0      0.68      0.00
    9   17    0      0.99      0.00
   11   17    0      0.58      0.00
    0   18    0     -5.85      0.00
    2   18    0     -0.60      0.00
    4   18    0      2.16      0.00
    6   18    0      0.39      0.00
    8   18    0     -1.36      0.00
    1   19    0      7.89      0.00
    3   19    0     -0.34      0.00
    5   19    0      2.18      0.00
    7   19    0     -2.51      0.00
    0   20    0      5.54      0.00
    2   20    0     -3.13      0.00
    4   20    0      2.67      0.00
    0    2    1    -52.71      0.00
    1    2    1     23.79      0.00
    1    3    1     25.00      0.00
    2    3    1    -14.88      0.00
    0    4    1      8.05      0.00
    1    4    1      0.01      0.00
    2    4    1     15.22      0.00
    3    4    1      3.68      0.00
    1    5    1      6.74      0.00
    2    5    1     -3.09      0.00
    3    5    1     -7.49      0.00
    4    5    1     -0.08      0.00
    0    6    1    -12.52      0.00
    1    6    1     -1.04      0.00
    2    6    1      0.54      0.00
    3    6    1      1.98      0.00
    4    6    1     -9.16      0.00
    5    6    1     -7.19      0.00
    1    7    1      8.47      0.00
    2    7    1      3.08      0.00
    3    7    1     -2.48      0.00
    4    7    1     -5.44      0.00
    5    7    1      6.06      0.00
    6    7    1      3.28      0.00
    0    8    1     -1.01      0.00
    1    8    1      2.04      0.00
    2    8    1      7.70      0.00
    3    8    1     -4.39      0.00
    4    8    1     -0.57      0.00
    5    8    1      2.35      0.00
    6    8    1     -0.28      0.00
    7    8    1      1.48      0.00
    1    9    1      8.75      0.00
    2    9    1     -2.16      0.00
    3    9    1     -4.76      0.00
    4    9    1      1.45      0.00
    5    9    1     -0.46      0.00
    6    9    1      0.45      0.00
    7    9    1      1.27      0.00
    8    9    1     -0.22      0.00
    0   10    1      3.73      0.00
    1   10    1      1.30      0.00
    2   10    1     -0.49      0.00
    3   10    1     -0.96      0.00
    4   10    1     -2.67      0.00
    5   10    1     -0.71      0.00
    6   10    1      1.85      0.00
    7   10    1      0.16      0.00
    8   10    1     -1.02      0.00
    9   10    1      0.06      0.00
    1   11    1      1.28      0.00
    2   11    1     -3.15      0.00
    3   11    1     -3.00      0.00
    4   11    1      0.00      0.00
    5   11    1      1.27      0.00
    6   11    1      0.38      0.00
    7   11    1     -0.95      0.00
    8   11    1     -0.27      0.00
    9   11    1     -2.45      0.00
   10   11    1     -0.25      0.00
    0   12    1      0.41      0.00
    1   12    1     -1.19      0.00
    2   12    1     -1.04      0.00
    3   12    1      0.65      0.00
    4   12    1     -0.66      0.00
    5   12    1     -0.70      0.00
    6   12    1     -1.38      0.00
    7   12    1      0.03      0.00
    8   12    1     -2.01      0.00
    9   12    1      0.37      0.00
   10   12    1      3.06      0.00
   11   12    1     -0.79      0.00
    1   13    1     -0.38      0.00
    2   13    1     -0.83      0.00
    3   13    1     -0.56      0.00
    4   13    1     -1.17      0.00
    5   13    1     -1.31      0.00
    6   13    1      1.45      0.00
    7   13    1      0.86      0.00
    8   13    1      0.81      0.00
    9   13    1      2.61      0.00
   10   13    1      0.15      0.00
   11   13    1     -1.35      0.00
   12   13    1      0.53      0.00
    0   14    1      0.83      0.00
    1   14    1      0.00      0.00
    2   14    1     -0.58      0.00
    3   14    1     -0.14      0.00
    4   14    1     -0.15      0.00
    5   14    1      2.07      0.00
    6   14    1      0.91      0.00
    7   14    1      0.80      0.00
    8   14    1      0.83      0.00
    9   14    1      0.39      0.00
   10   14    1     -1.22      0.00
   11   14    1     -1.05      0.00
   12   14    1     -0.12      0.00
   13   14    1     -0.22      0.00
    1   15    1     -2.34      0.00
    2   15    1     -1.88      0.00
    3   15    1      1.95      0.00
    4   15    1      1.13      0.00
    5   15    1     -2.27      0.00
    6   15    1      0.43      0.00
    7   15    1      0.91      0.00
    8   15    1     -0.44      0.00
    9   15    1     -0.19      0.00
   10   15    1     -1.09      0.00
   11   15    1      0.21      0.00
   12   15    1      0.83      0.00
   13   15    1      0.81      0.00
    0   16    1     -0.08      0.00
    1   16    1     -1.74      0.00
    2   16    1      2.23      0.00
    3   16    1      2.20      0.00
    4   16    1     -3.32      0.00
    5   16    1      0.23      0.00
    6   16    1      2.81      0.00
    7   16    1     -0.24      0.00
    8   16    1      2.23      0.00
    9   16    1     -0.14      0.00
   10   16    1     -0.28      0.00
   11   16    1     -0.20      0.00
   12   16    1      0.52      0.00
    1   17    1     -1.05      0.00
    2   17    1      1.26      0.00
    3   17    1     -2.66      0.00
    4   17    1     -1.12      0.00
    5   17    1      3.06      0.00
    6   17    1      0.14      0.00
    7   17    1      1.79      0.00
    8   17    1     -0.93      0.00
    9   17    1     -3.25      0.00
   10   17    1     -1.06      0.00
   11   17    1      0.98      0.00
    0   18    1      0.99      0.00
    1   18    1     -0.40      0.00
    2   18    1     -4.09      0.00
    3   18    1     -1.10      0.00
    4   18    1      3.60      0.00
    5   18    1     -0.03      0.00
    6   18    1     -1.39      0.00
    7   18    1     -1.11      0.00
    8   18    1     -2.43      0.00
    9   18    1      0.34      0.00
    1   19    1     -7.38      0.00
    2   19    1     -1.04      0.00
    3   19    1      6.36      0.00
    4   19    1     -0.56      0.00
    5   19    1     -3.02      0.00
    6   19    1      0.56      0.00
    7   19    1      1.35      0.00
    0   20    1     -7.42      0.00
    1   20    1     -1.71      0.00
    2   20    1      5.94      0.00
    3   20    1     -0.06      0.00
    4   20    1     -3.04      0.00
    1    1    2    -14.45      0.00
    0    2    2    -11.81      0.00
    1    2    2     -1.34      0.00
    2    2    2    -29.93      0.00
    1    3    2      0.55      0.00
    2    3    2      1.90      0.00
    3    3    2     17.27      0.00
    1    4    2      3.73      0.00
    2    4    2      0.94      0.00
    3    4    2     -0.55      0.00
    4    4    2     18.38      0.00
    2    5    2     -6.48      0.00
    3    5    2      6.64      0.00
    4    5    2     -0.89      0.00
    5    5    2    -10.68      0.00
    1    6    2     -9.35      0.00
    2    6    2     -9.08      0.00
    3    6    2      4.53      0.00
    4    6    2     -0.43      0.00
    6    6    2     -5.05      0.00
    1    7    2     -5.10      0.00
    2    7    2      9.05      0.00
    3    7    2      8.83      0.00
    4    7    2      1.34      0.00
    5    7    2     -3.38      0.00
    6    7    2     -1.74      0.00
    7    7    2      2.15      0.00
    0    8    2      4.95      0.00
    1    8    2      2.27      0.00
    2    8    2      0.29      0.00
    3    8    2      0.51      0.00
    4    8    2      0.60      0.00
    5    8    2     -3.07      0.00
    6    8    2      0.26      0.00
    7    8    2      1.61      0.00
    8    8    2     -1.57      0.00
    1    9    2     -3.99      0.00
    2    9    2      3.18      0.00
    3    9    2      2.86      0.00
    4    9    2     -2.74      0.00
    5    9    2     -0.29      0.00
    6    9    2      3.84      0.00
    7    9    2     -1.39      0.00
    8    9    2     -1.17      0.00
    9    9    2      3.60      0.00
    0   10    2      2.12      0.00
    1   10    2      1.80      0.00
    2   10    2     -0.30      0.00
    3   10    2     -1.90      0.00
    4   10    2      2.23      0.00
    5   10    2      2.84      0.00
    6   10    2     -2.11      0.00
    7   10    2     -4.05      0.00
    8   10    2      2.22      0.00
    9   10    2     -0.18      0.00
   10   10    2     -1.11      0.00
    1   11    2     -2.25      0.00
    2   11    2     -0.90      0.00
    3   11    2      2.55      0.00
    4   11    2      0.53      0.00
    5   11    2     -2.75      0.00
    6   11    2     -3.65      0.00
    7   11    2     -0.14      0.00
    8   11    2      0.72      0.00
    9   11    2     -0.81      0.00
   10   11    2     -0.29      0.00
   11   11    2     -1.25      0.00
    0   12    2      0.12      0.00
    1   12    2     -1.29      0.00
    2   12    2      0.25      0.00
    3   12    2      1.50      0.00
    4   12    2     -1.95      0.00
    5   12    2     -0.57      0.00
    6   12    2     -0.52      0.00
    7   12    2     -0.10      0.00
    8   12    2     -0.55      0.00
    9   12    2     -0.38      0.00
   10   12    2      0.21      0.00
   11   12    2      0.69      0.00
   12   12    2      0.95      0.00
    1   13    2      0.17      0.00
    2   13    2      2.66      0.00
    3   13    2     -0.41      0.00
    4   13    2     -0.47      0.00
    5   13    2      0.70      0.00
    6   13    2     -2.47      0.00
    7   13    2     -1.35      0.00
    8   13    2      1.52      0.00
    9   13    2      2.07      0.00
   10   13    2      0.51      0.00
   11   13    2     -0.70      0.00
   12   13    2      0.18      0.00
   13   13    2     -0.67      0.00
    0   14    2      1.44      0.00
    1   14    2      0.84      0.00
    2   14    2     -0.07      0.00
    3   14    2     -0.14      0.00
    4   14    2     -1.01      0.00
    5   14    2     -2.17      0.00
    6   14    2     -1.86      0.00
    7   14    2      2.85      0.00
    8   14    2      1.45      0.00
    9   14    2     -1.14      0.00
   10   14    2     -1.87      0.00
   11   14    2      1.13      0.00
   12   14    2      0.68      0.00
   13   14    2     -0.09      0.00
   14   14    2     -0.64      0.00
    1   15    2      0.43      0.00
    2   15    2      1.14      0.00
    3   15    2     -2.13      0.00
    4   15    2     -1.85      0.00
    5   15    2      0.58      0.00
    6   15    2      2.03      0.00
    7   15    2      0.40      0.00
    8   15    2     -0.86      0.00
    9   15    2      0.69      0.00
   10   15    2      1.64      0.00
   11   15    2      1.44      0.00
   12   15    2     -0.27      0.00
   13   15    2     -1.14      0.00
    0   16    2      2.27      0.00
    1   16    2      0.32      0.00
    2   16    2      0.23      0.00
    3   16    2     -1.36      0.00
    4   16    2      0.39      0.00
    5   16    2      1.92      0.00
    6   16    2      0.68      0.00
    7   16    2     -0.40      0.00
    8   16    2      1.90      0.00
    9   16    2     -0.18      0.00
   10   16    2     -0.40      0.00
   11   16    2     -0.64      0.00
   12   16    2     -0.57      0.00
    1   17    2     -0.25      0.00
    2   17    2      0.88      0.00
    3   17    2     -2.81      0.00
    4   17    2      1.29      0.00
    5   17    2      1.94      0.00
    6   17    2     -1.68      0.00
    7   17    2     -0.08      0.00
    8   17    2     -1.25      0.00
    9   17    2     -0.76      0.00
   10   17    2      0.09      0.00
   11   17    2      0.88      0.00
    0   18    2     -1.52      0.00
    1   18    2      1.81      0.00
    2   18    2     -0.26      0.00
    3   18    2     -1.52      0.00
    4   18    2      1.26      0.00
    5   18    2     -1.43      0.00
    6   18    2     -0.56      0.00
    7   18    2     -0.43      0.00
    8   18    2     -0.18      0.00
    9   18    2      1.16      0.00
    1   19    2      2.60      0.00
    2   19    2     -3.45      0.00
    3   19    2     -2.01      0.00
    4   19    2      1.45      0.00
    5   19    2      0.48      0.00
    6   19    2     -0.85      0.00
    7   19    2     -1.37      0.00
    0   20    2      1.63      0.00
    1   20    2     -1.84      0.00
    2   20    2     -1.53      0.00
    3   20    2      3.24      0.00
    4   20    2     -0.59      0.00
    0    2    3    -26.56      0.00
    1    2    3     -3.81      0.00
    1    3    3      1.24      0.00
    2    3    3     -3.95      0.00
    0    4    3     -7.00      0.00
    1    4    3      2.83      0.00
    2    4    3     30.89      0.00
    3    4    3      2.90      0.00
    1    5    3     12.78      0.00
    2    5    3     -7.63      0.00
    3    5    3    -21.12      0.00
    4    5    3      1.58      0.00
    0    6    3    -11.10      0.00
    1    6    3     -6.99      0.00
    2    6    3     -4.22      0.00
    3    6    3      4.77      0.00
    4    6    3     -1.14      0.00
    5    6    3     -0.02      0.00
    1    7    3      7.88      0.00
    2    7    3      3.07      0.00
    3    7    3     -5.13      0.00
    4    7    3      0.34      0.00
    5    7    3      1.16      0.00
    6    7    3      1.81      0.00
    0    8    3     -1.04      0.00
    1    8    3      0.35      0.00
    2    8    3     -1.04      0.00
    3    8    3     -0.10      0.00
    4    8    3      0.18      0.00
    5    8    3      0.97      0.00
    6    8    3      3.35      0.00
    7    8    3     -1.19      0.00
    1    9    3      1.37      0.00
    2    9    3     -0.13      0.00
    3    9    3     -1.07      0.00
    4    9    3      1.90      0.00
    5    9    3      3.28      0.00
    6    9    3      0.77      0.00
    7    9    3     -0.02      0.00
    8    9    3     -0.26      0.00
    0   10    3     -3.74      0.00
    1   10    3      0.12      0.00
    2   10    3      1.94      0.00
    3   10    3      0.23      0.00
    4   10    3      1.03      0.00
    5   10    3     -0.06      0.00
    6   10    3      0.24      0.00
    7   10    3     -1.90      0.00
    8   10    3      0.16      0.00
    9   10    3     -0.63      0.00
    1   11    3      2.19      0.00
    2   11    3     -1.18      0.00
    3   11    3     -0.52      0.00
    4   11    3      0.41      0.00
    5   11    3      0.14      0.00
    6   11    3     -0.88      0.00
    7   11    3      1.39      0.00
    8   11    3     -1.31      0.00
    9   11    3     -0.66      0.00
   10   11    3      0.84      0.00
    0   12    3     -2.62      0.00
    1   12    3     -0.65      0.00
    2   12    3      1.20      0.00
    3   12    3      1.19      0.00
    4   12    3      0.34      0.00
    5   12    3      0.86      0.00
    6   12    3      1.78      0.00
    7   12    3     -0.94      0.00
    8   12    3     -0.90      0.00
    9   12    3      2.85      0.00
   10   12    3     -1.43      0.00
   11   12    3     -1.62      0.00
    1   13    3      2.63      0.00
    2   13    3      0.97      0.00
    3   13    3      0.16      0.00
    4   13    3      0.81      0.00
    5   13    3      0.51      0.00
    6   13    3     -1.17      0.00
    7   13    3     -0.18      0.00
    8   13    3      1.13      0.00
    9   13    3     -2.22      0.00
   10   13    3     -2.34      0.00
   11   13    3      1.82      0.00
   12   13    3      1.72      0.00
    0   14    3      2.04      0.00
    1   14    3      0.28      0.00
    2   14    3     -1.44      0.00
    3   14    3      0.08      0.00
    4   14    3      0.11      0.00
    5   14    3     -0.71      0.00
    6   14    3     -0.25      0.00
    7   14    3      0.54      0.00
    8   14    3     -1.75      0.00
    9   14    3     -0.14      0.00
   10   14    3      1.20      0.00
   11   14    3      1.75      0.00
   12   14    3     -2.41      0.00
   13   14    3     -0.69      0.00
    1   15    3     -3.58      0.00
    2   15    3      1.04      0.00
    3   15    3      1.50      0.00
    4   15    3      0.16      0.00
    5   15    3      0.26      0.00
    6   15    3      1.01      0.00
    7   15    3      0.70      0.00
    8   15    3     -0.28      0.00
    9   15    3     -0.66      0.00
   10   15    3      0.42      0.00
   11   15    3     -1.06      0.00
   12   15    3     -0.75      0.00
   13   15    3      2.51      0.00
    0   16    3     -4.53      0.00
    1   16    3      0.39      0.00
    2   16    3      1.85      0.00
    3   16    3     -0.68      0.00
    4   16    3      2.69      0.00
    5   16    3      0.07      0.00
    6   16    3     -0.38      0.00
    7   16    3     -1.90      0.00
    8   16    3     -2.77      0.00
    9   16    3      0.10      0.00
   10   16    3      1.01      0.00
   11   16    3     -0.17      0.00
   12   16    3      1.36      0.00
    1   17    3      1.53      0.00
    2   17    3      1.89      0.00
    3   17    3      4.25      0.00
    4   17    3     -0.26      0.00
    5   17    3     -4.01      0.00
    6   17    3     -0.91      0.00
    7   17    3     -0.92      0.00
    8   17    3      0.73      0.00
    9   17    3      2.42      0.00
   10   17    3      0.52      0.00
   11   17    3     -0.21      0.00
    0   18    3      1.52      0.00
    1   18    3      3.09      0.00
    2   18    3      1.87      0.00
    3   18    3     -2.92      0.00
    4   18    3     -3.44      0.00
    5   18    3     -0.14      0.00
    6   18    3      1.27      0.00
    7   18    3     -0.28      0.00
    8   18    3      0.74      0.00
    9   18    3     -0.19      0.00
    1   19    3     -0.35      0.00
    2   19    3     -2.92      0.00
    3   19    3     -0.58      0.00
    4   19    3      1.01      0.00
    5   19    3     -0.34      0.00
    6   19    3     -0.51      0.00
    7   19    3     -1.36      0.00
    0   20    3      2.06      0.00
    1   20    3      0.22      0.00
    2   20    3     -1.51      0.00
    3   20    3      1.27      0.00
    4   20    3     -0.34      0.00
    1    1    4    116.90      0.00
    0    2    4     79.83      0.00
    1    2    4     -3.88      0.00
    1    3    4    -16.58      0.00
    0    4    4     51.74      0.00
    1    4    4      7.28      0.00
    3    4    4     -2.17      0.00
    4    4    4     19.37      0.00
    1    5    4    -44.75      0.00
    2    5    4     -0.45      0.00
    3    5    4     19.90      0.00
    4    5    4     -0.63      0.00
    5    5    4    -14.59      0.00
    0    6    4    -24.81      0.00
    1    6    4      2.12      0.00
    2    6    4     14.01      0.00
    3    6    4     -3.67      0.00
    4    6    4    -10.96      0.00
    5    6    4     -0.98      0.00
    6    6    4      1.38      0.00
    2    7    4     -2.36      0.00
    3    7    4     -5.38      0.00
    4    7    4      0.62      0.00
    5    7    4      2.28      0.00
    6    7    4      0.36      0.00
    7    7    4     -3.23      0.00
    0    8    4      4.57      0.00
    1    8    4      2.58      0.00
    2    8    4     -4.42      0.00
    3    8    4      1.31      0.00
    4    8    4      3.19      0.00
    5    8    4     -1.68      0.00
    6    8    4     -2.47      0.00
    7    8    4      0.50      0.00
    8    8    4      2.69      0.00
    1    9    4     -5.61      0.00
    2    9    4     -2.09      0.00
    3    9    4      1.46      0.00
    4    9    4     -3.51      0.00
    5    9    4     -0.72      0.00
    6    9    4      1.51      0.00
    7    9    4      0.50      0.00
    8    9    4      0.26      0.00
    9    9    4      0.03      0.00
    0   10    4     -3.20      0.00
    1   10    4     -1.01      0.00
    2   10    4     -0.16      0.00
    3   10    4     -1.98      0.00
    4   10    4      0.94      0.00
    5   10    4      0.72      0.00
    6   10    4     -1.31      0.00
    7   10    4     -0.23      0.00
    8   10    4      1.09      0.00
    9   10    4     -0.70      0.00
   10   10    4      1.02      0.00
    1   11    4      0.83      0.00
    2   11    4     -1.47      0.00
    3   11    4     -0.08      0.00
    4   11    4     -1.04      0.00
    5   11    4      0.13      0.00
    6   11    4     -0.61      0.00
    7   11    4      1.14      0.00
    8   11    4      0.25      0.00
    9   11    4      0.80      0.00
   10   11    4      0.23      0.00
   11   11    4      0.22      0.00
    0   12    4      1.73      0.00
    1   12    4     -0.60      0.00
    2   12    4     -1.71      0.00
    3   12    4     -1.68      0.00
    4   12    4      1.22      0.00
    5   12    4      0.63      0.00
    6   12    4      0.23      0.00
    7   12    4      2.03      0.00
    8   12    4      0.85      0.00
    9   12    4      0.23      0.00
   10   12    4      0.27      0.00
   11   12    4      0.46      0.00
   12   12    4     -0.06      0.00
    1   13    4     -0.77      0.00
    2   13    4     -2.00      0.00
    3   13    4     -0.37      0.00
    4   13    4      2.21      0.00
    5   13    4      1.23      0.00
    6   13    4      0.20      0.00
    7   13    4      0.47      0.00
    8   13    4      0.78      0.00
    9   13    4      0.27      0.00
   10   13    4      0.01      0.00
   11   13    4     -0.19      0.00
   12   13    4     -0.30      0.00
   13   13    4     -0.92      0.00
    0   14    4      0.00      0.00
    1   14    4     -0.46      0.00
    2   14    4     -1.41      0.00
    3   14    4      2.19      0.00
    4   14    4      1.99      0.00
    5   14    4     -2.24      0.00
    6   14    4      0.13      0.00
    7   14    4      3.44      0.00
    8   14    4      0.07      0.00
    9   14    4     -0.57      0.00
   10   14    4     -0.69      0.00
   11   14    4      0.63      0.00
   12   14    4     -1.02      0.00
   13   14    4      0.24      0.00
   14   14    4     -0.56      0.00
    1   15    4     -0.31      0.00
    2   15    4     -0.89      0.00
    3   15    4      0.53      0.00
    4   15    4     -1.90      0.00
    5   15    4      1.13      0.00
    6   15    4      4.10      0.00
    7   15    4     -0.89      0.00
    8   15    4     -0.74      0.00
    9   15    4     -0.59      0.00
   10   15    4      0.16      0.00
   11   15    4     -0.69      0.00
   12   15    4     -0.98      0.00
   13   15    4     -0.13      0.00
    0   16    4     -1.84      0.00
    1   16    4     -2.07      0.00
    2   16    4      0.19      0.00
    3   16    4      0.16      0.00
    4   16    4      1.75      0.00
    5   16    4      1.95      0.00
    6   16    4     -0.97      0.00
    7   16    4      0.25      0.00
    8   16    4      0.48      0.00
    9   16    4     -1.54      0.00
   10   16    4     -0.93      0.00
   11   16    4     -1.39      0.00
   12   16    4      0.44      0.00
    1   17    4      2.78      0.00
    2   17    4      0.50      0.00
    3   17    4      1.10      0.00
    4   17    4      0.89      0.00
    5   17    4     -0.25      0.00
    6   17    4      2.08      0.00
    7   17    4      0.20      0.00
    8   17    4     -2.15      0.00
    9   17    4     -2.25      0.00
   10   17    4     -0.77      0.00
   11   17    4      1.34      0.00
    0   18    4      1.59      0.00
    1   18    4     -1.17      0.00
    2   18    4      0.76      0.00
    3   18    4      0.72      0.00
    4   18    4     -1.56      0.00
    5   18    4      1.97      0.00
    6   18    4     -0.03      0.00
    7   18    4     -3.25      0.00
    8   18    4     -2.31      0.00
    9   18    4     -0.69      0.00
    1   19    4      2.42      0.00
    2   19    4      1.42      0.00
    3   19    4     -3.05      0.00
    4   19    4      2.08      0.00
    5   19    4      1.40      0.00
    6   19    4     -3.03      0.00
    7   19    4     -1.82      0.00
    0   20    4      2.45      0.00
    1   20    4      1.11      0.00
    2   20    4     -2.41      0.00
    3   20    4      1.54      0.00
    4   20    4      0.97      0.00
    0    2    5    -22.64      0.00
    1    3    5      6.70      0.00
    0    4    5     -0.29      0.00
    1    4    5     11.59      0.00
    2    4    5     15.94      0.00
    3    4    5    -13.59      0.00
    1    5    5      7.12      0.00
    2    5    5     -5.91      0.00
    3    5    5     -7.25      0.00
    4    5    5      7.45      0.00
    0    6    5     -8.69      0.00
    1    6    5     -4.12      0.00
    2    6    5      0.18      0.00
    3    6    5      0.63      0.00
    4    6    5     -6.41      0.00
    5    6    5     -1.29      0.00
    1    7    5      9.18      0.00
    2    7    5      2.74      0.00
    3    7    5     -3.46      0.00
    4    7    5      3.37      0.00
    5    7    5      3.64      0.00
    6    7    5     -0.42      0.00
    0    8    5      4.17      0.00
    1    8    5      5.09      0.00
    2    8    5     -0.01      0.00
    3    8    5      1.60      0.00
    4    8    5     -0.65      0.00
    5    8    5      0.51      0.00
    6    8    5     -0.84      0.00
    7    8    5     -2.13      0.00
    1    9    5      2.08      0.00
    2    9    5     -2.89      0.00
    3    9    5     -1.60      0.00
    4    9    5      0.71      0.00
    5    9    5     -0.87      0.00
    6    9    5     -2.95      0.00
    7    9    5      1.82      0.00
    8    9    5      0.73      0.00
    0   10    5      1.91      0.00
    1   10    5     -1.55      0.00
    2   10    5      0.57      0.00
    3   10    5      1.65      0.00
    4   10    5     -0.52      0.00
    5   10    5     -1.14      0.00
    6   10    5      2.43      0.00
    7   10    5     -0.84      0.00
    8   10    5     -1.66      0.00
    9   10    5      0.19      0.00
    1   11    5      0.54      0.00
    2   11    5      1.46      0.00
    3   11    5      0.29      0.00
    4   11    5     -1.42      0.00
    5   11    5     -1.38      0.00
    6   11    5     -2.62      0.00
    7   11    5     -1.46      0.00
    8   11    5      0.33      0.00
    9   11    5      1.37      0.00
   10   11    5     -0.36      0.00
    0   12    5     -0.20      0.00
    1   12    5      0.19      0.00
    2   12    5      0.81      0.00
    3   12    5     -2.71      0.00
    4   12    5     -2.51      0.00
    5   12    5     -0.84      0.00
    6   12    5      1.52      0.00
    7   12    5      0.56      0.00
    8   12    5      1.08      0.00
    9   12    5      0.30      0.00
   10   12    5     -0.68      0.00
   11   12    5     -0.44      0.00
    1   13    5      1.09      0.00
    2   13    5     -1.34      0.00
    3   13    5      0.22      0.00
    4   13    5      1.36      0.00
    5   13    5      0.13      0.00
    6   13    5      0.33      0.00
    7   13    5     -0.34      0.00
    8   13    5      0.35      0.00
    9   13    5     -0.33      0.00
   10   13    5      0.61      0.00
   11   13    5     -0.14      0.00
   12   13    5      1.80      0.00
    0   14    5      1.24      0.00
    1   14    5      0.02      0.00
    2   14    5      0.00      0.00
    3   14    5      0.78      0.00
    4   14    5     -2.06      0.00
    5   14    5     -0.02      0.00
    6   14    5      0.07      0.00
    7   14    5     -0.10      0.00
    8   14    5     -0.04      0.00
    9   14    5      1.23      0.00
   10   14    5      0.03      0.00
   11   14    5      0.72      0.00
   12   14    5      0.49      0.00
   13   14    5     -0.64      0.00
    1   15    5     -0.59      0.00
    2   15    5     -0.40      0.00
    3   15    5      0.23      0.00
    4   15    5     -0.13      0.00
    5   15    5     -0.23      0.00
    6   15    5      0.16      0.00
    7   15    5     -0.17      0.00
    8   15    5      0.68      0.00
    9   15    5      0.35      0.00
   10   15    5      0.69      0.00
   11   15    5     -0.60      0.00
   12   15    5     -0.42      0.00
   13   15    5     -0.89      0.00
    0   16    5      1.31      0.00
    1   16    5     -0.43      0.00
    2   16    5      0.51      0.00
    3   16    5      0.81      0.00
    4   16    5     -0.69      0.00
    5   16    5     -0.13      0.00
    6   16    5     -0.58      0.00
    7   16    5      0.33      0.00
    8   16    5      0.35      0.00
    9   16    5      0.99      0.00
   10   16    5      0.25      0.00
   11   16    5     -0.76      0.00
   12   16    5      0.59      0.00
    1   17    5     -2.03      0.00
    2   17    5      1.11      0.00
    3   17    5      0.37      0.00
    4   17    5     -2.74      0.00
    5   17    5     -2.18      0.00
    6   17    5      1.95      0.00
    7   17    5      1.04      0.00
    8   17    5     -0.51      0.00
    9   17    5      2.16      0.00
   10   17    5     -0.45      0.00
   11   17    5     -1.23      0.00
    0   18    5     -2.42      0.00
    1   18    5      0.16      0.00
    2   18    5      1.01      0.00
    3   18    5     -3.60      0.00
    4   18    5     -1.25      0.00
    5   18    5      4.70      0.00
    6   18    5      1.50      0.00
    7   18    5     -2.20      0.00
    8   18    5      1.69      0.00
    9   18    5      0.87      0.00
    1   19    5      1.38      0.00
    2   19    5     -1.33      0.00
    3   19    5      0.04      0.00
    4   19    5      4.68      0.00
    5   19    5     -1.18      0.00
    6   19    5     -2.43      0.00
    7   19    5      0.79      0.00
    0   20    5      1.88      0.00
    1   20    5      0.00      0.00
    2   20    5     -1.63      0.00
    3   20    5      2.11      0.00
    0    0    6     18.62      0.00
    1    1    6     -0.42      0.00
    0    2    6      4.18      0.00
    1    2    6     -2.54      0.00
    2    2    6    -17.36      0.00
    1    3    6     -5.79      0.00
    2    3    6      2.94      0.00
    3    3    6      3.90      0.00
    0    4    6     11.47      0.00
    1    4    6      3.69      0.00
    2    4    6     -0.09      0.00
    3    4    6      2.83      0.00
    4    4    6     10.07      0.00
    1    5    6     -7.16      0.00
    2    5    6      2.62      0.00
    3    5    6      1.02      0.00
    4    5    6     -4.50      0.00
    5    5    6     -4.80      0.00
    0    6    6     -3.84      0.00
    1    6    6     -1.44      0.00
    2    6    6     -6.90      0.00
    3    6    6     -5.04      0.00
    4    6    6      1.16      0.00
    5    6    6     -0.13      0.00
    6    6    6     -2.61      0.00
    1    7    6     -3.20      0.00
    2    7    6      1.31      0.00
    3    7    6      4.58      0.00
    4    7    6     -1.37      0.00
    5    7    6     -0.84      0.00
    6    7    6      1.21      0.00
    7    7    6      2.87      0.00
    0    8    6     -0.40      0.00
    1    8    6      2.19      0.00
    2    8    6     -0.93      0.00
    3    8    6     -2.38      0.00
    4    8    6      1.88      0.00
    5    8    6      2.08      0.00
    6    8    6      0.05      0.00
    7    8    6      0.70      0.00
    8    8    6     -1.69      0.00
    1    9    6     -0.93      0.00
    2    9    6     -2.85      0.00
    3    9    6      2.72      0.00
    4    9    6      1.59      0.00
    5    9    6     -0.61      0.00
    6    9    6      1.39      0.00
    7    9    6      0.10      0.00
    8    9    6      0.38      0.00
    9    9    6      0.81      0.00
    0   10    6      2.95      0.00
    1   10    6     -2.98      0.00
    2   10    6      0.72      0.00
    3   10    6      2.98      0.00
    4   10    6      1.62      0.00
    5   10    6      0.47      0.00
    6   10    6      0.17      0.00
    7   10    6      0.68      0.00
    8   10    6     -0.02      0.00
    9   10    6     -1.17      0.00
   10   10    6      0.36      0.00
    1   11    6     -1.60      0.00
    2   11    6      3.90      0.00
    3   11    6      0.18      0.00
    4   11    6     -0.89      0.00
    5   11    6     -1.24      0.00
    6   11    6      0.23      0.00
    7   11    6     -0.59      0.00
    8   11    6     -1.67      0.00
    9   11    6      0.13      0.00
   10   11    6      0.25      0.00
   11   11    6     -0.46      0.00
    0   12    6     -0.30      0.00
    1   12    6      1.35      0.00
    2   12    6     -0.42      0.00
    3   12    6     -0.89      0.00
    4   12    6     -0.24      0.00
    5   12    6     -0.73      0.00
    6   12    6      0.41      0.00
    7   12    6      0.18      0.00
    8   12    6      0.31      0.00
    9   12    6      0.12      0.00
   10   12    6     -0.22      0.00
   11   12    6     -0.60      0.00
   12   12    6      0.30      0.00
    1   13    6     -0.47      0.00
    2   13    6     -0.19      0.00
    3   13    6     -1.21      0.00
    4   13    6     -0.40      0.00
    5   13    6      1.61      0.00
    6   13    6      1.73      0.00
    7   13    6     -0.49      0.00
    8   13    6     -0.58      0.00
    9   13    6     -0.68      0.00
   10   13    6     -1.07      0.00
   11   13    6      0.34      0.00
   12   13    6      1.46      0.00
   13   13    6      0.06      0.00
    0   14    6     -1.46      0.00
    1   14    6     -0.44      0.00
    2   14    6     -1.66      0.00
    3   14    6      0.90      0.00
    4   14    6      2.00      0.00
    5   14    6      1.07      0.00
    6   14    6     -1.49      0.00
    7   14    6     -1.45      0.00
    8   14    6     -0.35      0.00
    9   14    6     -0.60      0.00
   10   14    6      0.23      0.00
   11   14    6      1.82      0.00
   12   14    6     -0.15      0.00
   13   14    6     -1.60      0.00
   14   14    6     -0.41      0.00
    1   15    6      0.38      0.00
    2   15    6      1.27      0.00
    3   15    6      1.55      0.00
    4   15    6      0.55      0.00
    5   15    6     -0.09      0.00
    6   15    6     -1.50      0.00
    7   15    6      0.39      0.00
    8   15    6      0.64      0.00
    9   15    6     -0.85      0.00
   10   15    6      0.04      0.00
   11   15    6      0.41      0.00
   12   15    6     -1.00      0.00
   13   15    6      0.05      0.00
    0   16    6     -0.50      0.00
    1   16    6      0.97      0.00
    2   16    6      1.31      0.00
    3   16    6      0.73      0.00
    4   16    6     -0.16      0.00
    5   16    6     -1.35      0.00
    6   16    6     -0.45      0.00
    7   16    6      0.24      0.00
    8   16    6     -1.68      0.00
    9   16    6     -0.56      0.00
   10   16    6      1.61      0.00
   11   16    6      0.92      0.00
   12   16    6      0.25      0.00
    1   17    6      2.79      0.00
    2   17    6     -1.32      0.00
    3   17    6     -1.20      0.00
    4   17    6     -0.25      0.00
    5   17    6      0.08      0.00
    6   17    6     -1.92      0.00
    7   17    6     -1.02      0.00
    8   17    6      0.91      0.00
    9   17    6      1.94      0.00
   10   17    6     -0.99      0.00
   11   17    6     -0.06      0.00
    0   18    6      3.88      0.00
    1   18    6     -2.22      0.00
    2   18    6     -0.85      0.00
    3   18    6      3.17      0.00
    4   18    6     -0.62      0.00
    5   18    6     -3.52      0.00
    6   18    6     -0.50      0.00
    7   18    6      2.74      0.00
    8   18    6      1.24      0.00
    9   18    6     -2.41      0.00
    1   19    6     -1.50      0.00
    2   19    6      3.85      0.00
    3   19    6     -2.73      0.00
    4   19    6     -4.08      0.00
    5   19    6      0.67      0.00
    6   19    6      3.04      0.00
    7   19    6      0.56      0.00
    0   20    6     -1.90      0.00
    1   20    6      1.49      0.00
    2   20    6     -0.82      0.00
    3   20    6     -2.41      0.00
    0    2    7    -16.11      0.00
    1    2    7      1.04      0.00
    1    3    7      6.27      0.00
    2    3    7     -4.42      0.00
    0    4    7      1.28      0.00
    1    4    7      4.00      0.00
    2    4    7      6.40      0.00
    3    4    7      8.73      0.00
    1    5    7      2.19      0.00
    2    5    7     -3.28      0.00
    3    5    7     -1.32      0.00
    4    5    7     -2.00      0.00
    0    6    7     -3.47      0.00
    1    6    7     -4.73      0.00
    2    6    7      2.77      0.00
    3    6    7      1.11      0.00
    4    6    7     -5.31      0.00
    5    6    7     -2.97      0.00
    1    7    7      2.62      0.00
    2    7    7      1.20      0.00
    3    7    7     -3.69      0.00
    4    7    7     -1.51      0.00
    5    7    7      3.39      0.00
    6    7    7     -2.46      0.00
    0    8    7     -0.56      0.00
    1    8    7      0.50      0.00
    2    8    7      1.78      0.00
    3    8    7     -0.17      0.00
    4    8    7     -0.22      0.00
    5    8    7     -0.34      0.00
    6    8    7     -2.08      0.00
    7    8    7     -0.21      0.00
    1    9    7      0.76      0.00
    2    9    7     -1.07      0.00
    3    9    7     -3.35      0.00
    4    9    7      0.71      0.00
    5    9    7     -0.88      0.00
    6    9    7      0.31      0.00
    7    9    7      1.59      0.00
    8    9    7      4.09      0.00
    0   10    7     -1.96      0.00
    1   10    7     -1.51      0.00
    2   10    7     -0.06      0.00
    3   10    7      1.08      0.00
    4   10    7      0.10      0.00
    5   10    7      0.95      0.00
    6   10    7      1.82      0.00
    7   10    7      0.10      0.00
    8   10    7      0.16      0.00
    9   10    7      0.01      0.00
    1   11    7      0.29      0.00
    2   11    7      1.52      0.00
    3   11    7     -0.79      0.00
    4   11    7      1.09      0.00
    5   11    7      0.60      0.00
    6   11    7     -0.97      0.00
    7   11    7     -0.67      0.00
    8   11    7      1.09      0.00
    9   11    7     -0.34      0.00
   10   11    7     -0.65      0.00
    0   12    7     -2.15      0.00
    1   12    7      1.12      0.00
    2   12    7      0.09      0.00
    3   12    7      0.43      0.00
    4   12    7     -0.34      0.00
    5   12    7     -0.54      0.00
    6   12    7     -0.21      0.00
    7   12    7     -1.06      0.00
    8   12    7      1.67      0.00
    9   12    7     -0.31      0.00
   10   12    7      0.28      0.00
   11   12    7     -0.44      0.00
    1   13    7      0.27      0.00
    2   13    7     -0.12      0.00
    3   13    7     -0.30      0.00
    4   13    7     -1.25      0.00
    5   13    7      0.69      0.00
    6   13    7     -1.46      0.00
    7   13    7      2.05      0.00
    8   13    7      1.51      0.00
    9   13    7     -1.72      0.00
   10   13    7      0.03      0.00
   11   13    7     -0.35      0.00
   12   13    7     -1.36      0.00
    0   14    7     -1.28      0.00
    1   14    7      0.43      0.00
    2   14    7     -0.02      0.00
    3   14    7     -1.39      0.00
    4   14    7      0.62      0.00
    5   14    7      0.55      0.00
    6   14    7      0.90      0.00
    7   14    7      1.35      0.00
    8   14    7     -1.96      0.00
    9   14    7     -0.97      0.00
   10   14    7      1.27      0.00
   11   14    7     -1.05      0.00
   12   14    7      0.24      0.00
   13   14    7      1.71      0.00
    1   15    7     -0.16      0.00
    2   15    7     -1.28      0.00
    3   15    7      1.35      0.00
    4   15    7      0.37      0.00
    5   15    7      0.53      0.00
    6   15    7      0.91      0.00
    7   15    7     -0.88      0.00
    8   15    7     -1.91      0.00
    9   15    7      2.11      0.00
   10   15    7      1.46      0.00
   11   15    7     -0.47      0.00
   12   15    7      1.01      0.00
   13   15    7      0.37      0.00
    0   16    7     -0.66      0.00
    1   16    7     -0.42      0.00
    2   16    7      1.35      0.00
    3   16    7     -0.28      0.00
    4   16    7     -0.57      0.00
    5   16    7      2.08      0.00
    6   16    7     -0.70      0.00
    7   16    7     -2.52      0.00
    8   16    7      2.03      0.00
    9   16    7      3.18      0.00
   10   16    7     -1.30      0.00
   11   16    7     -1.71      0.00
   12   16    7      0.06      0.00
    1   17    7      0.75      0.00
    2   17    7     -1.17      0.00
    3   17    7     -0.63      0.00
    4   17    7      1.47      0.00
    5   17    7      0.86      0.00
    6   17    7     -2.80      0.00
    7   17    7      1.80      0.00
    8   17    7      1.69      0.00
    9   17    7     -1.45      0.00
   10   17    7     -3.31      0.00
    0   18    7      2.54      0.00
    1   18    7     -2.04      0.00
    2   18    7     -1.46      0.00
    3   18    7      1.51      0.00
    4   18    7      1.64      0.00
    5   18    7     -1.51      0.00
    6   18    7     -0.47      0.00
    7   18    7      0.67      0.00
    8   18    7     -1.26      0.00
    9   18    7     -0.92      0.00
    1   19    7     -4.78      0.00
    2   19    7      3.36      0.00
    3   19    7      2.28      0.00
    4   19    7     -1.36      0.00
    5   19    7     -1.39      0.00
    6   19    7      1.48      0.00
    0   20    7     -5.62      0.00
    1   20    7      2.44      0.00
    2   20    7      3.68      0.00
    1    1    8    -31.92      0.00
    0    2    8    -16.98      0.00
    1    2    8     -0.77      0.00
    2    2    8     -1.55      0.00
    1    3    8     -4.15      0.00
    2    3    8      1.53      0.00
    3    3    8      3.85      0.00
    0    4    8     -9.18      0.00
    1    4    8      3.83      0.00
    2    4    8      6.12      0.00
    3    4    8      1.23      0.00
    4    4    8      2.70      0.00
    1    5    8     10.59      0.00
    2    5    8     -1.41      0.00
    3    5    8     -2.55      0.00
    4    5    8     -3.30      0.00
    5    5    8      0.22      0.00
    0    6    8      9.99      0.00
    1    6    8     -4.50      0.00
    2    6    8     -9.06      0.00
    3    6    8     -3.85      0.00
    4    6    8      2.95      0.00
    5    6    8      0.02      0.00
    6    6    8      0.27      0.00
    1    7    8     -4.22      0.00
    2    7    8      2.03      0.00
    3    7    8      4.82      0.00
    4    7    8      0.24      0.00
    5    7    8      0.16      0.00
    6    7    8      0.67      0.00
    7    7    8     -1.37      0.00
    0    8    8      4.03      0.00
    1    8    8      2.74      0.00
    2    8    8     -0.59      0.00
    3    8    8     -0.63      0.00
    4    8    8      0.51      0.00
    5    8    8      1.65      0.00
    6    8    8     -0.90      0.00
    7    8    8      1.86      0.00
    8    8    8     -0.68      0.00
    1    9    8     -4.28      0.00
    2    9    8     -0.08      0.00
    3    9    8      1.75      0.00
    4    9    8      1.56      0.00
    5    9    8      0.02      0.00
    6    9    8      1.10      0.00
    7    9    8     -1.34      0.00
    8    9    8     -0.28      0.00
    9    9    8     -0.22      0.00
    0   10    8     -1.51      0.00
    1   10    8      1.65      0.00
    2   10    8      1.14      0.00
    3   10    8     -0.37      0.00
    4   10    8      0.64      0.00
    5   10    8     -1.34      0.00
    6   10    8     -1.58      0.00
    7   10    8      2.14      0.00
    8   10    8      0.47      0.00
    9   10    8     -1.63      0.00
   10   10    8      1.02      0.00
    1   11    8     -0.35      0.00
    2   11    8     -1.49      0.00
    3   11    8      1.02      0.00
    4   11    8      0.23      0.00
    5   11    8     -0.79      0.00
    6   11    8      2.49      0.00
    7   11    8      0.41      0.00
    8   11    8     -3.68      0.00
    9   11    8      0.03      0.00
   10   11    8      0.80      0.00
   11   11    8      0.57      0.00
    0   12    8     -0.75      0.00
    1   12    8     -0.04      0.00
    2   12    8      0.61      0.00
    3   12    8      0.34      0.00
    4   12    8     -0.95      0.00
    5   12    8     -1.26      0.00
    6   12    8     -0.35      0.00
    7   12    8     -1.56      0.00
    8   12    8     -0.77      0.00
    9   12    8      0.00      0.00
   10   12    8      0.68      0.00
   11   12    8     -1.14      0.00
   12   12    8     -1.24      0.00
    1   13    8      1.14      0.00
    2   13    8     -0.95      0.00
    3   13    8     -0.50      0.00
    4   13    8     -0.95      0.00
    5   13    8      0.78      0.00
    6   13    8      0.54      0.00
    7   13    8     -0.76      0.00
    8   13    8     -1.62      0.00
    9   13    8      0.24      0.00
   10   13    8     -0.81      0.00
   11   13    8     -0.52      0.00
   12   13    8      1.05      0.00
   13   13    8      0.32      0.00
    0   14    8      2.49      0.00
    1   14    8     -0.45      0.00
    2   14    8      0.03      0.00
    3   14    8      0.57      0.00
    4   14    8      0.10      0.00
    5   14    8     -0.45      0.00
    6   14    8     -1.54      0.00
    7   14    8     -0.34      0.00
    8   14    8     -0.19      0.00
    9   14    8     -0.14      0.00
   10   14    8      0.89      0.00
   11   14    8      1.18      0.00
   12   14    8      0.14      0.00
   13   14    8      0.41      0.00
   14   14    8      0.25      0.00
    1   15    8     -0.88      0.00
    2   15    8      0.78      0.00
    3   15    8     -2.20      0.00
    4   15    8     -0.43      0.00
    5   15    8      0.00      0.00
    6   15    8     -0.19      0.00
    7   15    8      0.44      0.00
    8   15    8     -0.53      0.00
    9   15    8      0.97      0.00
   10   15    8      0.91      0.00
   11   15    8     -0.11      0.00
   12   15    8      1.62      0.00
   13   15    8      0.20      0.00
    0   16    8     -0.52      0.00
    1   16    8      1.32      0.00
    2   16    8     -1.18      0.00
    3   16    8     -0.47      0.00
    4   16    8      2.76      0.00
    5   16    8     -1.01      0.00
    6   16    8     -0.21      0.00
    7   16    8      0.79      0.00
    8   16    8     -0.25      0.00
    9   16    8      0.51      0.00
   10   16    8      0.82      0.00
   11   16    8      1.66      0.00
   12   16    8      0.46      0.00
    1   17    8      0.13      0.00
    2   17    8     -1.33      0.00
    3   17    8      1.72      0.00
    4   17    8     -0.54      0.00
    5   17    8     -1.86      0.00
    6   17    8     -1.39      0.00
    7   17    8     -0.05      0.00
    8   17    8     -0.04      0.00
    9   17    8      1.87      0.00
   10   17    8      1.08      0.00
    0   18    8      0.16      0.00
    1   18    8     -0.59      0.00
    2   18    8      0.22      0.00
    3   18    8     -0.74      0.00
    4   18    8     -1.84      0.00
    5   18    8     -3.22      0.00
    6   18    8      0.80      0.00
    7   18    8      4.14      0.00
    8   18    8      0.43      0.00
    1   19    8     -0.27      0.00
    2   19    8     -0.81      0.00
    3   19    8     -1.47      0.00
    4   19    8     -0.46      0.00
    5   19    8      0.74      0.00
    6   19    8      5.57      0.00
    0   20    8     -1.64      0.00
    1   20    8     -0.51      0.00
    2   20    8     -0.25      0.00
    0    2    9     -4.01      0.00
    1    2    9     12.82      0.00
    1    3    9     -0.04      0.00
    2    3    9    -15.51      0.00
    0    4    9     -1.66      0.00
    1    4    9     -0.41      0.00
    2    4    9      5.01      0.00
    3    4    9     10.76      0.00
    1    5    9      2.82      0.00
    2    5    9     -1.73      0.00
    3    5    9     -2.47      0.00
    4    5    9     -1.83      0.00
    0    6    9     -0.93      0.00
    1    6    9     -5.32      0.00
    2    6    9     -0.84      0.00
    3    6    9     -0.61      0.00
    4    6    9     -1.00      0.00
    5    6    9     -5.97      0.00
    1    7    9      1.22      0.00
    2    7    9      1.20      0.00
    3    7    9     -0.68      0.00
    4    7    9     -2.43      0.00
    5    7    9     -0.49      0.00
    6    7    9     -0.43      0.00
    0    8    9      0.00      0.00
    1    8    9      0.30      0.00
    2    8    9     -1.08      0.00
    3    8    9     -0.61      0.00
    4    8    9     -0.65      0.00
    5    8    9      2.04      0.00
    6    8    9      1.34      0.00
    7    8    9      4.25      0.00
    1    9    9     -0.54      0.00
    2    9    9      0.61      0.00
    3    9    9      1.52      0.00
    4    9    9      1.61      0.00
    5    9    9      0.34      0.00
    6    9    9      0.59      0.00
    7    9    9     -0.26      0.00
    8    9    9      0.26      0.00
    0   10    9     -0.70      0.00
    1   10    9      0.95      0.00
    2   10    9      2.26      0.00
    3   10    9     -0.95      0.00
    4   10    9     -0.84      0.00
    5   10    9      0.69      0.00
    6   10    9      1.44      0.00
    7   10    9      1.11      0.00
    8   10    9      1.10      0.00
    9   10    9      0.92      0.00
    1   11    9      1.29      0.00
    2   11    9     -1.58      0.00
    3   11    9      0.19      0.00
    4   11    9      1.61      0.00
    5   11    9      0.52      0.00
    6   11    9      0.81      0.00
    7   11    9      0.13      0.00
    8   11    9     -0.68      0.00
    9   11    9     -0.16      0.00
   10   11    9     -0.75      0.00
    0   12    9      0.18      0.00
    1   12    9     -1.54      0.00
    2   12    9      0.62      0.00
    3   12    9      0.58      0.00
    4   12    9     -2.10      0.00
    5   12    9      0.84      0.00
    6   12    9      0.22      0.00
    7   12    9     -1.85      0.00
    8   12    9     -0.31      0.00
    9   12    9      0.63      0.00
   10   12    9     -1.76      0.00
   11   12    9     -0.69      0.00
    1   13    9      0.84      0.00
    2   13    9      1.73      0.00
    3   13    9     -1.46      0.00
    4   13    9      0.95      0.00
    5   13    9      1.36      0.00
    6   13    9     -0.63      0.00
    7   13    9      0.19      0.00
    8   13    9      0.29      0.00
    9   13    9     -0.80      0.00
   10   13    9     -0.80      0.00
   11   13    9     -0.19      0.00
   12   13    9     -1.97      0.00
    0   14    9      1.49      0.00
    1   14    9      1.35      0.00
    2   14    9     -0.76      0.00
    3   14    9     -1.00      0.00
    4   14    9      0.93      0.00
    5   14    9      0.64      0.00
    6   14    9     -0.15      0.00
    7   14    9     -2.14      0.00
    8   14    9     -0.81      0.00
    9   14    9      0.87      0.00
   10   14    9     -1.88      0.00
   11   14    9     -1.52      0.00
   12   14    9      0.60      0.00
   13   14    9      1.75      0.00
    1   15    9     -1.44      0.00
    2   15    9      0.10      0.00
    3   15    9      0.56      0.00
    4   15    9      0.99      0.00
    5   15    9     -0.86      0.00
    6   15    9     -0.84      0.00
    7   15    9     -0.34      0.00
    8   15    9      2.71      0.00
    9   15    9     -1.46      0.00
   10   15    9     -1.48      0.00
   11   15    9      1.17      0.00
   12   15    9      1.89      0.00
   13   15    9      0.58      0.00
    0   16    9     -1.58      0.00
    1   16    9      2.39      0.00
    2   16    9      1.21      0.00
    3   16    9     -1.08      0.00
    4   16    9      0.32      0.00
    5   16    9      1.62      0.00
    6   16    9      1.09      0.00
    7   16    9     -0.04      0.00
    8   16    9     -1.10      0.00
    9   16    9     -2.37      0.00
   10   16    9      0.79      0.00
   11   16    9      0.93      0.00
   12   16    9      0.88      0.00
    1   17    9      2.02      0.00
    2   17    9     -3.40      0.00
    3   17    9      0.81      0.00
    4   17    9      1.72      0.00
    5   17    9     -0.49      0.00
    6   17    9     -2.69      0.00
    7   17    9     -2.08      0.00
    8   17    9     -2.50      0.00
    9   17    9      1.17      0.00
   10   17    9      0.67      0.00
    0   18    9      3.28      0.00
    1   18    9     -1.77      0.00
    2   18    9     -1.07      0.00
    3   18    9      1.83      0.00
    4   18    9     -1.52      0.00
    5   18    9     -1.62      0.00
    6   18    9     -1.42      0.00
    7   18    9     -1.38      0.00
    8   18    9      1.72      0.00
    1   19    9     -2.94      0.00
    2   19    9      1.06      0.00
    3   19    9      0.07      0.00
    4   19    9     -0.96      0.00
    5   19    9     -0.99      0.00
    6   19    9      0.26      0.00
    0   20    9     -2.33      0.00
    0    0   10     -0.19      0.00
    1    1   10      1.16      0.00
    0    2   10     -0.27      0.00
    1    2   10     -1.64      0.00
    2    2   10     -4.60      0.00
    1    3   10     -0.81      0.00
    2    3   10      2.11      0.00
    3    3   10      4.22      0.00
    0    4   10      0.56      0.00
    1    4   10      3.37      0.00
    2    4   10      2.71      0.00
    3    4   10      1.62      0.00
    4    4   10      1.63      0.00
    1    5   10      2.96      0.00
    2    5   10     -0.04      0.00
    3    5   10     -0.26      0.00
    4    5   10     -3.04      0.00
    5    5   10     -1.24      0.00
    0    6   10      4.48      0.00
    1    6   10     -2.27      0.00
    2    6   10     -2.49      0.00
    3    6   10     -2.72      0.00
    4    6   10      1.23      0.00
    5    6   10     -0.17      0.00
    6    6   10     -0.29      0.00
    1    7   10     -1.74      0.00
    2    7   10     -0.22      0.00
    3    7   10      2.29      0.00
    4    7   10     -0.74      0.00
    5    7   10     -2.30      0.00
    6    7   10      1.70      0.00
    7    7   10     -3.09      0.00
    0    8   10      0.05      0.00
    1    8   10     -1.54      0.00
    2    8   10      0.06      0.00
    3    8   10      1.71      0.00
    4    8   10     -2.91      0.00
    5    8   10      2.76      0.00
    6    8   10     -1.31      0.00
    7    8   10     -0.64      0.00
    8    8   10      1.09      0.00
    1    9   10     -0.02      0.00
    2    9   10      3.67      0.00
    3    9   10     -1.14      0.00
    4    9   10      0.05      0.00
    5    9   10      0.93      0.00
    6    9   10     -1.47      0.00
    7    9   10      0.85      0.00
    8    9   10      0.56      0.00
    9    9   10      1.76      0.00
    0   10   10      0.72      0.00
    1   10   10      1.20      0.00
    2   10   10     -0.36      0.00
    3   10   10     -0.71      0.00
    4   10   10      2.01      0.00
    5   10   10     -1.37      0.00
    6   10   10     -0.38      0.00
    7   10   10      1.35      0.00
    8   10   10      0.54      0.00
    9   10   10     -0.03      0.00
   10   10   10     -0.40      0.00
    1   11   10     -0.13      0.00
    2   11   10      0.28      0.00
    3   11   10      0.85      0.00
    4   11   10     -1.47      0.00
    5   11   10     -2.25      0.00
    6   11   10      0.95      0.00
    7   11   10     -0.39      0.00
    8   11   10      0.13      0.00
    9   11   10      0.40      0.00
   10   11   10     -1.63      0.00
   11   11   10      0.89      0.00
    0   12   10     -1.82      0.00
    1   12   10     -0.58      0.00
    2   12   10      0.08      0.00
    3   12   10     -0.53      0.00
    4   12   10     -1.24      0.00
    5   12   10      0.30      0.00
    6   12   10      0.18      0.00
    7   12   10      0.99      0.00
    8   12   10      0.72      0.00
    9   12   10     -2.52      0.00
   10   12   10      0.31      0.00
   11   12   10      2.67      0.00
   12   12   10     -0.78      0.00
    1   13   10      3.33      0.00
    2   13   10      0.65      0.00
    3   13   10     -0.61      0.00
    4   13   10      0.14      0.00
    5   13   10     -0.83      0.00
    6   13   10      0.54      0.00
    7   13   10      0.13      0.00
    8   13   10     -1.36      0.00
    9   13   10      0.11      0.00
   10   13   10      3.30      0.00
   11   13   10     -0.03      0.00
   12   13   10     -3.00      0.00
   13   13   10     -1.82      0.00
    0   14   10      4.06      0.00
    1   14   10     -0.63      0.00
    2   14   10     -2.92      0.00
    3   14   10      0.53      0.00
    4   14   10     -0.66      0.00
    5   14   10     -1.10      0.00
    6   14   10      0.71      0.00
    7   14   10      0.83      0.00
    8   14   10      0.85      0.00
    9   14   10      1.07      0.00
   10   14   10      0.88      0.00
   11   14   10     -3.45      0.00
   12   14   10     -1.56      0.00
   13   14   10      2.65      0.00
   14   14   10      1.90      0.00
    1   15   10     -1.90      0.00
    2   15   10      1.75      0.00
    3   15   10      1.01      0.00
    4   15   10     -0.15      0.00
    5   15   10      0.16      0.00
    6   15   10      3.16      0.00
    7   15   10      1.17      0.00
    8   15   10      0.64      0.00
    9   15   10      0.35      0.00
   10   15   10     -0.92      0.00
   11   15   10     -1.20      0.00
   12   15   10      3.12      0.00
   13   15   10      0.95      0.00
    0   16   10     -0.65      0.00
    1   16   10      1.20      0.00
    2   16   10      0.58      0.00
    3   16   10      1.03      0.00
    4   16   10     -0.48      0.00
    5   16   10      0.95      0.00
    6   16   10      1.87      0.00
    7   16   10     -1.24      0.00
    8   16   10     -0.26      0.00
    9   16   10     -2.08      0.00
   10   16   10      0.00      0.00
   11   16   10     -0.32      0.00
    1   17   10      1.63      0.00
    2   17   10      0.58      0.00
    3   17   10     -0.28      0.00
    4   17   10     -1.83      0.00
    5   17   10      1.61      0.00
    6   17   10     -1.85      0.00
    7   17   10     -0.04      0.00
    8   17   10     -1.51      0.00
    9   17   10      0.68      0.00
   10   17   10     -1.05      0.00
    0   18   10      2.65      0.00
    1   18   10      0.44      0.00
    2   18   10     -2.12      0.00
    3   18   10     -1.34      0.00
    4   18   10      0.89      0.00
    5   18   10     -0.44      0.00
    6   18   10      0.58      0.00
    7   18   10      0.65      0.00
    8   18   10     -0.99      0.00
    1   19   10     -2.16      0.00
    2   19   10     -1.07      0.00
    3   19   10      2.43      0.00
    4   19   10      0.57      0.00
    5   19   10      0.61      0.00
    0    2   11     -2.00      0.00
    1    2   11     -5.43      0.00
    1    3   11      0.90      0.00
    2    3   11      1.76      0.00
    0    4   11      0.86      0.00
    1    4   11      0.96      0.00
    2    4   11      0.00      0.00
    3    4   11     -0.23      0.00
    1    5   11     -1.49      0.00
    2    5   11     -0.49      0.00
    3    5   11     -1.28      0.00
    4    5   11      3.44      0.00
    0    6   11     -1.25      0.00
    1    6   11     -0.38      0.00
    2    6   11      0.42      0.00
    3    6   11     -0.65      0.00
    4    6   11      1.56      0.00
    5    6   11     -1.42      0.00
    1    7   11     -1.19      0.00
    2    7   11     -1.83      0.00
    3    7   11     -0.50      0.00
    4    7   11      2.08      0.00
    5    7   11     -1.14      0.00
    6    7   11     -0.26      0.00
    0    8   11     -3.17      0.00
    1    8   11      0.34      0.00
    2    8   11      0.05      0.00
    3    8   11      2.51      0.00
    4    8   11      0.17      0.00
    5    8   11      0.55      0.00
    6    8   11      1.00      0.00
    7    8   11     -0.10      0.00
    1    9   11      0.27      0.00
    2    9   11     -0.80      0.00
    3    9   11      1.00      0.00
    4    9   11      1.26      0.00
    5    9   11      2.06      0.00
    6    9   11     -0.47      0.00
    7    9   11      0.96      0.00
    8    9   11      0.27      0.00
    0   10   11     -1.10      0.00
    1   10   11     -0.86      0.00
    2   10   11      2.09      0.00
    3   10   11      2.05      0.00
    4   10   11      0.87      0.00
    5   10   11     -1.00      0.00
    6   10   11     -0.68      0.00
    7   10   11     -1.80      0.00
    8   10   11     -0.96      0.00
    9   10   11      0.27      0.00
    1   11   11      1.11      0.00
    2   11   11      0.32      0.00
    3   11   11     -1.55      0.00
    4   11   11     -1.74      0.00
    5   11   11      0.03      0.00
    6   11   11     -0.98      0.00
    7   11   11     -0.38      0.00
    8   11   11      1.16      0.00
    9   11   11     -1.05      0.00
   10   11   11     -1.55      0.00
    0   12   11      0.22      0.00
    1   12   11     -0.52      0.00
    2   12   11     -0.72      0.00
    3   12   11     -0.64      0.00
    4   12   11      1.42      0.00
    5   12   11      1.08      0.00
    6   12   11     -1.38      0.00
    7   12   11     -0.33      0.00
    8   12   11     -1.09      0.00
    9   12   11     -1.02      0.00
   10   12   11      0.90      0.00
   11   12   11      0.62      0.00
    1   13   11     -1.04      0.00
    2   13   11     -1.14      0.00
    3   13   11     -0.33      0.00
    4   13   11      0.21      0.00
    5   13   11     -1.75      0.00
    6   13   11     -1.09      0.00
    7   13   11     -0.40      0.00
    8   13   11     -1.60      0.00
    9   13   11      0.48      0.00
   10   13   11      0.11      0.00
   11   13   11     -1.13      0.00
   12   13   11      0.07      0.00
    0   14   11     -1.98      0.00
    1   14   11     -2.09      0.00
    2   14   11     -0.46      0.00
    3   14   11      1.42      0.00
    4   14   11      0.53      0.00
    5   14   11      1.15      0.00
    6   14   11     -0.02      0.00
    7   14   11     -2.61      0.00
    8   14   11      1.44      0.00
    9   14   11      3.36      0.00
   10   14   11     -0.28      0.00
   11   14   11      1.39      0.00
   12   14   11      1.90      0.00
   13   14   11     -1.19      0.00
    1   15   11     -0.58      0.00
    2   15   11      2.87      0.00
    3   15   11      1.52      0.00
    4   15   11      0.58      0.00
    5   15   11     -1.30      0.00
    6   15   11     -2.32      0.00
    7   15   11      1.35      0.00
    8   15   11      5.45      0.00
    9   15   11     -1.27      0.00
   10   15   11     -0.66      0.00
   11   15   11      0.95      0.00
   12   15   11     -1.50      0.00
    0   16   11     -2.08      0.00
    1   16   11      1.02      0.00
    2   16   11      1.71      0.00
    3   16   11     -0.28      0.00
    4   16   11     -2.68      0.00
    5   16   11     -0.90      0.00
    6   16   11      2.08      0.00
    7   16   11      2.45      0.00
    8   16   11     -0.10      0.00
    9   16   11     -3.09      0.00
   10   16   11      1.44      0.00
   11   16   11     -0.79      0.00
    1   17   11      0.90      0.00
    2   17   11      0.86      0.00
    3   17   11     -2.26      0.00
    4   17   11     -2.16      0.00
    5   17   11      4.64      0.00
    6   17   11     -0.07      0.00
    7   17   11     -0.04      0.00
    8   17   11     -2.25      0.00
    9   17   11      0.38      0.00
   10   17   11      0.81      0.00
    0   18   11     -1.91      0.00
    1   18   11      0.44      0.00
    2   18   11     -0.53      0.00
    3   18   11     -3.46      0.00
    4   18   11      3.64      0.00
    5   18   11      1.71      0.00
    6   18   11     -3.71      0.00
    7   18   11     -0.70      0.00
    8   18   11     -0.18      0.00
    1   19   11      1.95      0.00
    2   19   11     -1.89      0.00
    3   19   11      1.41      0.00
    4   19   11      2.67      0.00
    5   19   11     -3.10      0.00
    0    0   12      3.12      0.00
    1    1   12     -2.16      0.00
    0    2   12     -1.20      0.00
    1    2   12     -1.00      0.00
    2    2   12      3.03      0.00
    1    3   12      1.97      0.00
    2    3   12      1.37      0.00
    3    3   12     -2.78      0.00
    0    4   12      1.47      0.00
    1    4   12      1.76      0.00
    2    4   12     -2.01      0.00
    3    4   12      0.91      0.00
    4    4   12      0.01      0.00
    1    5   12     -1.02      0.00
    2    5   12      1.63      0.00
    3    5   12      0.37      0.00
    4    5   12     -1.32      0.00
    5    5   12     -0.76      0.00
    0    6   12     -0.28      0.00
    1    6   12      0.53      0.00
    2    6   12      0.42      0.00
    3    6   12     -3.06      0.00
    4    6   12     -1.77      0.00
    5    6   12     -0.92      0.00
    6    6   12     -0.55      0.00
    1    7   12      0.27      0.00
    2    7   12     -1.03      0.00
    3    7   12     -2.02      0.00
    4    7   12      0.24      0.00
    5    7   12      0.25      0.00
    6    7   12      0.27      0.00
    7    7   12      0.97      0.00
    0    8   12      0.58      0.00
    1    8   12      1.53      0.00
    2    8   12     -1.34      0.00
    3    8   12      0.61      0.00
    4    8   12      0.32      0.00
    5    8   12     -1.11      0.00
    6    8   12      0.75      0.00
    7    8   12      1.64      0.00
    8    8   12      1.73      0.00
    1    9   12     -0.58      0.00
    2    9   12     -1.66      0.00
    3    9   12      0.56      0.00
    4    9   12     -0.89      0.00
    5    9   12      0.93      0.00
    6    9   12      2.52      0.00
    7    9   12      1.91      0.00
    8    9   12     -0.93      0.00
    9    9   12     -0.11      0.00
    0   10   12      1.23      0.00
    1   10   12     -1.04      0.00
    2   10   12      0.86      0.00
    3   10   12      1.10      0.00
    4   10   12     -0.29      0.00
    5   10   12     -0.52      0.00
    6   10   12      1.73      0.00
    7   10   12     -0.52      0.00
    8   10   12     -0.37      0.00
    9   10   12     -0.39      0.00
   10   10   12      1.06      0.00
    1   11   12     -0.72      0.00
    2   11   12      0.73      0.00
    3   11   12     -1.48      0.00
    4   11   12     -1.69      0.00
    5   11   12      1.96      0.00
    6   11   12      1.56      0.00
    7   11   12     -0.32      0.00
    8   11   12     -0.61      0.00
    9   11   12      0.51      0.00
   10   11   12      0.57      0.00
   11   11   12     -1.83      0.00
    0   12   12      0.05      0.00
    1   12   12      0.31      0.00
    2   12   12     -0.70      0.00
    3   12   12     -0.54      0.00
    4   12   12      0.99      0.00
    5   12   12      0.30      0.00
    6   12   12     -0.33      0.00
    7   12   12     -0.68      0.00
    8   12   12     -1.20      0.00
    9   12   12      0.04      0.00
   10   12   12     -1.52      0.00
   11   12   12     -0.61      0.00
   12   12   12     -0.99      0.00
    1   13   12     -1.30      0.00
    2   13   12     -0.57      0.00
    3   13   12     -0.47      0.00
    4   13   12     -1.10      0.00
    5   13   12      0.95      0.00
    6   13   12     -0.27      0.00
    7   13   12     -1.46      0.00
    8   13   12      0.16      0.00
    9   13   12      0.54      0.00
   10   13   12     -0.72      0.00
   11   13   12     -0.03      0.00
   12   13   12      0.11      0.00
   13   13   12     -0.15      0.00
    0   14   12     -1.30      0.00
    1   14   12      0.26      0.00
    2   14   12      0.30      0.00
    3   14   12     -0.22      0.00
    4   14   12      1.79      0.00
    5   14   12      0.17      0.00
    6   14   12     -1.11      0.00
    7   14   12      2.10      0.00
    8   14   12      0.92      0.00
    9   14   12     -0.99      0.00
   10   14   12     -0.72      0.00
   11   14   12      1.24      0.00
   12   14   12     -1.08      0.00
   13   14   12      1.07      0.00
    1   15   12      0.58      0.00
    2   15   12     -0.90      0.00
    3   15   12      0.22      0.00
    4   15   12      0.18      0.00
    5   15   12     -1.37      0.00
    6   15   12      1.98      0.00
    7   15   12     -0.65      0.00
    8   15   12     -1.18      0.00
    9   15   12     -1.30      0.00
   10   15   12      2.85      0.00
   11   15   12     -0.27      0.00
   12   15   12      0.36      0.00
    0   16   12      1.92      0.00
    1   16   12     -0.42      0.00
    2   16   12     -0.69      0.00
    3   16   12      0.63      0.00
    4   16   12     -0.62      0.00
    5   16   12      0.57      0.00
    6   16   12      0.24      0.00
    7   16   12      0.19      0.00
    8   16   12      0.78      0.00
    9   16   12      1.22      0.00
   10   16   12      1.40      0.00
   11   16   12     -3.19      0.00
    1   17   12     -3.20      0.00
    2   17   12     -0.73      0.00
    3   17   12     -0.28      0.00
    4   17   12     -0.17      0.00
    5   17   12      1.25      0.00
    6   17   12     -0.03      0.00
    7   17   12      0.46      0.00
    8   17   12     -1.52      0.00
    9   17   12     -0.07      0.00
    0   18   12     -5.22      0.00
    1   18   12     -1.45      0.00
    2   18   12      1.32      0.00
    3   18   12      0.10      0.00
    4   18   12      0.84      0.00
    5   18   12     -0.47      0.00
    6   18   12     -1.00      0.00
    7   18   12     -0.34      0.00
    1   19   12      3.15      0.00
    2   19   12      0.10      0.00
    3   19   12     -0.18      0.00
    4   19   12      0.93      0.00
    0    2   13      0.49      0.00
    1    2   13     -2.54      0.00
    1    3   13     -0.06      0.00
    2    3   13     -1.04      0.00
    0    4   13      0.14      0.00
    1    4   13      0.08      0.00
    2    4   13     -0.72      0.00
    3    4   13      3.18      0.00
    1    5   13     -0.11      0.00
    2    5   13      1.07      0.00
    3    5   13      1.32      0.00
    4    5   13     -0.42      0.00
    0    6   13      0.07      0.00
    1    6   13     -0.76      0.00
    2    6   13     -0.34      0.00
    3    6   13     -1.75      0.00
    4    6   13     -0.64      0.00
    5    6   13     -0.18      0.00
    1    7   13     -0.36      0.00
    2    7   13      0.72      0.00
    3    7   13      1.40      0.00
    4    7   13      2.29      0.00
    5    7   13      0.83      0.00
    6    7   13      1.03      0.00
    0    8   13     -0.49      0.00
    1    8   13      1.82      0.00
    2    8   13      0.44      0.00
    3    8   13     -0.12      0.00
    4    8   13     -0.11      0.00
    5    8   13     -0.27      0.00
    6    8   13     -1.67      0.00
    7    8   13     -4.57      0.00
    1    9   13      0.51      0.00
    2    9   13     -1.13      0.00
    3    9   13      1.80      0.00
    4    9   13      1.16      0.00
    5    9   13     -1.15      0.00
    6    9   13     -2.49      0.00
    7    9   13      1.00      0.00
    8    9   13      3.86      0.00
    0   10   13      1.39      0.00
    1   10   13      0.29      0.00
    2   10   13      1.91      0.00
    3   10   13      1.21      0.00
    4   10   13     -1.67      0.00
    5   10   13     -2.00      0.00
    6   10   13      0.55      0.00
    7   10   13      0.65      0.00
    8   10   13     -0.11      0.00
    9   10   13     -0.67      0.00
    1   11   13      0.46      0.00
    2   11   13      1.50      0.00
    3   11   13     -1.27      0.00
    4   11   13     -2.79      0.00
    5   11   13      0.43      0.00
    6   11   13     -0.72      0.00
    7   11   13     -0.82      0.00
    8   11   13      0.91      0.00
    9   11   13     -0.97      0.00
   10   11   13     -0.47      0.00
    0   12   13      0.49      0.00
    1   12   13      2.08      0.00
    2   12   13     -0.75      0.00
    3   12   13     -4.92      0.00
    4   12   13      0.20      0.00
    5   12   13      1.20      0.00
    6   12   13     -2.16      0.00
    7   12   13      0.98      0.00
    8   12   13     -0.91      0.00
    9   12   13      0.21      0.00
   10   12   13      1.37      0.00
   11   12   13      1.08      0.00
    1   13   13     -0.31      0.00
    2   13   13     -3.79      0.00
    3   13   13      1.14      0.00
    4   13   13      3.25      0.00
    5   13   13     -1.65      0.00
    6   13   13     -1.08      0.00
    7   13   13      1.00      0.00
    8   13   13      1.09      0.00
    9   13   13      3.25      0.00
   10   13   13     -0.85      0.00
   11   13   13     -1.33      0.00
   12   13   13      0.32      0.00
    0   14   13      0.15      0.00
    1   14   13     -0.61      0.00
    2   14   13      1.46      0.00
    3   14   13      1.07      0.00
    4   14   13     -1.25      0.00
    5   14   13     -1.75      0.00
    6   14   13      0.22      0.00
    7   14   13      2.34      0.00
    8   14   13      1.62      0.00
    9   14   13     -1.81      0.00
   10   14   13     -3.66      0.00
   11   14   13      3.04      0.00
   12   14   13      2.27      0.00
   13   14   13     -0.99      0.00
    1   15   13      1.40      0.00
    2   15   13     -0.05      0.00
    3   15   13     -1.01      0.00
    4   15   13      0.46      0.00
    5   15   13     -1.56      0.00
    6   15   13      2.75      0.00
    7   15   13      0.87      0.00
    8   15   13     -1.21      0.00
    9   15   13     -1.93      0.00
   10   15   13      5.14      0.00
   11   15   13      3.57      0.00
   12   15   13     -2.40      0.00
    0   16   13      3.46      0.00
    1   16   13      1.12      0.00
    2   16   13     -0.75      0.00
    3   16   13     -0.01      0.00
    4   16   13     -1.55      0.00
    5   16   13      1.18      0.00
    6   16   13      1.72      0.00
    7   16   13     -1.37      0.00
    8   16   13      0.42      0.00
    9   16   13      2.95      0.00
   10   16   13      1.83      0.00
   11   16   13     -4.97      0.00
    1   17   13     -2.97      0.00
    2   17   13     -0.95      0.00
    3   17   13     -1.41      0.00
    4   17   13      0.36      0.00
    5   17   13      0.83      0.00
    6   17   13     -1.71      0.00
    7   17   13      0.62      0.00
    8   17   13      0.55      0.00
    9   17   13     -0.24      0.00
    0   18   13     -3.88      0.00
    1   18   13      0.34      0.00
    2   18   13      0.31      0.00
    3   18   13     -0.60      0.00
    4   18   13      0.42      0.00
    5   18   13     -1.28      0.00
    6   18   13      0.91      0.00
    7   18   13      0.89      0.00
    1   19   13      2.22      0.00
    2   19   13     -0.95      0.00
    3   19   13     -0.24      0.00
    4   19   13     -0.30      0.00
    0    0   14     -0.52      0.00
    1    1   14      0.86      0.00
    0    2   14      1.12      0.00
    1    2   14     -1.35      0.00
    2    2   14      0.33      0.00
    1    3   14      0.15      0.00
    2    3   14      2.09      0.00
    3    3   14     -0.31      0.00
    0    4   14      1.27      0.00
    2    4   14     -0.70      0.00
    3    4   14     -0.73      0.00
    4    4   14     -1.48      0.00
    1    5   14     -2.35      0.00
    2    5   14     -2.04      0.00
    3    5   14     -0.53      0.00
    4    5   14     -0.25      0.00
    5    5   14      0.29      0.00
    0    6   14     -3.40      0.00
    1    6   14     -1.89      0.00
    2    6   14      1.72      0.00
    3    6   14      0.82      0.00
    4    6   14     -0.04      0.00
    5    6   14      0.42      0.00
    6    6   14      0.63      0.00
    1    7   14      2.08      0.00
    2    7   14      1.56      0.00
    3    7   14     -1.41      0.00
    4    7   14      0.19      0.00
    5    7   14     -0.03      0.00
    6    7   14     -0.59      0.00
    7    7   14      0.60      0.00
    0    8   14     -0.70      0.00
    1    8   14      0.33      0.00
    2    8   14     -1.06      0.00
    3    8   14      0.04      0.00
    4    8   14      0.34      0.00
    5    8   14     -0.68      0.00
    6    8   14      1.28      0.00
    7    8   14      1.08      0.00
    8    8   14     -0.72      0.00
    1    9   14      1.79      0.00
    2    9   14      0.14      0.00
    3    9   14      0.39      0.00
    4    9   14      0.26      0.00
    5    9   14      1.14      0.00
    6    9   14      1.83      0.00
    7    9   14     -0.24      0.00
    8    9   14      0.03      0.00
    9    9   14      1.20      0.00
    0   10   14      1.38      0.00
    1   10   14     -0.12      0.00
    2   10   14     -0.89      0.00
    3   10   14      1.27      0.00
    4   10   14      1.01      0.00
    5   10   14      0.40      0.00
    6   10   14      0.44      0.00
    7   10   14      0.05      0.00
    8   10   14     -0.25      0.00
    9   10   14     -2.06      0.00
   10   10   14     -1.74      0.00
    1   11   14      0.58      0.00
    2   11   14      0.01      0.00
    3   11   14      0.89      0.00
    4   11   14     -1.12      0.00
    5   11   14     -0.52      0.00
    6   11   14      0.55      0.00
    7   11   14     -1.64      0.00
    8   11   14     -4.08      0.00
    9   11   14     -1.10      0.00
   10   11   14      2.04      0.00
   11   11   14     -1.26      0.00
    0   12   14      1.56      0.00
    1   12   14     -2.02      0.00
    2   12   14     -0.90      0.00
    3   12   14      0.77      0.00
    4   12   14     -0.18      0.00
    5   12   14      1.55      0.00
    6   12   14     -0.25      0.00
    7   12   14     -3.26      0.00
    8   12   14     -0.15      0.00
    9   12   14      3.80      0.00
   10   12   14     -0.38      0.00
   11   12   14     -1.84      0.00
   12   12   14      1.31      0.00
    1   13   14     -0.53      0.00
    2   13   14      3.03      0.00
    3   13   14      1.43      0.00
    4   13   14      0.69      0.00
    5   13   14     -0.19      0.00
    6   13   14     -2.97      0.00
    7   13   14     -0.06      0.00
    8   13   14      1.43      0.00
    9   13   14     -0.05      0.00
   10   13   14     -4.19      0.00
   11   13   14      0.55      0.00
   12   13   14      1.67      0.00
   13   13   14      1.28      0.00
    0   14   14      0.34      0.00
    1   14   14      1.19      0.00
    2   14   14      0.17      0.00
    3   14   14     -0.74      0.00
    4   14   14     -0.45      0.00
    5   14   14     -2.57      0.00
    6   14   14      0.47      0.00
    7   14   14      0.01      0.00
    8   14   14     -1.35      0.00
    9   14   14     -1.32      0.00
   10   14   14      0.43      0.00
   11   14   14      5.41      0.00
   12   14   14      0.96      0.00
   13   14   14     -0.22      0.00
    1   15   14      0.06      0.00
    2   15   14     -0.32      0.00
    3   15   14      1.78      0.00
    4   15   14     -0.30      0.00
    5   15   14     -0.52      0.00
    6   15   14      1.32      0.00
    7   15   14     -2.13      0.00
    8   15   14      2.43      0.00
    9   15   14      1.49      0.00
   10   15   14      4.37      0.00
   11   15   14      0.36      0.00
   12   15   14     -2.35      0.00
    0   16   14      0.95      0.00
    1   16   14     -0.13      0.00
    2   16   14      1.62      0.00
    3   16   14      1.39      0.00
    4   16   14     -2.83      0.00
    5   16   14      0.51      0.00
    6   16   14     -0.41      0.00
    7   16   14      0.74      0.00
    8   16   14      1.45      0.00
    9   16   14     -0.35      0.00
   10   16   14      0.21      0.00
    1   17   14      0.49      0.00
    2   17   14      1.11      0.00
    3   17   14     -2.32      0.00
    4   17   14     -0.83      0.00
    5   17   14      1.38      0.00
    6   17   14     -0.75      0.00
    7   17   14     -0.22      0.00
    8   17   14     -0.55      0.00
    9   17   14      0.27      0.00
    0   18   14      0.35      0.00
    1   18   14     -0.06      0.00
    2   18   14     -1.42      0.00
    3   18   14      0.25      0.00
    4   18   14      0.89      0.00
    5   18   14     -0.82      0.00
    6   18   14     -1.32      0.00
    1   19   14     -0.17      0.00
    2   19   14      1.37      0.00
    3   19   14      0.92      0.00
    0    2   15      1.43      0.00
    1    2   15      1.93      0.00
    1    3   15     -1.20      0.00
    2    3   15     -2.41      0.00
    0    4   15     -0.92      0.00
    1    4   15      0.31      0.00
    2    4   15      0.15      0.00
    3    4   15      2.98      0.00
    1    5   15      0.06      0.00
    2    5   15     -0.36      0.00
    3    5   15     -0.05      0.00
    4    5   15     -1.83      0.00
    0    6   15     -0.07      0.00
    1    6   15     -1.36      0.00
    2    6   15      0.05      0.00
    3    6   15     -0.15      0.00
    4    6   15      0.16      0.00
    5    6   15      0.73      0.00
    1    7   15      0.19      0.00
    2    7   15      0.08      0.00
    3    7   15     -0.33      0.00
    4    7   15     -0.35      0.00
    5    7   15      0.16      0.00
    6    7   15     -1.66      0.00
    0    8   15      0.94      0.00
    1    8   15     -0.70      0.00
    2    8   15     -0.54      0.00
    3    8   15      0.83      0.00
    4    8   15      0.37      0.00
    5    8   15      0.09      0.00
    6    8   15     -1.60      0.00
    7    8   15      1.58      0.00
    1    9   15     -1.27      0.00
    2    9   15      1.56      0.00
    3    9   15      0.01      0.00
    4    9   15     -1.04      0.00
    5    9   15     -0.93      0.00
    6    9   15      1.87      0.00
    7    9   15      2.76      0.00
    8    9   15     -0.88      0.00
    0   10   15     -1.21      0.00
    1   10   15      0.71      0.00
    2   10   15      0.43      0.00
    3   10   15     -1.27      0.00
    4   10   15      0.27      0.00
    5   10   15      3.04      0.00
    6   10   15      1.33      0.00
    7   10   15     -3.33      0.00
    8   10   15     -1.16      0.00
    9   10   15      1.95      0.00
    1   11   15      0.41      0.00
    2   11   15     -0.79      0.00
    3   11   15     -0.40      0.00
    4   11   15      1.47      0.00
    5   11   15     -0.85      0.00
    6   11   15     -3.85      0.00
    7   11   15      0.22      0.00
    8   11   15      3.60      0.00
    9   11   15     -0.27      0.00
   10   11   15     -1.66      0.00
    0   12   15      0.32      0.00
    1   12   15     -1.09      0.00
    2   12   15     -0.74      0.00
    3   12   15      0.50      0.00
    4   12   15     -0.50      0.00
    5   12   15     -1.05      0.00
    6   12   15      2.20      0.00
    7   12   15      2.84      0.00
    8   12   15     -0.28      0.00
    9   12   15     -1.78      0.00
   10   12   15     -0.43      0.00
   11   12   15     -0.63      0.00
    1   13   15     -1.11      0.00
    2   13   15      0.93      0.00
    3   13   15     -0.25      0.00
    4   13   15     -0.60      0.00
    5   13   15      2.31      0.00
    6   13   15      0.24      0.00
    7   13   15     -1.18      0.00
    8   13   15     -1.65      0.00
    9   13   15     -0.88      0.00
   10   13   15     -1.82      0.00
   11   13   15      1.14      0.00
   12   13   15     -1.26      0.00
    0   14   15     -1.90      0.00
    1   14   15     -0.06      0.00
    2   14   15      0.13      0.00
    3   14   15     -0.89      0.00
    4   14   15      1.58      0.00
    5   14   15      0.66      0.00
    6   14   15     -1.37      0.00
    7   14   15     -0.06      0.00
    8   14   15      0.59      0.00
    9   14   15     -0.24      0.00
   10   14   15      0.84      0.00
   11   14   15      1.33      0.00
   12   14   15     -1.13      0.00
    1   15   15      0.60      0.00
    2   15   15      0.30      0.00
    3   15   15      0.40      0.00
    4   15   15      0.97      0.00
    5   15   15      0.22      0.00
    6   15   15      0.66      0.00
    7   15   15      1.03      0.00
    8   15   15      0.65      0.00
    9   15   15     -1.66      0.00
   10   15   15      0.80      0.00
   11   15   15     -1.08      0.00
    0   16   15     -0.38      0.00
    1   16   15      0.42      0.00
    2   16   15     -0.06      0.00
    3   16   15     -0.01      0.00
    4   16   15      1.79      0.00
    5   16   15      1.03      0.00
    6   16   15     -1.13      0.00
    7   16   15      0.21      0.00
    8   16   15     -2.01      0.00
    9   16   15     -0.85      0.00
   10   16   15      0.64      0.00
    1   17   15      0.43      0.00
    2   17   15     -0.41      0.00
    3   17   15      1.33      0.00
    4   17   15      1.30      0.00
    5   17   15     -2.26      0.00
    6   17   15     -0.10      0.00
    7   17   15      0.17      0.00
    8   17   15     -1.78      0.00
    0   18   15      0.05      0.00
    1   18   15     -0.78      0.00
    2   18   15      0.01      0.00
    3   18   15      1.20      0.00
    4   18   15     -1.22      0.00
    5   18   15     -0.74      0.00
    6   18   15      0.77      0.00
    1   19   15     -0.55      0.00
    0    0   16     -5.75      0.00
    1    1   16      2.24      0.00
    0    2   16     -0.47      0.00
    1    2   16     -0.32      0.00
    2    2   16     -0.86      0.00
    1    3   16      0.93      0.00
    2    3   16      0.58      0.00
    3    3   16      2.38      0.00
    0    4   16      1.93      0.00
    1    4   16      0.62      0.00
    2    4   16      1.34      0.00
    3    4   16     -0.20      0.00
    4    4   16     -2.12      0.00
    1    5   16     -0.39      0.00
    2    5   16      0.07      0.00
    3    5   16     -1.54      0.00
    4    5   16      0.23      0.00
    5    5   16      2.06      0.00
    0    6   16     -0.38      0.00
    1    6   16      0.26      0.00
    2    6   16     -0.30      0.00
    3    6   16     -0.55      0.00
    4    6   16      1.14      0.00
    5    6   16     -0.56      0.00
    6    6   16      0.56      0.00
    1    7   16     -0.40      0.00
    2    7   16     -1.08      0.00
    3    7   16      0.16      0.00
    4    7   16      0.37      0.00
    5    7   16      1.03      0.00
    6    7   16     -0.05      0.00
    7    7   16     -0.97      0.00
    0    8   16     -0.82      0.00
    1    8   16     -0.64      0.00
    2    8   16      0.67      0.00
    3    8   16      1.69      0.00
    4    8   16      0.25      0.00
    5    8   16     -0.97      0.00
    6    8   16     -1.03      0.00
    7    8   16      0.43      0.00
    8    8   16     -1.07      0.00
    1    9   16      0.38      0.00
    2    9   16      1.76      0.00
    3    9   16     -1.25      0.00
    4    9   16     -1.29      0.00
    5    9   16      0.32      0.00
    6    9   16      0.67      0.00
    7    9   16     -0.59      0.00
    8    9   16      0.14      0.00
    9    9   16      0.78      0.00
    0   10   16     -0.28      0.00
    1   10   16      1.45      0.00
    2   10   16     -0.54      0.00
    3   10   16     -0.78      0.00
    4   10   16      1.32      0.00
    5   10   16     -0.14      0.00
    6   10   16     -0.45      0.00
    7   10   16      0.33      0.00
    8   10   16      0.23      0.00
    9   10   16     -0.76      0.00
   10   10   16     -0.64      0.00
    1   11   16      0.18      0.00
    2   11   16     -0.44      0.00
    3   11   16      0.40      0.00
    4   11   16     -0.89      0.00
    5   11   16     -0.44      0.00
    6   11   16      0.23      0.00
    7   11   16     -0.70      0.00
    8   11   16     -0.38      0.00
    9   11   16     -0.63      0.00
   10   11   16      1.38      0.00
   11   11   16      0.14      0.00
    0   12   16      0.74      0.00
    1   12   16      0.54      0.00
    2   12   16     -0.15      0.00
    3   12   16     -1.35      0.00
    4   12   16     -0.66      0.00
    5   12   16      0.23      0.00
    6   12   16     -0.93      0.00
    7   12   16      0.73      0.00
    8   12   16      0.13      0.00
    9   12   16      0.35      0.00
   10   12   16      0.71      0.00
   11   12   16     -1.62      0.00
   12   12   16      1.03      0.00
    1   13   16     -1.32      0.00
    2   13   16     -1.77      0.00
    3   13   16     -0.77      0.00
    4   13   16      0.49      0.00
    5   13   16      0.39      0.00
    6   13   16     -0.42      0.00
    7   13   16      1.06      0.00
    8   13   16     -1.75      0.00
    9   13   16      0.89      0.00
   10   13   16     -0.20      0.00
   11   13   16      0.91      0.00
   12   13   16      0.90      0.00
   13   13   16     -0.32      0.00
    0   14   16     -1.73      0.00
    1   14   16     -0.82      0.00
    2   14   16      0.57      0.00
    3   14   16      0.05      0.00
    4   14   16      0.65      0.00
    5   14   16     -1.37      0.00
    6   14   16      0.38      0.00
    7   14   16      0.58      0.00
    8   14   16      0.03      0.00
    9   14   16      2.72      0.00
   10   14   16      0.67      0.00
   11   14   16     -0.33      0.00
   12   14   16     -1.05      0.00
    1   15   16      0.41      0.00
    2   15   16     -0.99      0.00
    3   15   16     -0.47      0.00
    4   15   16     -0.03      0.00
    5   15   16      0.18      0.00
    6   15   16      2.25      0.00
    7   15   16      0.01      0.00
    8   15   16      0.80      0.00
    9   15   16      0.65      0.00
   10   15   16     -1.93      0.00
   11   15   16     -1.55      0.00
    0   16   16     -0.69      0.00
    1   16   16     -0.80      0.00
    2   16   16      0.30      0.00
    3   16   16      1.10      0.00
    4   16   16      0.38      0.00
    5   16   16      1.25      0.00
    6   16   16      0.10      0.00
    7   16   16     -0.67      0.00
    8   16   16      0.43      0.00
    9   16   16      0.03      0.00
    1   17   16      1.00      0.00
    2   17   16      0.46      0.00
    3   17   16     -0.64      0.00
    4   17   16      0.79      0.00
    5   17   16     -0.01      0.00
    6   17   16     -0.59      0.00
    7   17   16      0.24      0.00
    8   17   16      0.86      0.00
    0   18   16      1.44      0.00
    1   18   16     -0.33      0.00
    2   18   16     -0.88      0.00
    3   18   16      0.65      0.00
    4   18   16     -0.04      0.00
    5   18   16     -1.14      0.00
    0    2   17      1.16      0.00
    1    2   17     -2.71      0.00
    1    3   17     -1.09      0.00
    2    3   17      2.07      0.00
    0    4   17     -0.31      0.00
    1    4   17      0.54      0.00
    2    4   17      0.24      0.00
    3    4   17     -1.27      0.00
    1    5   17     -0.92      0.00
    2    5   17      0.03      0.00
    3    5   17     -0.04      0.00
    4    5   17     -0.19      0.00
    0    6   17     -2.06      0.00
    1    6   17      1.21      0.00
    2    6   17      0.51      0.00
    3    6   17     -0.94      0.00
    4    6   17      0.47      0.00
    5    6   17      0.25      0.00
    1    7   17      1.06      0.00
    2    7   17     -1.56      0.00
    3    7   17      0.55      0.00
    4    7   17     -0.02      0.00
    5    7   17     -0.11      0.00
    6    7   17      0.04      0.00
    0    8   17      0.50      0.00
    1    8   17     -0.72      0.00
    2    8   17      0.57      0.00
    3    8   17     -0.56      0.00
    4    8   17      0.11      0.00
    5    8   17      0.03      0.00
    6    8   17     -0.71      0.00
    7    8   17      1.27      0.00
    1    9   17      0.43      0.00
    2    9   17     -0.41      0.00
    3    9   17     -0.56      0.00
    4    9   17      0.60      0.00
    5    9   17     -1.32      0.00
    6    9   17      1.88      0.00
    7    9   17      0.61      0.00
    8    9   17      0.90      0.00
    0   10   17     -0.38      0.00
    1   10   17      0.04      0.00
    2   10   17     -0.85      0.00
    3   10   17      0.08      0.00
    4   10   17      0.03      0.00
    5   10   17      1.71      0.00
    6   10   17      1.07      0.00
    7   10   17      0.09      0.00
    8   10   17     -0.19      0.00
    9   10   17     -2.82      0.00
    1   11   17      0.42      0.00
    2   11   17     -0.19      0.00
    3   11   17      0.85      0.00
    4   11   17      1.77      0.00
    5   11   17     -0.27      0.00
    6   11   17     -0.61      0.00
    7   11   17     -0.60      0.00
    8   11   17     -2.09      0.00
    9   11   17      0.25      0.00
   10   11   17      2.13      0.00
    0   12   17      0.66      0.00
    1   12   17      0.29      0.00
    2   12   17     -0.06      0.00
    3   12   17      1.17      0.00
    4   12   17     -0.44      0.00
    5   12   17     -1.10      0.00
    6   12   17      0.25      0.00
    7   12   17     -0.75      0.00
    8   12   17      0.24      0.00
    9   12   17      1.41      0.00
   10   12   17     -1.61      0.00
   11   12   17     -1.36      0.00
    1   13   17      0.27      0.00
    2   13   17      0.49      0.00
    3   13   17      0.61      0.00
    4   13   17     -0.71      0.00
    5   13   17      0.16      0.00
    6   13   17     -0.25      0.00
    7   13   17     -0.21      0.00
    8   13   17     -0.32      0.00
    9   13   17     -0.12      0.00
   10   13   17     -1.31      0.00
   11   13   17      4.26      0.00
   12   13   17     -0.59      0.00
    0   14   17      1.40      0.00
    1   14   17      0.38      0.00
    2   14   17      0.08      0.00
    3   14   17     -0.70      0.00
    4   14   17     -0.42      0.00
    5   14   17     -1.07      0.00
    6   14   17     -0.15      0.00
    7   14   17     -0.70      0.00
    8   14   17      0.71      0.00
    9   14   17      0.13      0.00
   10   14   17      1.58      0.00
   11   14   17      0.18      0.00
   12   14   17     -4.75      0.00
    1   15   17     -0.85      0.00
    2   15   17     -0.39      0.00
    3   15   17     -0.18      0.00
    4   15   17     -0.71      0.00
    5   15   17     -0.27      0.00
    6   15   17      0.63      0.00
    7   15   17      0.26      0.00
    8   15   17      0.87      0.00
    9   15   17     -0.08      0.00
   10   15   17     -0.47      0.00
   11   15   17     -2.09      0.00
    0   16   17     -0.86      0.00
    1   16   17      0.30      0.00
    2   16   17     -0.20      0.00
    3   16   17     -0.17      0.00
    4   16   17     -0.04      0.00
    5   16   17      0.60      0.00
    6   16   17      0.50      0.00
    7   16   17      0.26      0.00
    8   16   17      0.05      0.00
    9   16   17     -0.81      0.00
    1   17   17      0.31      0.00
    2   17   17      0.03      0.00
    3   17   17      0.87      0.00
    4   17   17     -0.13      0.00
    5   17   17     -0.31      0.00
    6   17   17      0.16      0.00
    7   17   17     -1.20      0.00
    0   18   17      0.38      0.00
    1   18   17      0.25      0.00
    2   18   17      0.35      0.00
    3   18   17     -0.77      0.00
    4   18   17     -1.46      0.00
    0    0   18     -0.27      0.00
    1    1   18      0.64      0.00
    0    2   18      0.80      0.00
    1    2   18      0.61      0.00
    2    2   18      0.38      0.00
    1    3   18      0.04      0.00
    2    3   18     -1.36      0.00
    3    3   18     -0.56      0.00
    0    4   18     -0.69      0.00
    1    4   18     -1.37      0.00
    2    4   18     -0.17      0.00
    3    4   18      1.25      0.00
    4    4   18     -0.29      0.00
    1    5   18      1.41      0.00
    2    5   18      1.18      0.00
    3    5   18     -0.32      0.00
    4    5   18     -0.57      0.00
    5    5   18     -0.53      0.00
    0    6   18      1.84      0.00
    1    6   18     -0.01      0.00
    2    6   18     -1.09      0.00
    3    6   18     -0.40      0.00
    4    6   18     -0.23      0.00
    5    6   18     -0.07      0.00
    6    6   18      0.55      0.00
    1    7   18     -0.59      0.00
    2    7   18      0.04      0.00
    3    7   18      0.35      0.00
    4    7   18     -0.36      0.00
    5    7   18      0.13      0.00
    6    7   18      0.02      0.00
    7    7   18     -0.23      0.00
    0    8   18      0.86      0.00
    1    8   18     -0.27      0.00
    2    8   18      0.23      0.00
    3    8   18     -0.56      0.00
    4    8   18      0.44      0.00
    5    8   18     -0.05      0.00
    6    8   18      0.19      0.00
    7    8   18     -0.31      0.00
    8    8   18     -1.08      0.00
    1    9   18     -0.24      0.00
    2    9   18     -0.31      0.00
    3    9   18      0.71      0.00
    4    9   18      0.44      0.00
    5    9   18     -0.93      0.00
    6    9   18      0.06      0.00
    7    9   18     -1.47      0.00
    8    9   18      0.80      0.00
    9    9   18      0.97      0.00
    0   10   18     -0.05      0.00
    1   10   18     -0.20      0.00
    2   10   18     -0.23      0.00
    3   10   18      0.79      0.00
    4   10   18     -1.66      0.00
    5   10   18      0.10      0.00
    6   10   18     -0.51      0.00
    7   10   18      0.06      0.00
    8   10   18      1.12      0.00
    9   10   18     -0.47      0.00
   10   10   18      1.07      0.00
    1   11   18     -0.21      0.00
    2   11   18      0.52      0.00
    3   11   18      0.26      0.00
    4   11   18     -0.37      0.00
    5   11   18     -0.06      0.00
    6   11   18     -1.06      0.00
    7   11   18      0.46      0.00
    8   11   18      0.89      0.00
    9   11   18      0.48      0.00
   10   11   18      0.21      0.00
   11   11   18     -1.49      0.00
    0   12   18      0.18      0.00
    1   12   18      0.61      0.00
    2   12   18      0.82      0.00
    3   12   18     -0.34      0.00
    4   12   18     -1.90      0.00
    5   12   18     -0.62      0.00
    6   12   18      0.51      0.00
    7   12   18      2.24      0.00
    8   12   18      0.39      0.00
    9   12   18     -0.35      0.00
   10   12   18      0.10      0.00
   11   12   18      0.16      0.00
   12   12   18      2.43      0.00
    1   13   18      0.16      0.00
    2   13   18     -1.42      0.00
    3   13   18     -2.20      0.00
    4   13   18     -0.52      0.00
    5   13   18      2.01      0.00
    6   13   18      1.70      0.00
    7   13   18      0.70      0.00
    8   13   18     -0.54      0.00
    9   13   18      1.24      0.00
   10   13   18     -0.55      0.00
   11   13   18      0.53      0.00
   12   13   18     -1.25      0.00
    0   14   18     -0.04      0.00
    1   14   18     -1.77      0.00
    2   14   18     -0.81      0.00
    3   14   18      0.71      0.00
    4   14   18      2.29      0.00
    5   14   18      1.99      0.00
    6   14   18      0.23      0.00
    7   14   18     -0.36      0.00
    8   14   18      0.31      0.00
    9   14   18     -2.06      0.00
   10   14   18     -1.12      0.00
   11   14   18     -0.75      0.00
    1   15   18     -0.04      0.00
    2   15   18      1.73      0.00
    3   15   18      0.76      0.00
    4   15   18      1.41      0.00
    5   15   18     -0.03      0.00
    6   15   18     -1.15      0.00
    7   15   18      0.08      0.00
    8   15   18     -1.93      0.00
    9   15   18     -0.73      0.00
   10   15   18      1.94      0.00
    0   16   18     -0.32      0.00
    1   16   18      1.08      0.00
    2   16   18     -0.50      0.00
    3   16   18      0.38      0.00
    4   16   18      0.91      0.00
    5   16   18     -0.53      0.00
    6   16   18      0.12      0.00
    7   16   18     -1.09      0.00
    8   16   18     -1.18      0.00
    9   16   18      2.17      0.00
    1   17   18     -0.31      0.00
    2   17   18     -0.25      0.00
    3   17   18      1.64      0.00
    4   17   18      0.02      0.00
    5   17   18     -0.69      0.00
    6   17   18     -1.88      0.00
    0   18   18     -0.79      0.00
    1   18   18     -0.89      0.00
    2   18   18      1.02      0.00
    3   18   18     -0.23      0.00
    0    2   19      0.21      0.00
    1    2   19     -3.20      0.00
    1    3   19     -0.32      0.00
    2    3   19      5.34      0.00
    0    4   19      0.63      0.00
    1    4   19      1.81      0.00
    2    4   19      0.97      0.00
    3    4   19     -2.16      0.00
    1    5   19     -0.27      0.00
    2    5   19      0.49      0.00
    3    5   19     -0.54      0.00
    4    5   19      0.12      0.00
    0    6   19      0.04      0.00
    1    6   19      0.83      0.00
    2    6   19      0.39      0.00
    3    6   19     -0.86      0.00
    4    6   19      0.46      0.00
    5    6   19      0.08      0.00
    1    7   19     -0.11      0.00
    2    7   19     -0.04      0.00
    3    7   19      0.06      0.00
    4    7   19     -0.53      0.00
    5    7   19     -0.98      0.00
    6    7   19      0.14      0.00
    0    8   19      0.18      0.00
    1    8   19      0.62      0.00
    2    8   19      0.48      0.00
    3    8   19     -1.43      0.00
    4    8   19     -0.82      0.00
    5    8   19      0.95      0.00
    6    8   19      0.83      0.00
    7    8   19     -1.77      0.00
    1    9   19     -0.09      0.00
    2    9   19     -1.24      0.00
    3    9   19     -1.06      0.00
    4    9   19      1.21      0.00
    5    9   19      0.21      0.00
    6    9   19     -1.34      0.00
    7    9   19     -0.91      0.00
    8    9   19      1.88      0.00
    0   10   19     -0.18      0.00
    1   10   19     -0.25      0.00
    2   10   19     -1.11      0.00
    3   10   19      0.81      0.00
    4   10   19     -0.13      0.00
    5   10   19     -0.63      0.00
    6   10   19     -0.07      0.00
    7   10   19      1.48      0.00
    8   10   19      0.63      0.00
    9   10   19     -1.70      0.00
    1   11   19     -1.16      0.00
    2   11   19      0.09      0.00
    3   11   19      0.52      0.00
    4   11   19     -0.27      0.00
    5   11   19      1.24      0.00
    6   11   19      1.03      0.00
    7   11   19     -0.65      0.00
    8   11   19     -1.94      0.00
    9   11   19     -0.85      0.00
   10   11   19     -0.06      0.00
    0   12   19     -1.69      0.00
    1   12   19      0.05      0.00
    2   12   19      0.61      0.00
    3   12   19      0.17      0.00
    4   12   19      0.52      0.00
    5   12   19      0.56      0.00
    6   12   19     -2.96      0.00
    7   12   19     -1.80      0.00
    8   12   19      0.69      0.00
    9   12   19      0.83      0.00
   10   12   19      2.12      0.00
   11   12   19      3.61      0.00
    1   13   19      0.46      0.00
    2   13   19      0.10      0.00
    3   13   19      0.02      0.00
    4   13   19     -0.03      0.00
    5   13   19     -2.02      0.00
    6   13   19     -1.29      0.00
    7   13   19      3.31      0.00
    8   13   19      0.99      0.00
    9   13   19      1.05      0.00
   10   13   19      1.41      0.00
   11   13   19     -2.23      0.00
   12   13   19     -3.77      0.00
    0   14   19     -0.12      0.00
    1   14   19      0.17      0.00
    2   14   19      0.36      0.00
    3   14   19     -0.28      0.00
    4   14   19     -0.06      0.00
    5   14   19     -1.85      0.00
    6   14   19      2.60      0.00
    7   14   19      0.99      0.00
    8   14   19     -0.95      0.00
    9   14   19      0.16      0.00
   10   14   19     -1.28      0.00
   11   14   19     -1.50      0.00
    1   15   19      0.18      0.00
    2   15   19     -1.02      0.00
    3   15   19      0.51      0.00
    4   15   19     -1.96      0.00
    5   15   19      0.69      0.00
    6   15   19      2.96      0.00
    7   15   19     -0.70      0.00
    8   15   19     -0.13      0.00
    9   15   19      0.14      0.00
   10   15   19     -0.18      0.00
    0   16   19     -0.53      0.00
    1   16   19     -0.63      0.00
    2   16   19      1.31      0.00
    3   16   19      0.30      0.00
    4   16   19     -0.29      0.00
    5   16   19      3.28      0.00
    6   16   19     -0.42      0.00
    7   16   19     -1.36      0.00
    8   16   19     -0.05      0.00
    1   17   19      1.84      0.00
    2   17   19      0.25      0.00
    3   17   19     -1.85      0.00
    4   17   19     -0.31      0.00
    5   17   19     -0.30      0.00
    6   17   19     -1.06      0.00
    0   18   19      2.14      0.00
    1   18   19     -1.21      0.00
    2   18   19     -2.12      0.00
    0    0   20      0.71      0.00
    1    1   20     -0.15      0.00
    0    2   20      0.24      0.00
    1    2   20     -0.22      0.00
    2    2   20     -0.82      0.00
    1    3   20     -1.20      0.00
    2    3   20      0.06      0.00
    3    3   20     -1.04      0.00
    0    4   20     -1.62      0.00
    1    4   20     -0.48      0.00
    2    4   20     -0.12      0.00
    3    4   20     -0.27      0.00
    4    4   20      2.14      0.00
    1    5   20      0.49      0.00
    2    5   20     -0.13      0.00
    3    5   20      0.93      0.00
    4    5   20      0.83      0.00
    5    5   20      0.62      0.00
    0    6   20     -0.96      0.00
    1    6   20     -0.22      0.00
    2    6   20      0.03      0.00
    3    6   20      2.01      0.00
    4    6   20      0.98      0.00
    5    6   20      0.09      0.00
    6    6   20     -1.23      0.00
    1    7   20      1.47      0.00
    2    7   20      2.01      0.00
    3    7   20      1.14      0.00
    4    7   20     -0.72      0.00
    5    7   20     -0.62      0.00
    6    7   20     -0.78      0.00
    7    7   20      0.55      0.00
    0    8   20      1.84      0.00
    1    8   20      0.75      0.00
    2    8   20      0.01      0.00
    3    8   20     -1.50      0.00
    4    8   20     -0.34      0.00
    5    8   20     -0.43      0.00
    6    8   20     -0.51      0.00
    7    8   20      0.15      0.00
    8    8   20     -0.93      0.00
    1    9   20     -0.25      0.00
    2    9   20     -0.55      0.00
    3    9   20     -0.13      0.00
    4    9   20      0.95      0.00
    5    9   20     -0.91      0.00
    6    9   20     -0.61      0.00
    7    9   20      0.03      0.00
    8    9   20      0.15      0.00
    9    9   20      0.77      0.00
    0   10   20      0.89      0.00
    1   10   20      0.34      0.00
    2   10   20      0.11      0.00
    3   10   20      0.45      0.00
    4   10   20     -0.29      0.00
    5   10   20     -1.24      0.00
    6   10   20      0.75      0.00
    7   10   20      0.87      0.00
    8   10   20      0.22      0.00
    9   10   20      0.16      0.00
   10   10   20     -0.23      0.00
    1   11   20     -0.44      0.00
    2   11   20     -0.61      0.00
    3   11   20     -0.06      0.00
    4   11   20     -0.27      0.00
    5   11   20      0.03      0.00
    6   11   20      0.80      0.00
    7   11   20     -0.79      0.00
    8   11   20     -0.33      0.00
    9   11   20      0.12      0.00
   10   11   20     -0.06      0.00
   11   11   20     -0.36      0.00
    0   12   20     -0.27      0.00
    1   12   20     -0.25      0.00
    2   12   20      0.28      0.00
    3   12   20      0.50      0.00
    4   12   20     -1.07      0.00
    5   12   20      0.10      0.00
    6   12   20     -0.72      0.00
    7   12   20     -0.19      0.00
    8   12   20      1.45      0.00
    9   12   20      0.58      0.00
   10   12   20     -0.41      0.00
   11   12   20     -0.29      0.00
   12   12   20      0.78      0.00
    1   13   20      0.74      0.00
    2   13   20     -0.35      0.00
    3   13   20     -1.48      0.00
    4   13   20      0.23      0.00
    5   13   20      0.53      0.00
    6   13   20      0.31      0.00
    7   13   20      1.95      0.00
    8   13   20      0.10      0.00
    9   13   20     -1.31      0.00
   10   13   20     -0.96      0.00
   11   13   20      0.15      0.00
   12   13   20      0.02      0.00
    0   14   20      1.94      0.00
    1   14   20     -1.51      0.00
    2   14   20     -1.66      0.00
    3   14   20      0.57      0.00
    4   14   20      1.05      0.00
    5   14   20     -0.15      0.00
    6   14   20      0.90      0.00
    7   14   20     -1.28      0.00
    8   14   20     -1.54      0.00
    9   14   20     -0.59      0.00
   10   14   20     -0.07      0.00
   11   14   20     -0.10      0.00
    1   15   20     -1.97      0.00
    2   15   20      1.80      0.00
    3   15   20      1.67      0.00
    4   15   20      0.55      0.00
    5   15   20      0.23      0.00
    6   15   20     -1.08      0.00
    7   15   20     -0.54      0.00
    8   15   20      0.60      0.00
    9   15   20     -0.06      0.00
    0   16   20     -0.28      0.00
    1   16   20      1.96      0.00
    2   16   20      1.79      0.00
    3   16   20      0.16      0.00
    4   16   20     -1.52      0.00
    5   16   20     -1.17      0.00
    6   16   20     -0.61      0.00
    7   16   20      0.72      0.00
    1   17   20     -0.53      0.00
    2   17   20     -1.23      0.00
    3   17   20     -2.63      0.00
    4   17   20     -0.69      0.00
    5   17   20      0.12      0.00
    0    2   21     -0.65      0.00
    1    2   21     -0.67      0.00
    1    3   21      0.03      0.00
    2    3   21      0.50      0.00
    0    4   21     -1.16      0.00
    1    4   21      0.45      0.00
    2    4   21     -0.25      0.00
    3    4   21     -0.92      0.00
    1    5   21      0.73      0.00
    2    5   21     -1.16      0.00
    3    5   21      0.38      0.00
    4    5   21     -0.30      0.00
    0    6   21      0.41      0.00
    1    6   21     -0.49      0.00
    2    6   21     -0.67      0.00
    3    6   21      0.93      0.00
    4    6   21     -0.88      0.00
    5    6   21      2.10      0.00
    1    7   21     -0.61      0.00
    2    7   21      0.70      0.00
    3    7   21      0.11      0.00
    4    7   21     -0.31      0.00
    5    7   21      1.21      0.00
    6    7   21     -0.21      0.00
    0    8   21     -0.27      0.00
    1    8   21     -0.83      0.00
    2    8   21      0.40      0.00
    3    8   21     -1.36      0.00
    4    8   21      0.55      0.00
    5    8   21      0.86      0.00
    6    8   21     -0.13      0.00
    7    8   21     -1.58      0.00
    1    9   21     -0.18      0.00
    2    9   21      1.11      0.00
    3    9   21      0.01      0.00
    4    9   21      1.88      0.00
    5    9   21      0.27      0.00
    6    9   21     -0.93      0.00
    7    9   21     -0.31      0.00
    8    9   21     -0.53      0.00
    0   10   21     -0.20      0.00
    1   10   21      1.43      0.00
    2   10   21      0.36      0.00
    3   10   21     -0.19      0.00
    4   10   21      0.84      0.00
    5   10   21     -1.77      0.00
    6   10   21      0.37      0.00
    7   10   21     -0.64      0.00
    8   10   21      0.43      0.00
    9   10   21      1.01      0.00
    1   11   21     -0.05      0.00
    2   11   21     -0.66      0.00
    3   11   21      0.52      0.00
    4   11   21     -0.86      0.00
    5   11   21     -0.23      0.00
    6   11   21      0.99      0.00
    7   11   21     -1.38      0.00
    8   11   21      0.72      0.00
    9   11   21     -1.38      0.00
   10   11   21      1.47      0.00
    0   12   21     -0.32      0.00
    1   12   21      0.76      0.00
    2   12   21      0.13      0.00
    3   12   21      0.07      0.00
    4   12   21     -0.63      0.00
    5   12   21      1.23      0.00
    6   12   21     -0.82      0.00
    7   12   21     -0.28      0.00
    8   12   21      0.82      0.00
    9   12   21      0.81      0.00
   10   12   21      2.47      0.00
   11   12   21     -1.67      0.00
    1   13   21     -0.68      0.00
    2   13   21     -0.73      0.00
    3   13   21      0.02      0.00
    4   13   21     -0.36      0.00
    5   13   21      0.15      0.00
    6   13   21     -0.67      0.00
    7   13   21      0.73      0.00
    8   13   21      0.16      0.00
    9   13   21      0.13      0.00
   10   13   21     -0.53      0.00
   11   13   21     -2.68      0.00
    0   14   21     -2.22      0.00
    1   14   21     -1.26      0.00
    2   14   21      1.05      0.00
    3   14   21     -0.54      0.00
    4   14   21     -0.22      0.00
    5   14   21      0.47      0.00
    6   14   21      0.37      0.00
    7   14   21      0.02      0.00
    8   14   21     -0.63      0.00
    9   14   21      0.13      0.00
   10   14   21     -0.65      0.00
    1   15   21      2.19      0.00
    2   15   21      1.60      0.00
    3   15   21     -0.06      0.00
    4   15   21      1.19      0.00
    5   15   21      1.33      0.00
    6   15   21     -0.41      0.00
    7   15   21     -0.86      0.00
    8   15   21      0.60      0.00
    9   15   21      0.63      0.00
    0   16   21      1.43      0.00
    1   16   21      2.09      0.00
    2   16   21     -0.34      0.00
    3   16   21     -0.27      0.00
    4   16   21      0.17      0.00
    5   16   21     -0.85      0.00
    6   16   21     -2.28      0.00
    7   16   21      1.28      0.00
    1   17   21      0.33      0.00
    2   17   21     -1.11      0.00
    3   17   21     -0.35      0.00
    4   17   21     -0.52      0.00
    0    0   22      3.53      0.00
    1    1   22     -2.13      0.00
    0    2   22     -1.23      0.00
    1    2   22      0.05      0.00
    2    2   22      1.18      0.00
    1    3   22      0.63      0.00
    2    3   22      0.13      0.00
    3    3   22     -1.48      0.00
    0    4   22      0.11      0.00
    1    4   22      0.46      0.00
    2    4   22     -0.59      0.00
    3    4   22     -0.17      0.00
    4    4   22      1.25      0.00
    1    5   22      0.44      0.00
    2    5   22     -0.31      0.00
    3    5   22      0.21      0.00
    4    5   22      0.11      0.00
    5    5   22     -1.04      0.00
    0    6   22      0.61      0.00
    1    6   22      0.49      0.00
    2    6   22     -0.68      0.00
    3    6   22      0.01      0.00
    4    6   22     -0.23      0.00
    5    6   22      0.23      0.00
    6    6   22      0.11      0.00
    1    7   22     -0.08      0.00
    2    7   22     -1.17      0.00
    3    7   22      0.51      0.00
    4    7   22     -0.18      0.00
    5    7   22     -0.36      0.00
    6    7   22     -1.54      0.00
    7    7   22      0.09      0.00
    0    8   22      1.03      0.00
    1    8   22     -1.42      0.00
    2    8   22      0.19      0.00
    3    8   22     -0.28      0.00
    4    8   22     -1.32      0.00
    5    8   22     -1.69      0.00
    6    8   22     -0.05      0.00
    7    8   22      1.64      0.00
    8    8   22      1.49      0.00
    1    9   22     -0.81      0.00
    2    9   22      0.37      0.00
    3    9   22     -2.09      0.00
    4    9   22      0.01      0.00
    5    9   22      0.48      0.00
    6    9   22      2.08      0.00
    7    9   22      2.07      0.00
    8    9   22     -0.20      0.00
    9    9   22     -0.96      0.00
    0   10   22     -1.06      0.00
    1   10   22      0.08      0.00
    2   10   22     -1.06      0.00
    3   10   22     -0.18      0.00
    4   10   22      1.77      0.00
    5   10   22      0.64      0.00
    6   10   22      2.11      0.00
    7   10   22      0.12      0.00
    8   10   22     -1.51      0.00
    9   10   22     -0.40      0.00
   10   10   22     -1.36      0.00
    1   11   22     -0.03      0.00
    2   11   22     -0.36      0.00
    3   11   22      0.69      0.00
    4   11   22      1.15      0.00
    5   11   22      0.87      0.00
    6   11   22      0.71      0.00
    7   11   22     -1.46      0.00
    8   11   22     -0.60      0.00
    9   11   22     -0.62      0.00
   10   11   22      0.64      0.00
   11   11   22      0.90      0.00
    0   12   22     -1.15      0.00
    1   12   22      0.06      0.00
    2   12   22     -0.79      0.00
    3   12   22      1.64      0.00
    4   12   22      1.26      0.00
    5   12   22      0.48      0.00
    6   12   22     -0.53      0.00
    7   12   22     -1.31      0.00
    8   12   22     -0.61      0.00
    9   12   22      0.61      0.00
   10   12   22      0.04      0.00
   11   12   22     -1.02      0.00
   12   12   22      0.13      0.00
    1   13   22      0.70      0.00
    2   13   22      0.77      0.00
    3   13   22      1.76      0.00
    4   13   22     -0.26      0.00
    5   13   22     -0.81      0.00
    6   13   22     -3.15      0.00
    7   13   22     -1.44      0.00
    8   13   22      0.91      0.00
    9   13   22     -0.12      0.00
   10   13   22     -1.13      0.00
   11   13   22      0.03      0.00
    0   14   22      0.99      0.00
    1   14   22     -0.12      0.00
    2   14   22      0.28      0.00
    3   14   22     -0.63      0.00
    4   14   22     -0.46      0.00
    5   14   22     -3.02      0.00
    6   14   22     -0.90      0.00
    7   14   22      2.95      0.00
    8   14   22      1.13      0.00
    9   14   22     -0.22      0.00
   10   14   22     -0.22      0.00
    1   15   22     -0.03      0.00
    2   15   22      0.10      0.00
    3   15   22      0.48      0.00
    4   15   22     -0.99      0.00
    5   15   22     -0.87      0.00
    6   15   22      3.18      0.00
    7   15   22      1.52      0.00
    8   15   22     -0.47      0.00
    0   16   22     -0.12      0.00
    1   16   22      0.68      0.00
    2   16   22     -0.09      0.00
    3   16   22     -0.03      0.00
    4   16   22     -0.85      0.00
    5   16   22      1.89      0.00
    6   16   22      1.21      0.00
    1   17   22      0.45      0.00
    2   17   22     -0.31      0.00
    0    2   23     -0.12      0.00
    1    2   23      4.78      0.00
    1    3   23     -0.15      0.00
    2    3   23     -5.64      0.00
    0    4   23     -0.31      0.00
    1    4   23     -1.74      0.00
    2    4   23      0.28      0.00
    3    4   23      2.50      0.00
    1    5   23      0.33      0.00
    2    5   23      0.08      0.00
    3    5   23      0.55      0.00
    4    5   23     -0.86      0.00
    0    6   23      0.02      0.00
    1    6   23     -0.30      0.00
    2    6   23      0.13      0.00
    3    6   23      1.32      0.00
    4    6   23     -0.54      0.00
    5    6   23      2.67      0.00
    1    7   23      0.12      0.00
    2    7   23      0.67      0.00
    3    7   23      0.52      0.00
    4    7   23     -0.15      0.00
    5    7   23      0.26      0.00
    6    7   23     -4.11      0.00
    0    8   23     -0.04      0.00
    1    8   23     -0.49      0.00
    2    8   23      0.41      0.00
    3    8   23      0.03      0.00
    4    8   23     -0.64      0.00
    5    8   23     -2.13      0.00
    6    8   23     -0.55      0.00
    7    8   23      2.37      0.00
    1    9   23     -0.01      0.00
    2    9   23      0.97      0.00
    3    9   23     -0.10      0.00
    4    9   23     -1.61      0.00
    5    9   23     -0.30      0.00
    6    9   23      2.04      0.00
    7    9   23     -0.33      0.00
    8    9   23     -1.27      0.00
    0   10   23      0.01      0.00
    1   10   23      0.84      0.00
    2   10   23      1.02      0.00
    3   10   23     -0.75      0.00
    4   10   23      0.05      0.00
    5   10   23      1.02      0.00
    6   10   23     -0.36      0.00
    7   10   23     -1.25      0.00
    8   10   23      1.15      0.00
    9   10   23      1.57      0.00
    1   11   23      0.51      0.00
    2   11   23     -0.38      0.00
    3   11   23     -0.19      0.00
    4   11   23     -1.13      0.00
    5   11   23     -1.08      0.00
    6   11   23      0.51      0.00
    7   11   23      1.85      0.00
    8   11   23      2.10      0.00
    9   11   23     -0.65      0.00
   10   11   23      0.49      0.00
    0   12   23     -0.82      0.00
    1   12   23      0.08      0.00
    2   12   23      0.24      0.00
    3   12   23     -1.17      0.00
    4   12   23     -1.23      0.00
    5   12   23      1.88      0.00
    6   12   23      2.35      0.00
    7   12   23      0.79      0.00
    8   12   23     -2.45      0.00
    9   12   23     -1.60      0.00
   10   12   23      0.45      0.00
   11   12   23     -2.22      0.00
    1   13   23      1.79      0.00
    2   13   23     -1.52      0.00
    3   13   23     -1.00      0.00
    4   13   23      0.03      0.00
    5   13   23      1.76      0.00
    6   13   23      0.89      0.00
    7   13   23     -3.63      0.00
    8   13   23     -1.89      0.00
    9   13   23      1.88      0.00
   10   13   23     -0.21      0.00
    0   14   23      2.90      0.00
    1   14   23     -2.51      0.00
    2   14   23     -1.54      0.00
    3   14   23     -0.36      0.00
    4   14   23      1.06      0.00
    5   14   23      3.32      0.00
    6   14   23     -2.86      0.00
    7   14   23     -2.82      0.00
    8   14   23      2.70      0.00
    9   14   23      0.14      0.00
    1   15   23     -2.52      0.00
    2   15   23      1.60      0.00
    3   15   23      0.86      0.00
    4   15   23      3.69      0.00
    5   15   23     -1.90      0.00
    6   15   23     -4.17      0.00
    7   15   23      2.17      0.00
    0   16   23     -2.92      0.00
    1   16   23      1.33      0.00
    2   16   23      1.03      0.00
    3   16   23      2.10      0.00
    4   16   23     -1.23      0.00
    5   16   23     -3.40      0.00
    0    0   24     -2.35      0.00
    1    1   24      0.97      0.00
    0    2   24     -0.23      0.00
    1    2   24      0.06      0.00
    2    2   24      0.41      0.00
    1    3   24      1.25      0.00
    2    3   24     -0.21      0.00
    3    3   24      0.27      0.00
    0    4   24      1.64      0.00
    1    4   24     -0.45      0.00
    2    4   24     -0.23      0.00
    3    4   24      0.07      0.00
    4    4   24     -0.44      0.00
    1    5   24     -0.22      0.00
    2    5   24      0.37      0.00
    3    5   24     -0.18      0.00
    4    5   24      0.35      0.00
    5    5   24     -0.51      0.00
    0    6   24      0.93      0.00
    1    6   24      0.66      0.00
    2    6   24     -0.46      0.00
    3    6   24      0.23      0.00
    4    6   24     -0.86      0.00
    5    6   24     -0.10      0.00
    6    6   24      0.23      0.00
    1    7   24     -1.02      0.00
    2    7   24     -0.87      0.00
    3    7   24     -0.40      0.00
    4    7   24     -0.20      0.00
    5    7   24      0.86      0.00
    6    7   24     -0.38      0.00
    7    7   24      0.47      0.00
    0    8   24     -0.22      0.00
    1    8   24     -0.90      0.00
    2    8   24      0.01      0.00
    3    8   24     -0.12      0.00
    4    8   24      0.11      0.00
    5    8   24     -0.08      0.00
    6    8   24     -0.34      0.00
    7    8   24      0.12      0.00
    8    8   24      0.05      0.00
    1    9   24     -0.78      0.00
    2    9   24     -0.42      0.00
    3    9   24     -0.58      0.00
    4    9   24      1.13      0.00
    5    9   24      0.74      0.00
    6    9   24     -0.15      0.00
    7    9   24      0.67      0.00
    8    9   24      0.29      0.00
    9    9   24     -0.37      0.00
    0   10   24     -0.49      0.00
    1   10   24     -0.78      0.00
    2   10   24      0.58      0.00
    3   10   24      1.64      0.00
    4   10   24      1.78      0.00
    5   10   24     -0.38      0.00
    6   10   24     -0.41      0.00
    7   10   24      0.56      0.00
    8   10   24     -0.41      0.00
    9   10   24      0.00      0.00
   10   10   24      0.29      0.00
    1   11   24     -0.15      0.00
    2   11   24      1.22      0.00
    3   11   24      0.00      0.00
    4   11   24      0.42      0.00
    5   11   24     -1.22      0.00
    6   11   24      0.05      0.00
    7   11   24      0.57      0.00
    8   11   24     -0.42      0.00
    9   11   24      0.00      0.00
   10   11   24     -0.25      0.00
   11   11   24     -0.59      0.00
    0   12   24     -1.15      0.00
    1   12   24      0.34      0.00
    2   12   24      0.03      0.00
    3   12   24      1.10      0.00
    4   12   24      0.40      0.00
    5   12   24     -0.86      0.00
    6   12   24      0.69      0.00
    7   12   24     -1.14      0.00
    8   12   24     -0.87      0.00
    9   12   24      0.37      0.00
   10   12   24     -0.40      0.00
   11   12   24      0.19      0.00
    1   13   24      0.83      0.00
    2   13   24      1.15      0.00
    3   13   24      0.30      0.00
    4   13   24     -0.67      0.00
    5   13   24     -0.66      0.00
    6   13   24     -1.79      0.00
    7   13   24     -0.96      0.00
    8   13   24      1.70      0.00
    9   13   24      0.27      0.00
   10   13   24     -0.26      0.00
    0   14   24      0.97      0.00
    1   14   24      0.89      0.00
    2   14   24     -0.38      0.00
    3   14   24     -0.53      0.00
    4   14   24     -0.56      0.00
    5   14   24     -2.92      0.00
    6   14   24     -0.10      0.00
    7   14   24      2.20      0.00
    8   14   24      0.88      0.00
    1   15   24     -0.80      0.00
    2   15   24     -0.75      0.00
    3   15   24     -0.49      0.00
    4   15   24     -2.30      0.00
    5   15   24      0.32      0.00
    6   15   24      3.03      0.00
    0   16   24     -1.30      0.00
    1   16   24      0.35      0.00
    2   16   24     -0.60      0.00
    3   16   24     -0.29      0.00
    4   16   24      0.84      0.00
    0    2   25     -0.18      0.00
    1    2   25      2.30      0.00
    1    3   25      0.21      0.00
    2    3   25     -1.95      0.00
    0    4   25      0.61      0.00
    1    4   25     -0.65      0.00
    2    4   25      0.19      0.00
    3    4   25     -0.34      0.00
    1    5   25     -0.23      0.00
    2    5   25     -0.05      0.00
    3    5   25     -0.45      0.00
    4    5   25      0.57      0.00
    0    6   25      0.19      0.00
    1    6   25     -0.01      0.00
    2    6   25     -0.35      0.00
    3    6   25     -0.13      0.00
    4    6   25     -0.22      0.00
    5    6   25      0.74      0.00
    1    7   25     -0.77      0.00
    2    7   25      0.11      0.00
    3    7   25     -0.38      0.00
    4    7   25      0.64      0.00
    5    7   25      0.20      0.00
    6    7   25     -1.06      0.00
    0    8   25     -1.16      0.00
    1    8   25      0.61      0.00
    2    8   25     -0.28      0.00
    3    8   25     -0.39      0.00
    4    8   25      0.03      0.00
    5    8   25     -1.48      0.00
    6    8   25      0.33      0.00
    7    8   25     -0.42      0.00
    1    9   25      0.20      0.00
    2    9   25     -1.31      0.00
    3    9   25      0.49      0.00
    4    9   25     -0.80      0.00
    5    9   25      0.93      0.00
    6    9   25      1.44      0.00
    7    9   25      0.15      0.00
    8    9   25      1.17      0.00
    0   10   25      0.70      0.00
    1   10   25     -0.83      0.00
    2   10   25      0.47      0.00
    3   10   25      0.40      0.00
    4   10   25      0.15      0.00
    5   10   25      1.47      0.00
    6   10   25     -0.17      0.00
    7   10   25      0.21      0.00
    8   10   25     -0.46      0.00
    9   10   25      0.56      0.00
    1   11   25     -0.65      0.00
    2   11   25      0.47      0.00
    3   11   25     -0.25      0.00
    4   11   25      0.05      0.00
    5   11   25      0.32      0.00
    6   11   25      0.92      0.00
    7   11   25     -0.17      0.00
    8   11   25     -0.32      0.00
    9   11   25      0.15      0.00
   10   11   25     -2.00      0.00
    0   12   25     -1.08      0.00
    1   12   25     -0.28      0.00
    2   12   25      0.16      0.00
    3   12   25     -0.25      0.00
    4   12   25     -0.26      0.00
    5   12   25      1.71      0.00
    6   12   25     -0.31      0.00
    7   12   25     -1.80      0.00
    8   12   25     -0.37      0.00
    9   12   25     -1.11      0.00
   10   12   25      0.25      0.00
    1   13   25      0.36      0.00
    2   13   25      0.75      0.00
    3   13   25     -0.58      0.00
    4   13   25      0.82      0.00
    5   13   25      0.78      0.00
    6   13   25     -1.91      0.00
    7   13   25     -0.30      0.00
    8   13   25     -0.19      0.00
    9   13   25      0.31      0.00
    0   14   25      0.63      0.00
    1   14   25      0.74      0.00
    2   14   25     -0.17      0.00
    3   14   25     -0.83      0.00
    4   14   25      1.33      0.00
    5   14   25     -0.85      0.00
    6   14   25     -0.69      0.00
    7   14   25      0.24      0.00
    8   14   25      0.02      0.00
    1   15   25     -0.56      0.00
    2   15   25     -0.90      0.00
    3   15   25      1.08      0.00
    4   15   25      0.53      0.00
    5   15   25     -0.75      0.00
    0   16   25      0.05      0.00
    1   16   25      0.25      0.00
    2   16   25      1.29      0.00
    0    0   26     -2.32      0.00
    1    1   26      1.00      0.00
    0    2   26     -0.29      0.00
    1    2   26      0.06      0.00
    2    2   26     -0.09      0.00
    1    3   26      1.22      0.00
    2    3   26     -0.14      0.00
    3    3   26      1.32      0.00
    0    4   26      2.20      0.00
    1    4   26     -0.30      0.00
    2    4   26      0.44      0.00
    3    4   26     -0.10      0.00
    4    4   26     -0.90      0.00
    1    5   26     -0.63      0.00
    2    5   26      0.28      0.00
    3    5   26     -0.94      0.00
    4    5   26      0.77      0.00
    5    5   26     -0.72      0.00
    0    6   26     -0.30      0.00
    1    6   26      0.61      0.00
    2    6   26     -0.61      0.00
    3    6   26      0.76      0.00
    4    6   26     -0.05      0.00
    5    6   26     -0.74      0.00
    6    6   26      0.84      0.00
    1    7   26     -0.60      0.00
    2    7   26     -0.03      0.00
    3    7   26      0.01      0.00
    4    7   26     -0.79      0.00
    5    7   26      0.07      0.00
    6    7   26      0.13      0.00
    7    7   26     -0.75      0.00
    0    8   26     -1.98      0.00
    1    8   26      0.15      0.00
    2    8   26     -0.20      0.00
    3    8   26     -0.19      0.00
    4    8   26      0.52      0.00
    5    8   26     -0.07      0.00
    6    8   26      0.20      0.00
    7    8   26     -0.73      0.00
    8    8   26      0.09      0.00
    1    9   26      1.71      0.00
    2    9   26     -0.29      0.00
    3    9   26      1.73      0.00
    4    9   26     -0.18      0.00
    5    9   26      0.14      0.00
    6    9   26     -1.57      0.00
    7    9   26     -0.87      0.00
    8    9   26      1.21      0.00
    9    9   26      0.16      0.00
    0   10   26      2.23      0.00
    1   10   26      0.02      0.00
    2   10   26      0.78      0.00
    3   10   26      0.35      0.00
    4   10   26     -0.84      0.00
    5   10   26     -1.00      0.00
    6   10   26     -1.24      0.00
    7   10   26      2.65      0.00
    8   10   26      0.66      0.00
    9   10   26     -0.09      0.00
   10   10   26      0.54      0.00
    1   11   26      0.20      0.00
    2   11   26      0.57      0.00
    3   11   26     -0.57      0.00
    4   11   26     -0.61      0.00
    5   11   26     -0.84      0.00
    6   11   26      1.04      0.00
    7   11   26      0.60      0.00
    8   11   26     -0.62      0.00
    9   11   26      0.70      0.00
   10   11   26     -0.66      0.00
   11   11   26      0.65      0.00
    0   12   26      0.86      0.00
    1   12   26      0.59      0.00
    2   12   26     -0.77      0.00
    3   12   26     -1.20      0.00
    4   12   26     -1.20      0.00
    5   12   26     -0.83      0.00
    6   12   26     -0.13      0.00
    7   12   26      0.40      0.00
    8   12   26      1.13      0.00
    9   12   26     -0.47      0.00
   10   12   26     -0.14      0.00
    1   13   26     -0.85      0.00
    2   13   26     -1.32      0.00
    3   13   26     -0.58      0.00
    4   13   26     -0.48      0.00
    5   13   26      0.06      0.00
    6   13   26      1.62      0.00
    7   13   26      1.52      0.00
    8   13   26     -0.23      0.00
    9   13   26     -1.09      0.00
    0   14   26     -0.64      0.00
    1   14   26     -1.05      0.00
    2   14   26      0.26      0.00
    3   14   26     -0.34      0.00
    4   14   26      0.20      0.00
    5   14   26      1.14      0.00
    6   14   26      1.28      0.00
    7   14   26     -0.66      0.00
    1   15   26      0.79      0.00
    2   15   26      0.41      0.00
    3   15   26     -0.02      0.00
    4   15   26      1.31      0.00
    0    2   27     -0.11      0.00
    1    2   27     -3.23      0.00
    1    3   27      0.85      0.00
    2    3   27      3.41      0.00
    0    4   27      2.18      0.00
    1    4   27      0.30      0.00
    2    4   27     -0.63      0.00
    3    4   27     -1.82      0.00
    1    5   27     -1.92      0.00
    2    5   27      1.00      0.00
    3    5   27      0.07      0.00
    4    5   27      0.82      0.00
    0    6   27     -1.97      0.00
    1    6   27      1.82      0.00
    2    6   27      0.97      0.00
    3    6   27     -0.98      0.00
    4    6   27     -0.30      0.00
    5    6   27     -0.13      0.00
    1    7   27      1.30      0.00
    2    7   27     -2.17      0.00
    3    7   27     -0.58      0.00
    4    7   27      0.14      0.00
    5    7   27      0.51      0.00
    6    7   27      1.47      0.00
    0    8   27      1.18      0.00
    1    8   27     -1.39      0.00
    2    8   27     -0.42      0.00
    3    8   27      1.04      0.00
    4    8   27     -0.27      0.00
    5    8   27      0.97      0.00
    6    8   27     -0.05      0.00
    7    8   27     -1.49      0.00
    1    9   27     -0.31      0.00
    2    9   27      0.87      0.00
    3    9   27     -1.30      0.00
    4    9   27     -0.99      0.00
    5    9   27      2.01      0.00
    6    9   27     -0.30      0.00
    7    9   27      0.07      0.00
    8    9   27     -1.53      0.00
    0   10   27      0.11      0.00
    1   10   27     -0.18      0.00
    2   10   27     -1.49      0.00
    3   10   27     -1.34      0.00
    4   10   27      3.75      0.00
    5   10   27      3.13      0.00
    6   10   27     -2.45      0.00
    7   10   27     -0.98      0.00
    8   10   27     -0.74      0.00
    9   10   27      1.89      0.00
    1   11   27     -1.26      0.00
    2   11   27     -0.43      0.00
    3   11   27      3.82      0.00
    4   11   27      4.19      0.00
    5   11   27     -4.61      0.00
    6   11   27     -3.33      0.00
    7   11   27      0.83      0.00
    8   11   27     -0.30      0.00
    9   11   27      0.52      0.00
   10   11   27     -0.37      0.00
    0   12   27     -1.33      0.00
    1   12   27     -0.85      0.00
    2   12   27      3.11      0.00
    3   12   27      3.27      0.00
    4   12   27     -4.89      0.00
    5   12   27     -4.37      0.00
    6   12   27      2.41      0.00
    7   12   27      0.57      0.00
    8   12   27      0.24      0.00
    9   12   27      1.10      0.00
    1   13   27      2.07      0.00
    2   13   27      3.57      0.00
    3   13   27     -4.33      0.00
    4   13   27     -3.36      0.00
    5   13   27      2.76      0.00
    6   13   27      1.25      0.00
    7   13   27      0.06      0.00
    8   13   27      0.38      0.00
    0   14   27      1.36      0.00
    1   14   27      2.43      0.00
    2   14   27     -2.58      0.00
    3   14   27     -3.39      0.00
    4   14   27      2.84      0.00
    5   14   27      0.10      0.00
    6   14   27      0.14      0.00
    1   15   27     -0.71      0.00
    2   15   27     -2.36      0.00
    3   15   27      1.34      0.00
    0    0   28     -0.76      0.00
    1    1   28      0.67      0.00
    0    2   28      1.00      0.00
    1    2   28     -0.51      0.00
    2    2   28      0.23      0.00
    1    3   28     -0.52      0.00
    2    3   28      0.63      0.00
    3    3   28     -0.87      0.00
    0    4   28     -0.57      0.00
    1    4   28      0.19      0.00
    2    4   28     -0.18      0.00
    3    4   28     -0.35      0.00
    4    4   28      0.33      0.00
    1    5   28     -0.19      0.00
    2    5   28      0.49      0.00
    3    5   28     -0.37      0.00
    4    5   28      0.54      0.00
    5    5   28     -0.46      0.00
    0    6   28     -0.93      0.00
    1    6   28      1.10      0.00
    2    6   28     -0.58      0.00
    3    6   28     -0.08      0.00
    4    6   28      0.40      0.00
    5    6   28     -0.26      0.00
    6    6   28      0.67      0.00
    1    7   28     -0.03      0.00
    2    7   28     -1.09      0.00
    3    7   28      0.97      0.00
    4    7   28      0.55      0.00
    5    7   28     -0.03      0.00
    6    7   28     -0.03      0.00
    7    7   28     -0.02      0.00
    0    8   28     -0.49      0.00
    1    8   28     -0.41      0.00
    2    8   28      0.69      0.00
    3    8   28      1.44      0.00
    4    8   28      0.02      0.00
    5    8   28     -0.70      0.00
    6    8   28      0.49      0.00
    7    8   28     -0.25      0.00
    8    8   28      0.46      0.00
    1    9   28      0.74      0.00
    2    9   28      0.57      0.00
    3    9   28      0.61      0.00
    4    9   28     -0.71      0.00
    5    9   28     -0.16      0.00
    6    9   28     -0.31      0.00
    7    9   28      0.11      0.00
    8    9   28      0.34      0.00
    9    9   28     -0.86      0.00
    0   10   28      0.38      0.00
    1   10   28      0.07      0.00
    2   10   28      0.13      0.00
    3   10   28      0.27      0.00
    4   10   28     -1.13      0.00
    5   10   28     -0.74      0.00
    6   10   28      0.41      0.00
    7   10   28      0.50      0.00
    8   10   28     -1.24      0.00
    9   10   28      0.39      0.00
   10   10   28     -0.49      0.00
    1   11   28      0.07      0.00
    2   11   28      0.16      0.00
    3   11   28     -0.44      0.00
    4   11   28     -1.22      0.00
    5   11   28      0.50      0.00
    6   11   28      0.48      0.00
    7   11   28     -1.63      0.00
    8   11   28      0.72      0.00
    9   11   28      0.72      0.00
   10   11   28     -1.15      0.00
    0   12   28      0.11      0.00
    1   12   28     -0.05      0.00
    2   12   28     -0.39      0.00
    3   12   28     -0.88      0.00
    4   12   28     -0.26      0.00
    5   12   28      0.09      0.00
    6   12   28     -0.49      0.00
    7   12   28      0.42      0.00
    8   12   28      1.82      0.00
    1   13   28     -0.70      0.00
    2   13   28     -1.15      0.00
    3   13   28      0.48      0.00
    4   13   28     -0.10      0.00
    5   13   28      0.89      0.00
    6   13   28      1.20      0.00
    7   13   28      0.54      0.00
    0   14   28     -1.19      0.00
    1   14   28     -0.98      0.00
    2   14   28      1.45      0.00
    3   14   28      0.99      0.00
    4   14   28      0.42      0.00
    5   14   28      2.01      0.00
    0    2   29      0.40      0.00
    1    2   29     -2.07      0.00
    1    3   29     -0.58      0.00
    2    3   29      1.55      0.00
    0    4   29     -1.18      0.00
    1    4   29     -0.16      0.00
    2    4   29     -0.16      0.00
    3    4   29      0.08      0.00
    1    5   29      0.18      0.00
    2    5   29      1.43      0.00
    3    5   29     -0.03      0.00
    4    5   29      0.65      0.00
    0    6   29     -1.25      0.00
    1    6   29      1.27      0.00
    2    6   29     -0.52      0.00
    3    6   29     -0.47      0.00
    4    6   29      0.06      0.00
    5    6   29     -2.15      0.00
    1    7   29      1.10      0.00
    2    7   29     -0.73      0.00
    3    7   29      0.96      0.00
    4    7   29     -1.46      0.00
    5    7   29      0.53      0.00
    6    7   29      2.00      0.00
    0    8   29      1.89      0.00
    1    8   29     -0.44      0.00
    2    8   29      0.56      0.00
    3    8   29     -0.53      0.00
    4    8   29     -0.08      0.00
    5    8   29      1.89      0.00
    6    8   29     -0.64      0.00
    7    8   29     -0.45      0.00
    1    9   29     -0.03      0.00
    2    9   29      0.45      0.00
    3    9   29     -0.66      0.00
    4    9   29      0.62      0.00
    5    9   29     -0.19      0.00
    6    9   29     -0.95      0.00
    7    9   29      1.08      0.00
    8    9   29     -0.29      0.00
    0   10   29      1.37      0.00
    1   10   29      0.32      0.00
    2   10   29     -0.61      0.00
    3   10   29     -0.29      0.00
    4   10   29      0.20      0.00
    5   10   29      0.48      0.00
    6   10   29      0.36      0.00
    7   10   29      0.79      0.00
    8   10   29     -1.33      0.00
    9   10   29      0.38      0.00
    1   11   29     -1.51      0.00
    2   11   29      0.78      0.00
    3   11   29     -0.56      0.00
    4   11   29      0.81      0.00
    5   11   29     -0.17      0.00
    6   11   29     -1.23      0.00
    7   11   29     -0.49      0.00
    8   11   29     -1.23      0.00
    9   11   29      0.86      0.00
    0   12   29     -1.94      0.00
    1   12   29      1.38      0.00
    2   12   29     -0.50      0.00
    3   12   29     -1.39      0.00
    4   12   29      0.66      0.00
    5   12   29     -2.45      0.00
    6   12   29      0.36      0.00
    7   12   29      0.62      0.00
    8   12   29      0.43      0.00
    1   13   29      1.03      0.00
    2   13   29     -2.31      0.00
    3   13   29      0.90      0.00
    4   13   29     -0.62      0.00
    5   13   29      0.02      0.00
    6   13   29      2.47      0.00
    0   14   29      2.11      0.00
    1   14   29     -1.04      0.00
    2   14   29     -0.79      0.00
    3   14   29      0.80      0.00
    0    0   30      1.00      0.00
    1    1   30     -0.58      0.00
    0    2   30      0.18      0.00
    1    2   30      0.55      0.00
    2    2   30      0.29      0.00
    1    3   30     -0.82      0.00
    2    3   30     -0.73      0.00
    3    3   30     -1.60      0.00
    0    4   30     -1.38      0.00
    1    4   30     -0.08      0.00
    2    4   30     -0.63      0.00
    3    4   30      0.24      0.00
    4    4   30      1.81      0.00
    1    5   30     -0.40      0.00
    2    5   30     -1.26      0.00
    3    5   30      0.99      0.00
    4    5   30     -0.29      0.00
    5    5   30      0.29      0.00
    0    6   30     -1.53      0.00
    1    6   30     -1.67      0.00
    2    6   30      0.40      0.00
    3    6   30      0.67      0.00
    4    6   30      0.60      0.00
    5    6   30      0.22      0.00
    6    6   30     -0.72      0.00
    1    7   30      0.51      0.00
    2    7   30      0.78      0.00
    3    7   30      1.00      0.00
    4    7   30     -0.13      0.00
    5    7   30     -0.39      0.00
    6    7   30      0.08      0.00
    7    7   30     -0.63      0.00
    0    8   30     -0.02      0.00
    1    8   30     -0.77      0.00
    2    8   30      0.93      0.00
    3    8   30     -0.10      0.00
    4    8   30     -0.17      0.00
    5    8   30      0.25      0.00
    6    8   30     -0.99      0.00
    7    8   30     -0.26      0.00
    8    8   30      1.04      0.00
    1    9   30      0.02      0.00
    2    9   30      1.20      0.00
    3    9   30     -0.07      0.00
    4    9   30      0.39      0.00
    5    9   30     -0.90      0.00
    6    9   30      0.15      0.00
    7    9   30      1.17      0.00
    8    9   30      0.31      0.00
    9    9   30      0.58      0.00
    0   10   30     -0.99      0.00
    1   10   30      1.14      0.00
    2   10   30      0.48      0.00
    3   10   30     -0.04      0.00
    4   10   30     -0.44      0.00
    5   10   30      0.47      0.00
    6   10   30      0.28      0.00
    7   10   30     -0.46      0.00
    8   10   30      0.09      0.00
    9   10   30     -0.03      0.00
    1   11   30      0.20      0.00
    2   11   30     -0.57      0.00
    3   11   30     -0.21      0.00
    4   11   30      0.03      0.00
    5   11   30     -0.83      0.00
    6   11   30     -0.95      0.00
    7   11   30      0.67      0.00
    8   11   30      0.62      0.00
    0   12   30     -1.49      0.00
    1   12   30     -0.17      0.00
    2   12   30      0.93      0.00
    3   12   30      0.21      0.00
    4   12   30     -0.55      0.00
    5   12   30      0.11      0.00
    6   12   30      1.99      0.00
    7   12   30      0.34      0.00
    1   13   30      2.15      0.00
    2   13   30     -0.16      0.00
    3   13   30     -0.39      0.00
    4   13   30      0.16      0.00
    0    2   31      1.32      0.00
    1    2   31      1.65      0.00
    1    3   31     -0.25      0.00
    2    3   31     -1.47      0.00
    0    4   31      1.47      0.00
    1    4   31      0.04      0.00
    2    4   31      0.53      0.00
    3    4   31      0.43      0.00
    1    5   31     -0.32      0.00
    2    5   31     -0.36      0.00
    3    5   31     -0.27      0.00
    4    5   31     -1.29      0.00
    0    6   31      0.83      0.00
    1    6   31     -0.27      0.00
    2    6   31      0.35      0.00
    3    6   31     -1.06      0.00
    4    6   31     -0.68      0.00
    5    6   31      1.06      0.00
    1    7   31     -0.59      0.00
    2    7   31     -0.25      0.00
    3    7   31     -2.02      0.00
    4    7   31      1.41      0.00
    5    7   31     -0.22      0.00
    6    7   31     -0.44      0.00
    0    8   31     -1.78      0.00
    1    8   31      0.46      0.00
    2    8   31     -0.88      0.00
    3    8   31      0.02      0.00
    4    8   31      1.42      0.00
    5    8   31     -1.39      0.00
    6    8   31      1.22      0.00
    7    8   31      0.04      0.00
    1    9   31      2.39      0.00
    2    9   31     -0.88      0.00
    3    9   31      0.99      0.00
    4    9   31      0.27      0.00
    5    9   31     -0.76      0.00
    6    9   31      1.36      0.00
    7    9   31     -1.02      0.00
    8    9   31      1.29      0.00
    0   10   31      4.04      0.00
    1   10   31     -0.24      0.00
    2   10   31     -1.94      0.00
    3   10   31      1.06      0.00
    4   10   31     -2.43      0.00
    5   10   31     -0.76      0.00
    6   10   31      0.50      0.00
    7   10   31     -0.13      0.00
    8   10   31      0.15      0.00
    1   11   31     -2.73      0.00
    2   11   31      0.57      0.00
    3   11   31     -1.92      0.00
    4   11   31     -1.90      0.00
    5   11   31      3.16      0.00
    6   11   31      1.35      0.00
    7   11   31      0.00      0.00
    0   12   31     -1.09      0.00
    1   12   31      0.97      0.00
    2   12   31     -1.09      0.00
    3   12   31     -1.70      0.00
    4   12   31      4.73      0.00
    5   12   31      1.49      0.00
    1   13   31     -0.58      0.00
    2   13   31     -2.48      0.00
    0    0   32      2.23      0.00
    1    1   32     -1.73      0.00
    0    2   32     -1.27      0.00
    1    2   32     -0.09      0.00
    2    2   32      0.02      0.00
    1    3   32     -0.23      0.00
    2    3   32     -0.28      0.00
    3    3   32      0.81      0.00
    0    4   32     -1.09      0.00
    1    4   32     -0.55      0.00
    2    4   32      0.61      0.00
    3    4   32      0.57      0.00
    4    4   32      1.14      0.00
    1    5   32      0.82      0.00
    2    5   32      0.51      0.00
    3    5   32      1.60      0.00
    4    5   32     -0.18      0.00
    5    5   32     -0.11      0.00
    0    6   32      0.90      0.00
    1    6   32     -0.64      0.00
    2    6   32      1.04      0.00
    3    6   32      0.70      0.00
    4    6   32     -0.83      0.00
    5    6   32      0.08      0.00
    6    6   32     -2.77      0.00
    1    7   32     -0.25      0.00
    2    7   32      2.15      0.00
    3    7   32     -0.43      0.00
    4    7   32     -0.49      0.00
    5    7   32     -1.92      0.00
    6    7   32     -0.08      0.00
    7    7   32      0.18      0.00
    0    8   32     -0.25      0.00
    1    8   32      1.70      0.00
    2    8   32      0.81      0.00
    3    8   32     -1.23      0.00
    4    8   32     -1.12      0.00
    5    8   32     -0.13      0.00
    6    8   32      0.41      0.00
    7    8   32     -0.30      0.00
    8    8   32      2.40      0.00
    1    9   32      0.07      0.00
    2    9   32     -1.22      0.00
    3    9   32     -0.73      0.00
    4    9   32     -0.28      0.00
    5    9   32      0.15      0.00
    6    9   32     -0.31      0.00
    7    9   32      0.71      0.00
    8    9   32      0.80      0.00
    0   10   32     -0.82      0.00
    1   10   32     -0.74      0.00
    2   10   32      0.21      0.00
    3   10   32     -0.10      0.00
    4   10   32     -0.61      0.00
    5   10   32      0.31      0.00
    6   10   32     -0.52      0.00
    7   10   32      0.95      0.00
    1   11   32      0.32      0.00
    2   11   32      0.41      0.00
    3   11   32     -0.19      0.00
    4   11   32      0.18      0.00
    5   11   32      0.08      0.00
    6   11   32     -0.21      0.00
    0   12   32     -0.40      0.00
    1   12   32      0.17      0.00
    2   12   32      1.06      0.00
    3   12   32     -0.57      0.00
    4   12   32     -0.51      0.00
    0    2   33     -0.31      0.00
    1    2   33      1.85      0.00
    1    3   33      0.30      0.00
    2    3   33     -1.19      0.00
    0    4   33      0.02      0.00
    1    4   33      0.25      0.00
    2    4   33      0.01      0.00
    3    4   33     -0.26      0.00
    1    5   33      0.55      0.00
    2    5   33     -1.53      0.00
    3    5   33     -0.42      0.00
    4    5   33      0.30      0.00
    0    6   33      0.93      0.00
    1    6   33     -1.94      0.00
    2    6   33     -0.60      0.00
    3    6   33      1.16      0.00
    4    6   33      0.42      0.00
    5    6   33      1.72      0.00
    1    7   33     -0.51      0.00
    2    7   33      2.13      0.00
    3    7   33     -0.38      0.00
    4    7   33      1.22      0.00
    5    7   33     -1.01      0.00
    6    7   33     -1.73      0.00
    0    8   33     -0.58      0.00
    1    8   33      1.19      0.00
    2    8   33     -0.51      0.00
    3    8   33     -0.07      0.00
    4    8   33      0.44      0.00
    5    8   33     -1.61      0.00
    6    8   33      2.72      0.00
    7    8   33      0.76      0.00
    1    9   33      0.55      0.00
    2    9   33     -0.48      0.00
    3    9   33      0.67      0.00
    4    9   33     -0.55      0.00
    5    9   33      1.54      0.00
    6    9   33      1.13      0.00
    7    9   33     -2.90      0.00
    8    9   33     -2.38      0.00
    0   10   33      0.16      0.00
    1   10   33      0.07      0.00
    2   10   33     -0.55      0.00
    3   10   33      0.31      0.00
    4   10   33      0.64      0.00
    5   10   33      0.42      0.00
    6   10   33     -2.20      0.00
    1   11   33      1.17      0.00
    2   11   33     -0.45      0.00
    3   11   33      0.96      0.00
    4   11   33     -0.49      0.00
    0   12   33      3.68      0.00
    1   12   33     -0.85      0.00
    0    0   34     -0.87      0.00
    1    1   34      0.03      0.00
    0    2   34     -0.31      0.00
    1    2   34      0.00      0.00
    2    2   34     -0.35      0.00
    1    3   34     -0.36      0.00
    2    3   34     -0.04      0.00
    3    3   34      1.05      0.00
    0    4   34     -0.87      0.00
    1    4   34     -0.09      0.00
    2    4   34      0.91      0.00
    3    4   34      0.17      0.00
    4    4   34     -0.24      0.00
    1    5   34      1.04      0.00
    2    5   34      0.47      0.00
    3    5   34      0.20      0.00
    4    5   34     -0.17      0.00
    5    5   34     -0.33      0.00
    0    6   34      1.71      0.00
    1    6   34      0.21      0.00
    2    6   34     -0.03      0.00
    3    6   34     -0.64      0.00
    4    6   34     -1.16      0.00
    5    6   34     -0.12      0.00
    6    6   34     -0.96      0.00
    1    7   34     -1.64      0.00
    2    7   34     -0.09      0.00
    3    7   34     -1.10      0.00
    4    7   34      0.07      0.00
    5    7   34      0.09      0.00
    6    7   34     -0.08      0.00
    7    7   34      2.77      0.00
    0    8   34     -1.64      0.00
    1    8   34      1.11      0.00
    2    8   34      0.44      0.00
    3    8   34     -0.54      0.00
    4    8   34      0.59      0.00
    5    8   34     -0.19      0.00
    6    8   34      1.82      0.00
    7    8   34      0.37      0.00
    1    9   34      0.00      0.00
    2    9   34     -2.50      0.00
    3    9   34     -0.20      0.00
    4    9   34      0.25      0.00
    5    9   34      0.74      0.00
    6    9   34      0.56      0.00
    0   10   34     -1.15      0.00
    1   10   34     -2.41      0.00
    2   10   34     -0.21      0.00
    3   10   34      1.74      0.00
    4   10   34      0.30      0.00
    5   10   34      0.43      0.00
    1   11   34     -0.13      0.00
    2   11   34      2.08      0.00
    0    2   35     -0.09      0.00
    1    2   35     -0.04      0.00
    1    3   35     -0.32      0.00
    2    3   35     -0.57      0.00
    0    4   35     -1.65      0.00
    1    4   35      0.00      0.00
    2    4   35      0.47      0.00
    3    4   35      0.26      0.00
    1    5   35      2.28      0.00
    2    5   35     -0.42      0.00
    3    5   35     -0.63      0.00
    4    5   35      0.65      0.00
    0    6   35      2.59      0.00
    1    6   35     -0.85      0.00
    2    6   35     -2.52      0.00
    3    6   35      0.76      0.00
    4    6   35      0.70      0.00
    5    6   35     -1.19      0.00
    1    7   35     -1.91      0.00
    2    7   35      1.02      0.00
    3    7   35      2.56      0.00
    4    7   35     -0.84      0.00
    5    7   35     -0.49      0.00
    6    7   35      0.16      0.00
    0    8   35      0.29      0.00
    1    8   35      0.62      0.00
    2    8   35      2.29      0.00
    3    8   35      0.22      0.00
    4    8   35     -2.08      0.00
    5    8   35      0.12      0.00
    6    8   35      0.43      0.00
    1    9   35     -0.03      0.00
    2    9   35      1.23      0.00
    3    9   35     -2.74      0.00
    4    9   35     -1.65      0.00
    5    9   35      1.47      0.00
    0   10   35     -0.68      0.00
    1   10   35      1.14      0.00
    2   10   35     -1.29      0.00
    3   10   35     -3.27      0.00
    0    0   36     -2.13      0.00
    1    1   36      1.36      0.00
    0    2   36      0.61      0.00
    1    2   36     -0.10      0.00
    2    2   36      0.33      0.00
    1    3   36      0.89      0.00
    2    3   36      0.36      0.00
    3    3   36      0.70      0.00
    0    4   36      1.99      0.00
    1    4   36      0.66      0.00
    2    4   36      0.21      0.00
    3    4   36     -0.27      0.00
    4    4   36     -2.66      0.00
    1    5   36     -0.99      0.00
    2    5   36     -0.48      0.00
    3    5   36     -2.26      0.00
    4    5   36      0.04      0.00
    5    5   36      1.19      0.00
    0    6   36     -1.04      0.00
    1    6   36     -0.22      0.00
    2    6   36     -1.02      0.00
    3    6   36     -0.35      0.00
    4    6   36      1.03      0.00
    5    6   36     -0.31      0.00
    6    6   36     -0.01      0.00
    1    7   36     -0.18      0.00
    2    7   36     -0.50      0.00
    3    7   36      0.31      0.00
    4    7   36     -0.11      0.00
    5    7   36      0.35      0.00
    6    7   36      0.37      0.00
    0    8   36     -0.48      0.00
    1    8   36     -0.17      0.00
    2    8   36     -0.17      0.00
    3    8   36      0.23      0.00
    4    8   36      1.43      0.00
    5    8   36      0.77      0.00
    1    9   36     -0.05      0.00
    2    9   36      0.29      0.00
    3    9   36      1.81      0.00
    0    2   37      0.26      0.00
    1    2   37     -1.25      0.00
    1    3   37     -0.22      0.00
    2    3   37      1.31      0.00
    0    4   37     -0.63      0.00
    1    4   37      0.33      0.00
    2    4   37     -0.09      0.00
    3    4   37      0.23      0.00
    1    5   37      0.53      0.00
    2    5   37      1.00      0.00
    3    5   37      0.58      0.00
    4    5   37      0.17      0.00
    0    6   37      0.30      0.00
    1    6   37      1.11      0.00
    2    6   37     -0.06      0.00
    3    6   37     -0.94      0.00
    4    6   37     -1.05      0.00
    5    6   37     -1.03      0.00
    1    7   37      0.20      0.00
    2    7   37     -1.64      0.00
    3    7   37     -0.18      0.00
    4    7   37     -0.40      0.00
    0    8   37      0.49      0.00
    1    8   37     -0.66      0.00
    2    8   37      0.22      0.00
    3    8   37      0.87      0.00
    0    0   38     -2.17      0.00
    1    1   38      1.50      0.00
    0    2   38      0.94      0.00
    1    2   38     -0.08      0.00
    2    2   38     -0.05      0.00
    1    3   38      0.30      0.00
    2    3   38     -0.04      0.00
    3    3   38     -0.54      0.00
    0    4   38      1.16      0.00
    1    4   38      0.19      0.00
    2    4   38     -0.66      0.00
    3    4   38      0.34      0.00
    4    4   38     -0.22      0.00
    1    5   38     -1.36      0.00
    2    5   38     -0.18      0.00
    3    5   38     -0.35      0.00
    4    5   38     -0.36      0.00
    5    5   38      0.34      0.00
    0    6   38     -2.04      0.00
    1    6   38     -0.68      0.00
    2    6   38      0.10      0.00
    3    6   38     -0.08      0.00
    4    6   38      0.63      0.00
    1    7   38      1.31      0.00
    2    7   38      0.08      0.00
    0    2   39      1.62      0.00
    1    2   39     -0.64      0.00
    1    3   39     -2.40      0.00
    2    3   39      0.41      0.00
    0    4   39     -2.93      0.00
    1    4   39      0.27      0.00
    2    4   39      2.37      0.00
    3    4   39      0.71      0.00
    1    5   39      2.38      0.00
    2    5   39      0.68      0.00
    3    5   39     -1.45      0.00
    0    0   40      1.75      0.00
    1    1   40     -0.50      0.00
    0    2   40      0.49      0.00
    1    2   40     -0.23      0.00
    2    2   40     -0.99      0.00
    1    3   40     -1.53      0.00
    1    1    0   -277.12      0.00
    2    2    0     93.68      0.00
    3    3    0    -39.56      0.00
    0    4    0     45.88      0.00
    1    5    0    -13.73      0.00
   10   18    0     -0.37      0.00
   14   15    1      0.72      0.00
   13   16    1     -0.39      0.00
   10   18    1      2.50      0.00
    8   19    1      0.78      0.00
    5   20    1      1.63      0.00
    0    0    2     44.03      0.00
    0    4    2     31.01      0.00
    1    5    2    -13.89      0.00
    0    6    2     -3.49      0.00
    5    6    2      1.95      0.00
   14   15    2      0.05      0.00
   13   16    2     -0.26      0.00
   10   18    2      0.21      0.00
    8   19    2      1.06      0.00
    5   20    2     -2.14      0.00
   14   15    3      0.42      0.00
   13   16    3      0.07      0.00
   10   18    3     -1.62      0.00
    8   19    3      0.05      0.00
    5   20    3     -0.01      0.00
    0    0    4   -136.51      0.00
    2    2    4    -68.91      0.00
    2    3    4      6.79      0.00
    3    3    4     14.17      0.00
    2    4    4    -15.39      0.00
    1    7    4      4.30      0.00
   14   15    4     -0.23      0.00
   13   16    4      0.57      0.00
   10   18    4      2.24      0.00
    8   19    4      1.27      0.00
    5   20    4     -2.34      0.00
    1    2    5    -29.78      0.00
    2    3    5     30.43      0.00
   14   15    5     -0.61      0.00
   10   18    5     -3.60      0.00
    4   20    5     -1.12      0.00
   14   15    6      1.40      0.00
    4   20    6      1.58      0.00
   11   17    7      0.20      0.00
    7   19    7     -0.55      0.00
    3   20    7     -2.98      0.00
    4   20    7     -0.72      0.00
    0    0    8     55.94      0.00
   11   17    8      0.09      0.00
    9   18    8      1.05      0.00
    7   19    8     -0.87      0.00
    3   20    8      0.15      0.00
   11   17    9      0.37      0.00
    9   18    9      2.52      0.00
    7   19    9      1.22      0.00
    1   20    9      0.14      0.00
    2   20    9      1.26      0.00
    3   20    9     -0.70      0.00
   12   16   10      0.38      0.00
    9   18   10     -0.52      0.00
    6   19   10      0.73      0.00
    0   20   10     -0.77      0.00
    1   20   10     -0.56      0.00
    2   20   10      2.52      0.00
   13   15   11     -0.58      0.00
   12   16   11      0.68      0.00
    6   19   11     -0.29      0.00
    0   20   11      2.50      0.00
   14   14   12      0.43      0.00
   13   15   12      0.58      0.00
   10   17   12     -3.38      0.00
    8   18   12     -1.07      0.00
    5   19   12     -0.48      0.00
    5   19   13      0.60      0.00
    1    4   14      2.63      0.00
   11   16   14     -2.98      0.00
    7   18   14      0.11      0.00
    4   19   14     -1.81      0.00
   13   14   15      2.66      0.00
   12   15   15      1.24      0.00
    9   17   15      0.90      0.00
    7   18   15     -1.93      0.00
    2   19   15      1.41      0.00
    3   19   15      0.27      0.00
   13   14   16      0.00      0.00
   10   16   16     -1.03      0.00
    6   18   16      0.38      0.00
    1   19   16     -1.50      0.00
    2   19   16      0.46      0.00
   10   16   17     -0.84      0.00
    8   17   17     -0.54      0.00
    5   18   17     -0.18      0.00
   13   13   18     -2.01      0.00
   12   14   18     -1.14      0.00
   11   15   18     -0.23      0.00
    7   17   18     -1.36      0.00
    4   18   18     -0.85      0.00
    9   16   19      0.14      0.00
    7   17   19      0.24      0.00
    3   18   19     -1.25      0.00
   10   15   20      0.13      0.00
    8   16   20     -0.88      0.00
    6   17   20      0.26      0.00
    0   18   20     -0.97      0.00
    1   18   20     -0.60      0.00
    2   18   20     -0.62      0.00
   12   13   21      1.42      0.00
   11   14   21      0.32      0.00
    5   17   21     -1.17      0.00
    9   15   22     -0.66      0.00
    7   16   22     -0.39      0.00
    3   17   22      0.21      0.00
    4   17   22      0.62      0.00
   11   13   23     -0.59      0.00
    8   15   23      0.98      0.00
    6   16   23      1.36      0.00
    1   17   23      1.34      0.00
    2   17   23      0.49      0.00
    9   14   24     -0.82      0.00
    7   15   24      0.95      0.00
    5   16   24      2.50      0.00
   11   12   25      1.96      0.00
   10   13   25      1.24      0.00
    6   15   25      0.88      0.00
    3   16   25      1.03      0.00
    5   15   26      0.58      0.00
    0   16   26      1.43      0.00
    1   16   26      0.92      0.00
   10   12   27      0.52      0.00
    4   15   27      0.33      0.00
    9   12   28     -1.59      0.00
    1   15   28      1.49      0.00
    2   15   28      0.83      0.00
    4   14   29     -0.53      0.00
   10   10   30     -1.61      0.00
    5   13   30      1.23      0.00
    0   14   30      1.80      0.00
    1   14   30     -0.65      0.00
    2   14   30     -0.79      0.00
    9   10   31     -0.89      0.00
    6   12   31     -1.08      0.00
    3   13   31      3.47      0.00
    9    9   32     -1.76      0.00
    8   10   32      0.19      0.00
    7   10   33     -2.29      0.00
    5   11   33     -1.11      0.00
    2   12   33     -0.80      0.00
    8    8   34     -0.17      0.00
    7    9   34     -0.06      0.00
    3   11   34      0.67      0.00
    7    8   35      0.34      0.00
    4   10   35      2.09      0.00
    7    7   36      0.71      0.00
    4    9   36      0.74      0.00
    5    7   37      1.24      0.00
    3    7   38      0.61      0.00
    0    6   39      2.02      0.00
    1    6   39      0.64      0.00
    2    6   39     -1.06      0.00
    2    3   40      0.38      0.00
    3    3   40     -0.05      0.00
    0    4   40     -2.12      0.00
    1    4   40      0.39      0.00
    2    4   40      0.25      0.00
    0    0    0      0.00      0.00
# SQUEEZE RESULTS (Version = 150216)
# Note: Data are Listed for all Voids in the P1 Unit Cell
# i.e. Centre of Gravity, Solvent Accessible Volume,
# Recovered number of Electrons in the Void and
# Details about the Squeezed Material
loop_
  _platon_squeeze_void_nr
  _platon_squeeze_void_average_x
  _platon_squeeze_void_average_y
  _platon_squeeze_void_average_z
  _platon_squeeze_void_volume
  _platon_squeeze_void_count_electrons
  _platon_squeeze_void_content
   1  0.250  0.250  0.062      1063       136 ' '
   2  0.750  0.750  0.062      1063       136 ' '
# Missing Reflections Below sin(th)/lambda = 0.25
loop_
  _platon_missing_refln_index_h
  _platon_missing_refln_index_k
  _platon_missing_refln_index_l
  _platon_missing_refln_theta
    1    1    0     1.825
    2    2    0     3.651
    3    3    0     5.481
    0    4    0     5.167
    1    5    0     6.592
    0    0    2     1.308
    0    4    2     5.331
    1    5    2     6.722
    0    6    2     7.874
    5    6    2    10.213
    0    0    4     2.616
    2    2    4     4.494
    2    3    4     5.344
    3    3    4     6.077
    2    4    4     6.347
    1    7    4     9.533
    1    2    5     4.364
    2    3    5     5.694
    0    0    8     5.237
_platon_squeeze_void_probe_radius                  1.20
_platon_squeeze_details
)
TITL save      P 42/n b c   R = 0.09
CELL   15.7840   15.7840   31.1440     90.00     90.00     90.00
SPGR P42/nbc
# Solvent Accessible Volume =      2127
# Electrons Found in S.A.V. =       270
# Note: Atoms in Void as Cxxx and Qxxx all others
Q101 0.155 0.165 0.148 !       1.11 eA-3
C102 0.749 0.249 0.501 !       1.09 eA-3
C103 0.532 0.764 0.007 !       1.07 eA-3
C104 0.468 0.236 0.993 !       1.07 eA-3
C105 0.218 0.340 0.354 !       0.98 eA-3
Q106 0.881 0.864 0.089 !       0.97 eA-3
C107 0.211 0.203 0.389 !       0.97 eA-3
C108 0.158 0.317 0.135 !       0.95 eA-3
C109 0.751 0.750 0.250 !       0.92 eA-3
C110 0.784 0.639 0.399 !       0.90 eA-3
Q111 0.384 0.388 0.358 !       0.89 eA-3
C112 0.304 0.279 0.864 !       0.89 eA-3
Q113 0.260 1.003 0.250 !       0.88 eA-3
C114 0.666 0.767 0.400 !       0.88 eA-3
C115 0.311 0.321 0.123 !       0.87 eA-3
C116 0.706 0.714 0.155 !       0.86 eA-3
Q117 0.248 0.750 0.249 !       0.85 eA-3
C118 0.817 0.730 0.878 !       0.84 eA-3
Q119 0.468 0.279 0.257 !       0.84 eA-3
C120 0.807 0.830 0.390 !       0.82 eA-3
C121 0.332 0.215 0.375 !       0.82 eA-3
Q122 0.227 0.730 0.267 !       0.81 eA-3
C123 0.793 0.645 0.368 !       0.81 eA-3
C124 0.205 0.241 0.383 !       0.80 eA-3
C125 0.336 0.150 0.154 !       0.80 eA-3
C126 0.781 0.754 0.414 !       0.79 eA-3
C127 0.239 0.204 0.337 !       0.79 eA-3
C128 0.765 0.794 0.409 !       0.78 eA-3
C129 0.249 0.285 0.914 !       0.78 eA-3
C130 0.227 0.237 0.327 !       0.77 eA-3
Q131 0.529 0.579 0.106 !       0.77 eA-3
Q132 0.361 0.593 0.126 !       0.77 eA-3
Q133 0.456 0.453 0.252 !       0.74 eA-3
C134 0.297 0.116 0.150 !       0.74 eA-3
Q135 0.668 0.372 0.132 !       0.74 eA-3
C136 0.292 0.268 0.016 !       0.74 eA-3
C137 0.251 0.282-0.003 !       0.73 eA-3
Q138 0.719 0.504 0.487 !       0.73 eA-3
Q139 0.691 0.505 0.232 !       0.72 eA-3
Q140 0.110 0.670 0.349 !       0.72 eA-3
Q141 0.512 0.688 0.241 !       0.71 eA-3
Q142 0.814 0.377 0.102 !       0.71 eA-3
Q143 0.186 0.623 0.898 !       0.71 eA-3
Q144 0.437 0.905 0.372 !       0.70 eA-3
Q145 0.501 0.276 0.497 !       0.70 eA-3
Q146 0.774 0.370 0.151 !       0.70 eA-3
C147 0.256 0.283 0.038 !       0.69 eA-3
Q148 0.154 0.879 0.350 !       0.69 eA-3
Q149 0.375 0.017 0.267 !       0.68 eA-3
Q150 0.867 0.111 0.361 !       0.67 eA-3
C151 0.309 0.127 0.116 !       0.67 eA-3
Q152 0.400 0.097 0.096 !       0.67 eA-3
C153 0.250 0.252 0.453 !       0.67 eA-3
C154 0.742 0.780 0.434 !       0.66 eA-3
Q155 1.007 0.186 0.018 !       0.66 eA-3
Q156 0.993 0.814 0.982 !       0.66 eA-3
Q157 0.512 0.967 0.007 !       0.66 eA-3
Q158 0.520 0.967 0.267 !       0.66 eA-3
Q159 0.095 0.014 0.234 !       0.65 eA-3
Q160 0.905 0.986 0.766 !       0.65 eA-3
Q161 0.491 0.173 0.997 !       0.64 eA-3
Q162 0.122 0.940 0.358 !       0.64 eA-3
Q163 0.610 0.373 0.128 !       0.63 eA-3
C164 0.766 0.762 0.279 !       0.63 eA-3
Q165 0.360 0.780 0.158 !       0.62 eA-3
C166 0.360 0.342 0.406 !       0.62 eA-3
Q167 0.066 0.470 0.106 !       0.62 eA-3
Q168 0.043 0.596 0.093 !       0.61 eA-3
Q169 0.089 0.577 0.119 !       0.61 eA-3
C170 0.234 0.393 0.358 !       0.60 eA-3
Q171 0.141 0.884 0.401 !       0.60 eA-3
Q172 0.079 0.895 0.118 !       0.60 eA-3
Q173 0.285 0.450 0.278 !       0.60 eA-3
Q174 0.031 0.787 0.227 !       0.59 eA-3
Q175 0.997 0.469 0.257 !       0.59 eA-3
Q176 0.375 0.576 0.153 !       0.58 eA-3
Q177 0.281 0.610 0.361 !       0.58 eA-3
Q178 0.856 0.153 0.368 !       0.58 eA-3
C179 0.632 0.605 0.363 !       0.58 eA-3
C180 0.113 0.136 0.856 !       0.58 eA-3
Q181 0.347 0.468 0.248 !       0.57 eA-3
Q182 0.881 0.468 0.390 !       0.57 eA-3
Q183 0.376 0.803 0.120 !       0.56 eA-3
Q184 0.507 0.744 0.281 !       0.55 eA-3
Q185 0.157 0.468 0.998 !       0.55 eA-3
Q186 0.843 0.532 0.002 !       0.55 eA-3
C187 0.844 0.706 0.066 !       0.55 eA-3
Q188 0.241 0.981 0.037 !       0.54 eA-3
Q189 0.331 0.420 0.138 !       0.54 eA-3
Q190 0.997 0.063 0.033 !       0.54 eA-3
Q191 0.269 0.150 0.164 !       0.53 eA-3
Q192 0.089 0.878 0.362 !       0.53 eA-3
Q193 0.648 0.170 0.095 !       0.53 eA-3
Q194 0.388 0.033 0.754 !       0.53 eA-3
Q195 0.930 0.410 0.140 !       0.53 eA-3
Q196 0.988 0.409 0.213 !       0.53 eA-3
C197 0.721 0.714 0.199 !       0.52 eA-3
Q198 0.595 0.434 0.401 !       0.52 eA-3
Q199 0.773 0.041 0.012 !       0.51 eA-3
)
;
_shelx_fab_checksum              3810
loop_
_space_group_symop_operation_xyz
'x, y, z'
'-x+1/2, -y+1/2, z'
'-y+1/2, x, z+1/2'
'y, -x+1/2, z+1/2'
'-x+1/2, y, -z'
'x, -y+1/2, -z'
'y, x, -z+1/2'
'-y+1/2, -x+1/2, -z+1/2'
'-x, -y, -z'
'x-1/2, y-1/2, -z'
'y-1/2, -x, -z-1/2'
'-y, x-1/2, -z-1/2'
'x-1/2, -y, z'
'-x, y-1/2, z'
'-y, -x, z-1/2'
'y-1/2, x-1/2, z-1/2'
loop_
_atom_site_label
_atom_site_type_symbol
_atom_site_fract_x
_atom_site_fract_y
_atom_site_fract_z
_atom_site_U_iso_or_equiv
_atom_site_adp_type
_atom_site_occupancy
_atom_site_site_symmetry_order
_atom_site_calc_flag
_atom_site_refinement_flags_posn
_atom_site_refinement_flags_adp
_atom_site_refinement_flags_occupancy
Ag1 Ag 0.49788(5) 0.49715(5) 0.37881(3) 0.1100(5) Uani 1 1 d . . .
N2 N 0.4767(4) 0.6154(3) 0.49968(16) 0.0607(13) Uani 1 1 d . . .
N4 N 0.3696(4) 0.9772(4) 0.76100(16) 0.0716(17) Uani 1 1 d . . .
C11 C 0.2876(3) 0.8166(3) 0.65875(14) 0.0443(12) Uani 1 1 d . . .
C3 C 0.3983(4) 0.7378(3) 0.59488(15) 0.0470(13) Uani 1 1 d . . .
H3A H 0.4190 0.7780 0.6140 0.056 Uiso 1 1 calc R U .
C2 C 0.3162(3) 0.7119(3) 0.59814(12) 0.0360(11) Uani 1 1 d . . .
C12 C 0.2615(4) 0.9003(3) 0.66171(16) 0.0506(14) Uani 1 1 d . . .
H12A H 0.2229 0.9206 0.6417 0.061 Uiso 1 1 calc R U .
C7 C 0.2906(4) 0.6473(4) 0.57032(15) 0.0536(14) Uani 1 1 d . . .
H7A H 0.2364 0.6247 0.5730 0.064 Uiso 1 1 calc R U .
C4 C 0.4515(4) 0.7054(4) 0.56351(18) 0.0566(15) Uani 1 1 d . . .
H4A H 0.5074 0.7237 0.5621 0.068 Uiso 1 1 calc R U .
C16 C 0.3488(4) 0.7892(4) 0.68872(12) 0.0515(15) Uani 1 1 d . . .
H16A H 0.3698 0.7342 0.6872 0.062 Uiso 1 1 calc R U .
C5 C 0.4224(4) 0.6462(3) 0.53438(13) 0.0450(13) Uani 1 1 d . . .
C13 C 0.2908(4) 0.9554(4) 0.69341(17) 0.0636(17) Uani 1 1 d . . .
H13A H 0.2722 1.0113 0.6947 0.076 Uiso 1 1 calc R U .
C8 C 0.4479(5) 0.5737(4) 0.4658(2) 0.068(2) Uani 1 1 d . . .
H8A H 0.3921 0.5561 0.4621 0.081 Uiso 1 1 calc R U .
C14 C 0.3499(4) 0.9234(4) 0.72372(16) 0.0592(16) Uani 1 1 d . . .
C1 C 0.2500 0.7500 0.62869(18) 0.0400(18) Uani 1 2 d S T P
N3 N 0.4264(5) 1.0105(5) 0.82257(16) 0.088(2) Uani 1 1 d . . .
C19 C 0.4291(5) 0.9586(5) 0.7887(2) 0.078(2) Uani 1 1 d . . .
H19A H 0.4682 0.9151 0.7852 0.093 Uiso 1 1 calc R U .
N1 N 0.5100(5) 0.5608(5) 0.4379(2) 0.089(2) Uani 1 1 d . . .
C6 C 0.3437(4) 0.6163(4) 0.53901(17) 0.0606(16) Uani 1 1 d . . .
H6A H 0.3245 0.5738 0.5207 0.073 Uiso 1 1 calc R U .
C9 C 0.5572(5) 0.6314(4) 0.4955(2) 0.079(2) Uani 1 1 d . . .
H9A H 0.5928 0.6599 0.5144 0.095 Uiso 1 1 calc R U .
C15 C 0.3778(5) 0.8439(4) 0.72048(16) 0.0635(18) Uani 1 1 d . . .
H15A H 0.4180 0.8245 0.7400 0.076 Uiso 1 1 calc R U .
C10 C 0.5778(6) 0.5950(6) 0.4550(3) 0.098(3) Uani 1 1 d . . .
H10A H 0.6313 0.5954 0.4425 0.118 Uiso 1 1 calc R U .
C18 C 0.3622(8) 1.0640(6) 0.8144(2) 0.116(4) Uani 1 1 d . . .
H18A H 0.3470 1.1092 0.8320 0.139 Uiso 1 1 calc R U .
C17 C 0.3209(7) 1.0424(5) 0.7756(2) 0.096(3) Uani 1 1 d . . .
H17A H 0.2730 1.0665 0.7632 0.115 Uiso 1 1 calc R U .
loop_
_atom_site_aniso_label
_atom_site_aniso_U_11
_atom_site_aniso_U_22
_atom_site_aniso_U_33
_atom_site_aniso_U_23
_atom_site_aniso_U_13
_atom_site_aniso_U_12
Ag1 0.1664(10) 0.1111(7) 0.0524(5) 0.0073(3) 0.0347(4) 0.0775(7)
N2 0.082(4) 0.051(3) 0.050(2) 0.015(2) 0.013(3) 0.017(3)
N4 0.106(5) 0.066(4) 0.043(2) -0.004(3) 0.001(3) -0.035(3)
C11 0.050(3) 0.050(3) 0.033(2) 0.004(2) 0.005(2) -0.010(3)
C3 0.066(4) 0.041(3) 0.034(2) 0.001(2) -0.001(2) 0.001(3)
C2 0.039(3) 0.050(3) 0.0189(17) 0.0009(18) -0.0012(17) -0.001(2)
C12 0.069(4) 0.035(3) 0.048(3) -0.001(2) 0.003(3) 0.007(3)
C7 0.044(3) 0.065(4) 0.052(3) -0.017(3) -0.001(3) 0.006(3)
C4 0.060(4) 0.048(3) 0.062(3) 0.016(3) 0.016(3) -0.003(3)
C16 0.084(4) 0.044(3) 0.027(2) 0.000(2) -0.012(2) -0.002(3)
C5 0.060(4) 0.047(3) 0.028(2) 0.004(2) 0.007(2) 0.010(3)
C13 0.083(5) 0.056(4) 0.052(3) -0.009(3) -0.002(3) -0.019(3)
C8 0.092(5) 0.063(4) 0.048(3) 0.016(3) 0.025(3) 0.027(4)
C14 0.083(4) 0.054(4) 0.041(3) -0.010(3) 0.006(3) -0.020(3)
C1 0.037(4) 0.057(5) 0.026(3) 0.000 0.000 0.010(4)
N3 0.124(6) 0.096(5) 0.043(3) -0.015(3) 0.000(4) -0.060(4)
C19 0.098(6) 0.083(5) 0.052(4) -0.012(3) 0.005(4) -0.043(4)
N1 0.111(6) 0.085(5) 0.071(4) 0.014(4) 0.047(4) 0.041(4)
C6 0.070(4) 0.070(4) 0.042(3) -0.021(3) -0.002(3) 0.012(3)
C9 0.083(5) 0.060(4) 0.093(5) 0.010(4) 0.009(4) 0.040(4)
C15 0.094(5) 0.063(4) 0.034(3) -0.001(3) -0.015(3) -0.009(4)
C10 0.083(6) 0.101(6) 0.110(7) 0.013(5) 0.052(5) 0.051(5)
C18 0.204(12) 0.093(7) 0.052(4) -0.021(4) -0.016(6) -0.030(7)
C17 0.164(8) 0.064(5) 0.058(4) -0.017(4) -0.008(4) -0.009(5)
loop_
_atom_type_symbol
_atom_type_description
_atom_type_scat_dispersion_real
_atom_type_scat_dispersion_imag
_atom_type_scat_source
C C 0.0033 0.0016 'International Tables Vol C Tables 4.2.6.8 and 6.1.1.4'
H H 0.0000 0.0000 'International Tables Vol C Tables 4.2.6.8 and 6.1.1.4'
N N 0.0061 0.0033 'International Tables Vol C Tables 4.2.6.8 and 6.1.1.4'
Ag Ag -0.8971 1.1015 'International Tables Vol C Tables 4.2.6.8 and 6.1.1.4'
loop_
_geom_angle_atom_site_label_1
_geom_angle_atom_site_label_2
_geom_angle_atom_site_label_3
_geom_angle
_geom_angle_site_symmetry_1
_geom_angle_site_symmetry_3
N3 Ag1 N1 175.8(2) 3_654 .
C9 N2 C8 110.6(6) . .
C9 N2 C5 125.6(6) . .
C8 N2 C5 123.5(6) . .
C19 N4 C17 110.8(6) . .
C19 N4 C14 122.9(6) . .
C17 N4 C14 125.4(6) . .
C12 C11 C16 116.8(5) . .
C12 C11 C1 125.6(4) . .
C16 C11 C1 117.4(4) . .
C2 C3 C4 121.2(5) . .
C3 C2 C7 116.6(5) . .
C3 C2 C1 125.1(4) . .
C7 C2 C1 118.3(4) . .
C13 C12 C11 122.9(5) . .
C6 C7 C2 121.5(5) . .
C3 C4 C5 120.7(5) . .
C15 C16 C11 120.4(5) . .
C6 C5 C4 118.5(5) . .
C6 C5 N2 120.5(5) . .
C4 C5 N2 121.0(5) . .
C12 C13 C14 117.8(6) . .
N2 C8 N1 110.2(7) . .
C15 C14 C13 120.2(5) . .
C15 C14 N4 122.2(6) . .
C13 C14 N4 117.3(6) . .
C11 C1 C11 104.4(5) 2_565 .
C11 C1 C2 112.0(3) 2_565 .
C11 C1 C2 112.7(2) . .
C11 C1 C2 112.7(2) 2_565 2_565
C11 C1 C2 112.0(3) . 2_565
C2 C1 C2 103.4(4) . 2_565
C19 N3 C18 105.1(7) . .
C19 N3 Ag1 127.5(7) . 4_565
C18 N3 Ag1 127.1(5) . 4_565
N4 C19 N3 111.1(8) . .
C10 N1 C8 105.9(7) . .
C10 N1 Ag1 128.7(5) . .
C8 N1 Ag1 125.4(7) . .
C5 C6 C7 121.2(5) . .
N2 C9 C10 103.5(7) . .
C14 C15 C16 121.9(6) . .
N1 C10 C9 109.9(7) . .
N3 C18 C17 110.9(8) . .
N4 C17 C18 101.9(9) . .
loop_
_geom_bond_atom_site_label_1
_geom_bond_atom_site_label_2
_geom_bond_distance
_geom_bond_site_symmetry_2
Ag1 N3 2.081(7) 3_654
Ag1 N1 2.104(7) .
N2 C9 1.301(9) .
N2 C8 1.325(8) .
N2 C5 1.463(7) .
N4 C19 1.308(9) .
N4 C17 1.364(10) .
N4 C14 1.472(7) .
C11 C12 1.387(7) .
C11 C16 1.411(7) .
C11 C1 1.527(6) .
C3 C2 1.363(7) .
C3 C4 1.386(8) .
C2 C7 1.397(7) .
C2 C1 1.536(6) .
C12 C13 1.394(7) .
C7 C6 1.376(7) .
C4 C5 1.382(8) .
C16 C15 1.391(7) .
C5 C6 1.335(8) .
C13 C14 1.420(9) .
C8 N1 1.326(8) .
C14 C15 1.334(9) .
C1 C11 1.527(6) 2_565
C1 C2 1.536(6) 2_565
N3 C19 1.336(8) .
N3 C18 1.344(12) .
N3 Ag1 2.081(7) 4_565
N1 C10 1.312(12) .
C9 C10 1.424(10) .
C18 C17 1.417(10) .
