#------------------------------------------------------------------------------
#$Date: 2017-09-26 04:55:15 +0300 (Tue, 26 Sep 2017) $
#$Revision: 201288 $
#$URL: file:///home/coder/svn-repositories/cod/cif/1/54/73/1547341.cif $
#------------------------------------------------------------------------------
#
# This file is available in the Crystallography Open Database (COD),
# http://www.crystallography.net/
#
# All data on this site have been placed in the public domain by the
# contributors.
#
data_1547341
loop_
_publ_author_name
'Nam, Dongsik'
'Huh, Jihyun'
'Lee, Jiyoung'
'Kwak, Ja Hun'
'Jeong, Hu Young'
'Choi, Kyungmin'
'Choe, Wonyoung'
_publ_section_title
;
 Cross-linking Zr-based Metal-Organic Polyhedra via Postsynthetic
 Polymerization
;
_journal_name_full               'Chem. Sci.'
_journal_paper_doi               10.1039/C7SC03847J
_journal_year                    2017
_chemical_formula_sum            'C149.6 H188 Cl6 N8 O47.4 Zr12'
_chemical_formula_weight         4164.01
_chemical_name_systematic        CLMOP-1c
_space_group_crystal_system      trigonal
_space_group_IT_number           166
_space_group_name_Hall           '-R 3 2"'
_space_group_name_H-M_alt        'R -3 m :H'
_symmetry_space_group_name_Hall  '-R 3 2"'
_symmetry_space_group_name_H-M   'R -3 m :H'
_atom_sites_solution_hydrogens   geom
_audit_creation_method           SHELXL-2014/7
_audit_update_record
;
2016-11-30 deposited with the CCDC.
2017-09-25 downloaded from the CCDC.
;
_cell_angle_alpha                90
_cell_angle_beta                 90
_cell_angle_gamma                120
_cell_formula_units_Z            6
_cell_length_a                   26.221(4)
_cell_length_b                   26.221(4)
_cell_length_c                   60.059(12)
_cell_measurement_reflns_used    301451
_cell_measurement_temperature    134(2)
_cell_measurement_theta_max      24.996
_cell_measurement_theta_min      1.044
_cell_volume                     35761(11)
_computing_cell_refinement       HKL2000
_computing_data_collection       MxDC
_computing_data_reduction        HKL2000
_computing_structure_refinement  'SHELXL-2014/7 (Sheldrick, 2014)'
_computing_structure_solution    'Bruker SHELXTL-XS'
_diffrn_ambient_temperature      134(2)
_diffrn_measured_fraction_theta_full 0.999
_diffrn_measured_fraction_theta_max 0.999
_diffrn_measurement_device_type  'Rayonix Ms225-HS'
_diffrn_measurement_method       'Omega scan'
_diffrn_radiation_type           Synchrotron
_diffrn_radiation_wavelength     0.660
_diffrn_reflns_av_R_equivalents  0.1121
_diffrn_reflns_av_unetI/netI     0.0751
_diffrn_reflns_Laue_measured_fraction_full 0.999
_diffrn_reflns_Laue_measured_fraction_max 0.999
_diffrn_reflns_limit_h_max       33
_diffrn_reflns_limit_h_min       -33
_diffrn_reflns_limit_k_max       33
_diffrn_reflns_limit_k_min       -28
_diffrn_reflns_limit_l_max       44
_diffrn_reflns_limit_l_min       -76
_diffrn_reflns_number            49471
_diffrn_reflns_point_group_measured_fraction_full 0.999
_diffrn_reflns_point_group_measured_fraction_max 0.999
_diffrn_reflns_theta_full        23.328
_diffrn_reflns_theta_max         24.996
_diffrn_reflns_theta_min         1.044
_diffrn_source                   'Bending magnet'
_exptl_absorpt_coefficient_mu    2.715
_exptl_absorpt_correction_T_max  0.899
_exptl_absorpt_correction_T_min  0.876
_exptl_absorpt_correction_type   multi-scans
_exptl_absorpt_process_details   HKL2000
_exptl_crystal_colour            'pale yellow'
_exptl_crystal_density_diffrn    1.160
_exptl_crystal_density_method    'not measured'
_exptl_crystal_description       cubic
_exptl_crystal_F_000             12617
_exptl_crystal_size_max          0.050
_exptl_crystal_size_mid          0.050
_exptl_crystal_size_min          0.040
_refine_diff_density_max         0.999
_refine_diff_density_min         -0.991
_refine_diff_density_rms         0.093
_refine_ls_extinction_method     none
_refine_ls_goodness_of_fit_ref   0.874
_refine_ls_hydrogen_treatment    constr
_refine_ls_matrix_type           full
_refine_ls_number_parameters     270
_refine_ls_number_reflns         9345
_refine_ls_number_restraints     3
_refine_ls_restrained_S_all      0.874
_refine_ls_R_factor_all          0.1439
_refine_ls_R_factor_gt           0.0787
_refine_ls_shift/su_max          0.001
_refine_ls_shift/su_mean         0.000
_refine_ls_structure_factor_coef Fsqd
_refine_ls_weighting_details
'w=1/[\s^2^(Fo^2^)+(0.2000P)^2^] where P=(Fo^2^+2Fc^2^)/3'
_refine_ls_weighting_scheme      calc
_refine_ls_wR_factor_gt          0.2562
_refine_ls_wR_factor_ref         0.2949
_reflns_Friedel_coverage         0.000
_reflns_number_gt                4118
_reflns_number_total             9345
_reflns_threshold_expression     'I > 2\s(I)'
_cod_data_source_file            c7sc03847j2.cif
_cod_data_source_block           CLMOP-1c
_cod_original_cell_volume        35760(12)
_cod_original_formula_sum        'C149.60 H188 Cl6 N8 O47.40 Zr12'
_cod_database_code               1547341
_shelx_shelxl_version_number     2014/7
_shelx_space_group_comment
;
The symmetry employed for this shelxl refinement is uniquely defined
by the following loop, which should always be used as a source of
symmetry information in preference to the above space-group names.
They are only intended as comments.
;
_shelx_res_file
;

    r-3m_sq.res created by SHELXL-2014/7


TITL R-3m in R-3m
CELL 0.66000  26.2207  26.2207  60.0591  90.000  90.000 120.000
ZERR  6.00   0.0037   0.0037   0.0120   0.000   0.000   0.000
LATT 3
SYMM -Y, X-Y, Z
SYMM -X+Y, -X, Z
SYMM Y, X, -Z
SYMM X-Y, -Y, -Z
SYMM -X, -X+Y, -Z
SFAC C  H  N  O  Cl Zr
DISP C          0.0025         0.0014           9.80
DISP H          0.0000         0.0000           0.67
DISP N          0.0050         0.0028          16.36
DISP O          0.0091         0.0052          26.59
DISP Cl         0.1327         0.1378         539.52
DISP Zr        -2.2039         3.4401       12964.53
UNIT 897.6 1128.0 48 284.4 36 72
L.S. 24
BOND
FMAP 2
PLAN 10
OMIT -3 50.00
TEMP -139
SIZE 0.05 0.05 0.04
DFIX 1.35 C10C C11C
DFIX 1.43 C7C C11C
DFIX 1.38 C8C C10C
ABIN
ACTA
WGHT    0.200000
FVAR       0.06294
MOLE 1
CL2   5    0.108618    0.666667    0.166667    10.50000    0.17938    0.15193 =
         0.09853   -0.02576   -0.01288    0.07597
ZR1   6    0.709224    0.290776   -0.043776    10.50000    0.09838    0.09838 =
         0.03864    0.00204   -0.00204    0.05015
ZR2   6    0.988686    0.558109    0.108162    11.00000    0.09462    0.10909 =
         0.05598   -0.00431   -0.01290    0.04963
ZR3   6    0.951797    0.475899    0.154278    10.50000    0.09703    0.11150 =
         0.05488   -0.00313   -0.00626    0.04852
O4C   4    0.666667    0.333333   -0.031510    10.16667    0.09761    0.09761 =
         0.03894    0.00000    0.00000    0.04881
CL1   5    0.824482    0.412241    0.899755    10.50000    0.26253    0.21606 =
         0.12466    0.00820    0.01641    0.13127
O5C   4    0.744818    0.372409   -0.061035    10.50000    0.07642    0.09703 =
         0.04218    0.00187    0.00375    0.03821
AFIX  43
H5C   2    0.770544    0.385272   -0.073508    10.50000   -1.20000
AFIX   0
O1C   4    0.943966    0.471983    0.119631    10.50000    0.09076    0.10344 =
         0.05335   -0.00258   -0.00517    0.04538
O3C   4    1.043157    0.521579    0.100759    10.50000    0.08928    0.11730 =
         0.04910   -0.00162   -0.00325    0.04464
AFIX  43
H3C   2    1.082527    0.541263    0.095407    10.50000   -1.20000
AFIX   0
O4    4    0.770185    0.341753   -0.017441    11.00000    0.11311    0.11521 =
         0.04974   -0.00475   -0.01574    0.05541
O2C   4    1.008335    0.562845    0.142468    11.00000    0.09606    0.10094 =
         0.06086   -0.01176   -0.00436    0.04369
AFIX  43
H2C   2    1.036064    0.596169    0.150721    11.00000   -1.20000
AFIX   0
C8    1    0.784292    0.392146   -0.008808    10.50000    0.11011    0.11582 =
         0.03425   -0.00395   -0.00790    0.05506
O3    4    0.941375    0.513605    0.078197    11.00000    0.10040    0.12471 =
         0.05786   -0.00206   -0.01747    0.05191
O1    4    0.881379    0.384763    0.149699    11.00000    0.10332    0.10516 =
         0.07138   -0.01179   -0.00461    0.03540
O2    4    0.907211    0.552069    0.119216    11.00000    0.08287    0.12688 =
         0.08426    0.00816   -0.00028    0.05534
C9    1    0.818854    0.409427    0.012031    10.50000    0.10171    0.13658 =
         0.05435   -0.01338   -0.02676    0.05085
C7    1    0.869085    0.481181    0.040944    11.00000    0.18438    0.14968 =
         0.07110   -0.02053   -0.04550    0.10617
C4C   1    0.772673    0.276015   -0.072459    11.00000    0.11275    0.10967 =
         0.06771    0.00896    0.01760    0.05526
AFIX  43
H4C   2    0.787885    0.302348   -0.084718    11.00000   -1.20000
AFIX   0
C1    1    0.870397    0.348084    0.134744    11.00000    0.08044    0.11854 =
         0.09013    0.01807    0.00059    0.02964
C6C   1    0.762544    0.237456   -0.039483    10.50000    0.14969    0.14969 =
         0.08651   -0.00073    0.00073    0.09452
AFIX  43
H6C   2    0.768519    0.231484   -0.024324    10.50000   -1.20000
AFIX   0
C6    1    0.885512    0.442756    0.050636    10.50000    0.10438    0.14696 =
         0.05721   -0.00538   -0.01077    0.05219
C3C   1    1.003097    0.476365    0.190257    11.00000    0.11303    0.14279 =
         0.06214   -0.00614   -0.01552    0.06934
AFIX  43
H3C1  2    1.037538    0.473123    0.189349    11.00000   -1.20000
AFIX   0
C2    1    0.814039    0.293304    0.134870    11.00000    0.11067    0.10650 =
         0.09852   -0.01610   -0.01323    0.02566
C3    1    0.802095    0.249870    0.118196    11.00000    0.11686    0.12217 =
         0.11952    0.00126    0.01296    0.02524
C1C   1    0.945693    0.517384    0.191770    11.00000    0.18739    0.17470 =
         0.06452   -0.03044   -0.01192    0.12037
AFIX  43
H1C   2    0.933826    0.546158    0.192456    11.00000   -1.20000
AFIX   0
C5    1    0.925324    0.462662    0.070592    10.50000    0.10026    0.13032 =
         0.04691   -0.00495   -0.00989    0.05013
C10   1    0.833941    0.462443    0.021586    11.00000    0.15192    0.12004 =
         0.07217   -0.01353   -0.04709    0.06056
C7C   1    0.994959    0.652846    0.095419    11.00000    0.11769    0.19587 =
         0.38095    0.16788    0.04775    0.10294
AFIX  43
H7C   2    0.959429    0.654181    0.094981    11.00000   -1.20000
AFIX   0
C5C   1    0.800105    0.284824   -0.051929    11.00000    0.10771    0.10866 =
         0.13895   -0.03373   -0.00043    0.05735
AFIX  43
H5C1  2    0.837074    0.316950   -0.047529    11.00000   -1.20000
AFIX   0
C2C   1    0.908886    0.454443    0.192052    10.50000    0.10525    0.18805 =
         0.06987    0.00889    0.01778    0.05262
AFIX  43
H2C1  2    0.867058    0.433529    0.192372    10.50000   -1.20000
AFIX   0
C8C   1    1.076505    0.659191    0.107107    11.00000    0.10907    0.11475 =
         0.14301   -0.00477   -0.03859    0.05207
AFIX  43
H8C   2    1.108086    0.664946    0.116510    11.00000   -1.20000
AFIX   0
C4    1    0.771217    0.280747    0.151004    11.00000    0.09254    0.15681 =
         0.09543   -0.00923    0.00816    0.03347
C9C   1    1.033460    0.667698    0.112485    11.00000    0.25682    0.10727 =
         0.11693    0.00420    0.04746    0.10459
AFIX  43
H9C   2    1.029511    0.682325    0.126465    11.00000   -1.20000
AFIX   0
C10C  1    1.068362    0.640511    0.085545    11.00000    0.16482    0.10277 =
         0.18766    0.02211    0.08521    0.07312
AFIX  43
H10C  2    1.094402    0.632807    0.077094    11.00000   -1.20000
AFIX   0
C11C  1    1.019487    0.635061    0.078556    11.00000    0.21057    0.14085 =
         0.10430    0.01801   -0.06096    0.02553
AFIX  43
H11C  2    1.002766    0.621201    0.064257    11.00000   -1.20000
AFIX   0
HKLF 4

REM  R-3m in R-3m
REM R1 =  0.0787 for    4118 Fo > 4sig(Fo)  and  0.1439 for all    9345 data
REM    270 parameters refined using      3 restraints

END

WGHT      0.1701      0.0000

REM Highest difference peak  0.999,  deepest hole -0.991,  1-sigma level  0.093
Q1    1   0.7768  0.3179  0.1671  11.00000  0.05    1.00
Q2    1   0.6894  0.3106 -0.0499  10.50000  0.05    0.85
Q3    1   0.8159  0.4981  0.0155  11.00000  0.05    0.81
Q4    1   0.7305  0.2695 -0.0367  10.50000  0.05    0.79
Q5    1   0.8801  0.5306  0.0493  11.00000  0.05    0.74
Q6    1   0.9714  0.5785  0.1009  11.00000  0.05    0.72
Q7    1   0.9266  0.4934  0.1476  11.00000  0.05    0.72
Q8    1   0.7289  0.3289 -0.0351  11.00000  0.05    0.65
Q9    1   1.0293  0.5786  0.1008  11.00000  0.05    0.57
Q10   1   0.8323  0.2582  0.0994  11.00000  0.05    0.57
;
_shelx_res_checksum              20278
_shelx_fab_file
;
   -2    2    2     52.52      0.00
   -3    3    3   -232.01      0.00
   -4    4    4    282.33      0.00
   -5    5    5     42.45      0.00
   -6    6    6     42.79      0.00
   -7    7    7    -38.19      0.00
   -8    8    8    -18.54      0.00
   -9    9    9    -80.35      0.00
  -10   10   10     21.50      0.00
  -11   11   11     30.21      0.00
  -13   13   13    -26.31      0.00
  -14   14   14     10.94      0.00
  -15   15   15    -21.24      0.00
  -16   16   16     23.77      0.00
  -17   17   17     -2.69      0.00
  -18   18   18     14.52      0.00
  -19   19   19     -8.02      0.00
  -20   20   20     -8.58      0.00
  -21   21   21     -6.81      0.00
  -22   22   22     11.44      0.00
  -23   23   23     11.24      0.00
  -24   24   24      1.33      0.00
  -25   25   25    -10.88      0.00
  -26   26   26     -0.73      0.00
  -27   27   27    -14.44      0.00
  -28   28   28      5.84      0.00
  -29   29   29     15.05      0.00
  -30   30   30     -7.74      0.00
  -31   31   31      1.06      0.00
  -31   32   30      3.23      0.00
  -30   31   29    -12.27      0.00
  -29   30   28     14.78      0.00
  -28   29   27     13.81      0.00
  -27   28   26      1.83      0.00
  -26   27   25     -7.60      0.00
  -25   26   24     -0.76      0.00
  -24   25   23     -4.36      0.00
  -23   24   22      4.50      0.00
  -22   23   21    -14.26      0.00
  -21   22   20      3.24      0.00
  -20   21   19     -2.71      0.00
  -19   20   18      9.38      0.00
  -18   19   17      5.05      0.00
  -17   18   16      5.47      0.00
  -16   17   15     -5.48      0.00
  -15   16   14      0.07      0.00
  -14   15   13      1.24      0.00
  -13   14   12    -22.48      0.00
  -12   13   11      8.26      0.00
  -11   12   10     -6.47      0.00
  -10   11    9      3.26      0.00
   -9   10    8      1.08      0.00
   -8    9    7     22.60      0.00
   -7    8    6     91.65      0.00
   -6    7    5     31.29      0.00
   -5    6    4    -56.71      0.00
   -4    5    3    115.98      0.00
   -3    4    2   -145.57      0.00
   -1    2    0    208.48      0.00
    0    1    2    347.89      0.00
   -1    2    3   -672.21      0.00
   -2    3    4    115.82      0.00
   -3    4    5    103.41      0.00
   -4    5    6     -0.22      0.00
   -5    6    7      2.95      0.00
   -6    7    8    -31.45      0.00
   -7    8    9     39.73      0.00
   -8    9   10      2.83      0.00
   -9   10   11     -7.02      0.00
  -10   11   12    -31.28      0.00
  -11   12   13     23.62      0.00
  -12   13   14     13.68      0.00
  -13   14   15     11.18      0.00
  -14   15   16      5.10      0.00
  -15   16   17    -17.16      0.00
  -16   17   18      2.54      0.00
  -17   18   19      1.33      0.00
  -18   19   20     -0.68      0.00
  -19   20   21     -4.32      0.00
  -20   21   22     15.00      0.00
  -21   22   23     -4.71      0.00
  -22   23   24    -10.01      0.00
  -23   24   25      8.35      0.00
  -24   25   26      6.22      0.00
  -25   26   27     18.76      0.00
  -26   27   28      1.73      0.00
  -27   28   29     -2.01      0.00
  -28   29   30     -7.82      0.00
  -29   30   31     -5.29      0.00
  -30   31   32     -9.19      0.00
  -31   33   29     -3.10      0.00
  -30   32   28    -20.57      0.00
  -29   31   27     -8.02      0.00
  -28   30   26     -5.24      0.00
  -27   29   25     19.84      0.00
  -26   28   24    -13.80      0.00
  -25   27   23      5.68      0.00
  -24   26   22     -9.86      0.00
  -23   25   21      4.79      0.00
  -22   24   20     -0.58      0.00
  -21   23   19     -5.00      0.00
  -20   22   18      8.62      0.00
  -19   21   17     19.36      0.00
  -18   20   16     -3.98      0.00
  -17   19   15     -6.88      0.00
  -16   18   14      7.17      0.00
  -15   17   13      4.97      0.00
  -14   16   12     -5.18      0.00
  -13   15   11      6.97      0.00
  -12   14   10      9.43      0.00
  -11   13    9     13.36      0.00
  -10   12    8    -11.83      0.00
   -9   11    7     19.20      0.00
   -8   10    6    -11.70      0.00
   -7    9    5     10.06      0.00
   -6    8    4     40.65      0.00
   -5    7    3     -6.94      0.00
   -4    6    2     10.79      0.00
   -3    5    1      8.82      0.00
   -1    3    5     84.60      0.00
   -2    4    6    -90.58      0.00
   -3    5    7    -14.72      0.00
   -4    6    8    -44.76      0.00
   -5    7    9    -37.57      0.00
   -6    8   10    -52.91      0.00
   -7    9   11    -24.89      0.00
   -8   10   12     13.15      0.00
   -9   11   13     24.90      0.00
  -10   12   14     20.85      0.00
  -11   13   15     -4.74      0.00
  -12   14   16    -12.94      0.00
  -13   15   17     -2.46      0.00
  -14   16   18     12.08      0.00
  -15   17   19    -12.69      0.00
  -16   18   20     -5.50      0.00
  -17   19   21     -7.52      0.00
  -18   20   22     -9.44      0.00
  -19   21   23      1.33      0.00
  -20   22   24     15.08      0.00
  -21   23   25     -3.63      0.00
  -22   24   26     -5.52      0.00
  -23   25   27      4.99      0.00
  -24   26   28     15.95      0.00
  -25   27   29      2.97      0.00
  -26   28   30     -2.51      0.00
  -27   29   31      6.31      0.00
  -28   30   32     19.24      0.00
  -29   31   33      1.12      0.00
  -30   32   34     -5.96      0.00
  -30   33   27    -19.30      0.00
  -29   32   26    -18.11      0.00
  -28   31   25    -10.97      0.00
  -27   30   24     -9.88      0.00
  -26   29   23      5.50      0.00
  -25   28   22      4.60      0.00
  -24   27   21     -9.00      0.00
  -23   26   20      5.56      0.00
  -22   25   19    -19.75      0.00
  -21   24   18      8.14      0.00
  -20   23   17     -1.12      0.00
  -19   22   16      0.08      0.00
  -18   21   15     -4.86      0.00
  -17   20   14     -8.66      0.00
  -16   19   13    -10.00      0.00
  -15   18   12      3.83      0.00
  -14   17   11     -7.91      0.00
  -13   16   10     33.82      0.00
  -12   15    9    -20.57      0.00
  -11   14    8    -23.81      0.00
  -10   13    7    -26.66      0.00
   -9   12    6     87.76      0.00
   -8   11    5     33.36      0.00
   -7   10    4     17.09      0.00
   -6    9    3   -123.78      0.00
   -5    8    2      0.84      0.00
   -4    7    1   -163.35      0.00
   -3    6    0    112.36      0.00
    0    3    6    797.71      0.00
   -1    4    7     27.93      0.00
   -2    5    8    -53.96      0.00
   -3    6    9    -80.94      0.00
   -4    7   10    149.97      0.00
   -5    8   11     -5.86      0.00
   -6    9   12     73.94      0.00
   -7   10   13    -31.24      0.00
   -8   11   14      7.23      0.00
   -9   12   15    -55.74      0.00
  -10   13   16     39.32      0.00
  -11   14   17     -9.17      0.00
  -12   15   18     26.33      0.00
  -13   16   19    -18.73      0.00
  -14   17   20     -5.39      0.00
  -15   18   21     -3.05      0.00
  -16   19   22      4.39      0.00
  -17   20   23     -3.06      0.00
  -18   21   24      0.85      0.00
  -19   22   25     -0.34      0.00
  -20   23   26      1.64      0.00
  -21   24   27      7.00      0.00
  -22   25   28     -1.24      0.00
  -23   26   29     14.40      0.00
  -24   27   30    -16.09      0.00
  -25   28   31    -16.63      0.00
  -26   29   32     17.55      0.00
  -27   30   33      3.33      0.00
  -28   31   34     -8.22      0.00
  -29   32   35      4.97      0.00
  -30   34   26      4.73      0.00
  -29   33   25     -6.98      0.00
  -28   32   24    -13.20      0.00
  -27   31   23     19.57      0.00
  -26   30   22      5.29      0.00
  -25   29   21     23.09      0.00
  -24   28   20     -0.33      0.00
  -23   27   19     -6.41      0.00
  -22   26   18    -16.21      0.00
  -21   25   17    -17.88      0.00
  -20   24   16    -10.32      0.00
  -19   23   15      8.03      0.00
  -18   22   14      0.02      0.00
  -17   21   13      1.58      0.00
  -16   20   12      3.74      0.00
  -15   19   11      4.64      0.00
  -14   18   10     -4.87      0.00
  -13   17    9     -7.43      0.00
  -12   16    8     -6.09      0.00
  -11   15    7      7.10      0.00
  -10   14    6     31.35      0.00
   -9   13    5    -15.35      0.00
   -8   12    4     11.50      0.00
   -7   11    3    -28.04      0.00
   -6   10    2    -44.51      0.00
   -5    9    1     20.82      0.00
   -4    8    0     69.80      0.00
    0    4    8    112.12      0.00
   -1    5    9     27.80      0.00
   -2    6   10    176.79      0.00
   -3    7   11     -9.62      0.00
   -4    8   12    -14.43      0.00
   -5    9   13     12.31      0.00
   -6   10   14     11.54      0.00
   -7   11   15     10.51      0.00
   -8   12   16     13.26      0.00
   -9   13   17    -13.03      0.00
  -10   14   18      3.22      0.00
  -11   15   19     10.12      0.00
  -12   16   20     15.65      0.00
  -13   17   21      4.00      0.00
  -14   18   22     -1.01      0.00
  -15   19   23     -2.04      0.00
  -16   20   24     -3.52      0.00
  -17   21   25     -4.09      0.00
  -18   22   26      1.27      0.00
  -19   23   27     -1.21      0.00
  -20   24   28     -2.40      0.00
  -21   25   29      4.47      0.00
  -22   26   30     14.29      0.00
  -23   27   31      5.27      0.00
  -24   28   32     -2.27      0.00
  -25   29   33     18.03      0.00
  -26   30   34      4.79      0.00
  -27   31   35    -21.86      0.00
  -28   32   36     -2.97      0.00
  -29   34   24      5.47      0.00
  -28   33   23    -12.19      0.00
  -27   32   22     -5.92      0.00
  -26   31   21      8.39      0.00
  -25   30   20    -12.54      0.00
  -24   29   19     -4.95      0.00
  -23   28   18    -15.46      0.00
  -22   27   17    -15.97      0.00
  -21   26   16     -5.29      0.00
  -20   25   15     16.52      0.00
  -19   24   14      8.72      0.00
  -18   23   13      8.54      0.00
  -17   22   12     -2.25      0.00
  -16   21   11     -4.00      0.00
  -15   20   10    -12.94      0.00
  -14   19    9      9.12      0.00
  -13   18    8      7.50      0.00
  -12   17    7     11.41      0.00
  -11   16    6     -6.61      0.00
  -10   15    5      6.35      0.00
   -9   14    4     31.60      0.00
   -8   13    3    -12.52      0.00
   -7   12    2    -31.32      0.00
   -6   11    1     44.42      0.00
   -5   10    0      4.05      0.00
   -1    6   11     53.97      0.00
   -2    7   12    -52.00      0.00
   -3    8   13     14.11      0.00
   -4    9   14     38.42      0.00
   -5   10   15    -29.42      0.00
   -6   11   16    -34.41      0.00
   -7   12   17    -26.53      0.00
   -8   13   18      7.72      0.00
   -9   14   19     11.69      0.00
  -10   15   20      1.64      0.00
  -11   16   21     -5.57      0.00
  -12   17   22     -2.57      0.00
  -13   18   23      2.91      0.00
  -14   19   24    -10.39      0.00
  -15   20   25     -4.62      0.00
  -16   21   26     -1.66      0.00
  -17   22   27     -1.46      0.00
  -18   23   28     -0.40      0.00
  -19   24   29      1.84      0.00
  -20   25   30      3.29      0.00
  -21   26   31      1.11      0.00
  -22   27   32     17.00      0.00
  -23   28   33     -4.65      0.00
  -24   29   34     -2.19      0.00
  -25   30   35     -5.72      0.00
  -26   31   36      0.60      0.00
  -27   32   37      5.36      0.00
  -29   35   23     -1.87      0.00
  -28   34   22     -5.28      0.00
  -27   33   21    -13.56      0.00
  -26   32   20     -9.12      0.00
  -25   31   19    -24.47      0.00
  -24   30   18     -5.58      0.00
  -23   29   17     -2.40      0.00
  -22   28   16    -14.40      0.00
  -21   27   15     -6.55      0.00
  -20   26   14      5.84      0.00
  -19   25   13      7.75      0.00
  -18   24   12    -13.37      0.00
  -17   23   11    -19.94      0.00
  -16   22   10      6.59      0.00
  -15   21    9     -7.36      0.00
  -14   20    8      2.84      0.00
  -13   19    7     -3.12      0.00
  -12   18    6     17.28      0.00
  -11   17    5     20.12      0.00
  -10   16    4     14.88      0.00
   -9   15    3    -27.01      0.00
   -8   14    2    -29.88      0.00
   -7   13    1    -29.42      0.00
   -6   12    0    103.15      0.00
    0    6   12    156.19      0.00
   -1    7   13    -13.90      0.00
   -2    8   14     46.08      0.00
   -3    9   15    -55.17      0.00
   -4   10   16     56.96      0.00
   -5   11   17     10.16      0.00
   -6   12   18     35.68      0.00
   -7   13   19    -14.26      0.00
   -8   14   20    -11.33      0.00
   -9   15   21    -13.14      0.00
  -10   16   22     14.74      0.00
  -11   17   23     -4.37      0.00
  -12   18   24      6.34      0.00
  -13   19   25    -10.78      0.00
  -14   20   26      3.97      0.00
  -15   21   27     -1.85      0.00
  -16   22   28     -0.85      0.00
  -17   23   29      4.19      0.00
  -18   24   30    -15.83      0.00
  -19   25   31      4.75      0.00
  -20   26   32     -2.84      0.00
  -21   27   33      4.76      0.00
  -22   28   34      4.19      0.00
  -23   29   35    -13.38      0.00
  -24   30   36      7.37      0.00
  -25   31   37     -9.72      0.00
  -26   32   38     -7.34      0.00
  -27   33   39     -4.92      0.00
  -28   35   21      0.52      0.00
  -27   34   20     16.14      0.00
  -26   33   19     20.16      0.00
  -25   32   18     15.12      0.00
  -24   31   17     13.12      0.00
  -23   30   16     -9.25      0.00
  -22   29   15      2.56      0.00
  -21   28   14     -6.49      0.00
  -20   27   13      9.71      0.00
  -19   26   12     -0.39      0.00
  -18   25   11    -18.15      0.00
  -17   24   10    -14.52      0.00
  -16   23    9      2.17      0.00
  -15   22    8      8.23      0.00
  -14   21    7      9.25      0.00
  -13   20    6     15.02      0.00
  -12   19    5    -11.15      0.00
  -11   18    4     -2.71      0.00
  -10   17    3    -13.35      0.00
   -9   16    2     23.44      0.00
   -8   15    1    -13.67      0.00
   -7   14    0     36.43      0.00
    0    7   14    109.43      0.00
   -1    8   15      1.71      0.00
   -2    9   16     28.81      0.00
   -3   10   17    -44.56      0.00
   -4   11   18     15.61      0.00
   -5   12   19    -10.89      0.00
   -6   13   20     20.58      0.00
   -7   14   21     -3.14      0.00
   -8   15   22     -3.73      0.00
   -9   16   23    -18.28      0.00
  -10   17   24     -7.06      0.00
  -11   18   25      2.79      0.00
  -12   19   26      1.47      0.00
  -13   20   27     11.16      0.00
  -14   21   28      3.87      0.00
  -15   22   29     -8.69      0.00
  -16   23   30     -7.35      0.00
  -17   24   31      8.18      0.00
  -18   25   32     -3.79      0.00
  -19   26   33    -10.09      0.00
  -20   27   34      0.75      0.00
  -21   28   35     -2.02      0.00
  -22   29   36      8.35      0.00
  -23   30   37     10.07      0.00
  -24   31   38     18.08      0.00
  -25   32   39     23.52      0.00
  -26   33   40      8.90      0.00
  -28   36   20     15.32      0.00
  -27   35   19    -11.05      0.00
  -26   34   18      4.55      0.00
  -25   33   17      1.18      0.00
  -24   32   16     -1.06      0.00
  -23   31   15     -9.82      0.00
  -22   30   14     -5.03      0.00
  -21   29   13     -1.79      0.00
  -20   28   12     -6.03      0.00
  -19   27   11     -1.07      0.00
  -18   26   10     -1.15      0.00
  -17   25    9     -2.16      0.00
  -16   24    8      5.87      0.00
  -15   23    7     -2.46      0.00
  -14   22    6     -3.84      0.00
  -13   21    5      4.25      0.00
  -12   20    4     -5.02      0.00
  -11   19    3      8.02      0.00
  -10   18    2     -3.47      0.00
   -9   17    1     -4.47      0.00
   -8   16    0     20.31      0.00
    0    8   16     33.87      0.00
   -1    9   17      7.45      0.00
   -2   10   18     -6.80      0.00
   -3   11   19      4.96      0.00
   -4   12   20     25.71      0.00
   -5   13   21    -17.15      0.00
   -6   14   22     -9.60      0.00
   -7   15   23     -0.72      0.00
   -8   16   24      9.97      0.00
   -9   17   25      5.13      0.00
  -10   18   26    -13.84      0.00
  -11   19   27     -4.85      0.00
  -12   20   28     -2.76      0.00
  -13   21   29     -5.20      0.00
  -14   22   30     -7.21      0.00
  -15   23   31     -4.96      0.00
  -16   24   32     -3.91      0.00
  -17   25   33      7.52      0.00
  -18   26   34     -5.97      0.00
  -19   27   35     -0.61      0.00
  -20   28   36     -1.72      0.00
  -21   29   37     -3.26      0.00
  -22   30   38    -12.55      0.00
  -23   31   39    -10.37      0.00
  -24   32   40      5.36      0.00
  -25   33   41     19.48      0.00
  -27   36   18     -6.87      0.00
  -26   35   17      5.77      0.00
  -25   34   16      1.49      0.00
  -24   33   15    -20.55      0.00
  -23   32   14    -12.93      0.00
  -22   31   13     -6.41      0.00
  -21   30   12     -3.91      0.00
  -20   29   11      9.04      0.00
  -19   28   10     13.29      0.00
  -18   27    9      1.50      0.00
  -17   26    8      4.01      0.00
  -16   25    7    -10.09      0.00
  -15   24    6    -21.07      0.00
  -14   23    5      0.03      0.00
  -13   22    4     12.46      0.00
  -12   21    3    -12.92      0.00
  -11   20    2     -3.21      0.00
  -10   19    1     -6.50      0.00
   -9   18    0     27.15      0.00
    0    9   18     90.14      0.00
   -1   10   19    -13.51      0.00
   -2   11   20     37.32      0.00
   -3   12   21    -33.91      0.00
   -4   13   22     37.39      0.00
   -5   14   23     -0.79      0.00
   -6   15   24     19.38      0.00
   -7   16   25    -17.41      0.00
   -8   17   26      9.31      0.00
   -9   18   27     -0.25      0.00
  -10   19   28     10.99      0.00
  -11   20   29      3.95      0.00
  -12   21   30     -0.11      0.00
  -13   22   31    -10.58      0.00
  -14   23   32     15.47      0.00
  -15   24   33      5.46      0.00
  -16   25   34      7.47      0.00
  -17   26   35     10.98      0.00
  -18   27   36     13.41      0.00
  -19   28   37      6.14      0.00
  -20   29   38     -9.42      0.00
  -21   30   39      6.48      0.00
  -22   31   40     12.47      0.00
  -23   32   41     16.90      0.00
  -24   33   42      0.36      0.00
  -27   37   17    -10.94      0.00
  -26   36   16      3.31      0.00
  -25   35   15     18.21      0.00
  -24   34   14      2.26      0.00
  -23   33   13     -4.60      0.00
  -22   32   12      1.17      0.00
  -21   31   11      9.61      0.00
  -20   30   10      9.14      0.00
  -19   29    9     -2.14      0.00
  -18   28    8      8.08      0.00
  -17   27    7     10.45      0.00
  -16   26    6      1.82      0.00
  -15   25    5    -10.45      0.00
  -14   24    4     -1.13      0.00
  -13   23    3     -7.57      0.00
  -12   22    2     12.74      0.00
  -11   21    1      6.70      0.00
  -10   20    0      9.65      0.00
    0   10   20     65.81      0.00
   -1   11   21      4.31      0.00
   -2   12   22     -0.82      0.00
   -3   13   23    -10.89      0.00
   -4   14   24      4.17      0.00
   -5   15   25    -18.42      0.00
   -6   16   26      9.34      0.00
   -7   17   27      4.20      0.00
   -8   18   28      7.56      0.00
   -9   19   29      7.44      0.00
  -10   20   30     -1.42      0.00
  -11   21   31      4.92      0.00
  -12   22   32      3.73      0.00
  -13   23   33      4.13      0.00
  -14   24   34      7.31      0.00
  -15   25   35     -8.79      0.00
  -16   26   36    -10.62      0.00
  -17   27   37     -3.89      0.00
  -18   28   38     12.08      0.00
  -19   29   39    -14.94      0.00
  -20   30   40     -8.70      0.00
  -21   31   41     14.67      0.00
  -22   32   42      1.20      0.00
  -23   33   43     -7.88      0.00
  -26   37   15     15.39      0.00
  -25   36   14      2.08      0.00
  -24   35   13     -2.63      0.00
  -23   34   12     -2.15      0.00
  -22   33   11    -23.14      0.00
  -21   32   10      2.50      0.00
  -20   31    9     -5.52      0.00
  -19   30    8     -2.98      0.00
  -18   29    7    -11.61      0.00
  -17   28    6     -4.04      0.00
  -16   27    5     19.95      0.00
  -15   26    4    -10.04      0.00
  -14   25    3     -3.64      0.00
  -13   24    2     -5.30      0.00
  -12   23    1      0.77      0.00
  -11   22    0    -10.99      0.00
    0   11   22     -5.63      0.00
   -1   12   23     22.17      0.00
   -2   13   24     10.67      0.00
   -3   14   25      1.91      0.00
   -4   15   26     -3.23      0.00
   -5   16   27     -3.44      0.00
   -6   17   28     -3.82      0.00
   -7   18   29     -0.94      0.00
   -8   19   30     -4.34      0.00
   -9   20   31     15.74      0.00
  -10   21   32     -2.80      0.00
  -11   22   33      4.30      0.00
  -12   23   34      5.62      0.00
  -13   24   35     -0.49      0.00
  -14   25   36      1.32      0.00
  -15   26   37     -1.79      0.00
  -16   27   38     -5.80      0.00
  -17   28   39     10.26      0.00
  -18   29   40      4.36      0.00
  -19   30   41     -9.77      0.00
  -20   31   42      3.21      0.00
  -21   32   43     13.17      0.00
  -22   33   44      6.79      0.00
  -25   37   13      4.76      0.00
  -24   36   12    -19.40      0.00
  -23   35   11     21.51      0.00
  -22   34   10      2.23      0.00
  -21   33    9    -18.95      0.00
  -20   32    8     13.73      0.00
  -19   31    7     -5.58      0.00
  -18   30    6     10.52      0.00
  -17   29    5     -4.51      0.00
  -16   28    4      2.82      0.00
  -15   27    3     15.62      0.00
  -14   26    2      1.14      0.00
  -13   25    1     -6.56      0.00
  -12   24    0    -10.33      0.00
  -12   12   12     36.59      0.00
    0   12   24     39.15      0.00
   -1   13   25     -0.38      0.00
   -2   14   26     11.11      0.00
   -3   15   27     -9.96      0.00
   -4   16   28      6.27      0.00
   -5   17   29      0.38      0.00
   -6   18   30     15.36      0.00
   -7   19   31     -1.68      0.00
   -8   20   32      1.44      0.00
   -9   21   33     -8.53      0.00
  -10   22   34     -0.61      0.00
  -11   23   35     -3.42      0.00
  -12   24   36      5.10      0.00
  -13   25   37     11.41      0.00
  -14   26   38     15.20      0.00
  -15   27   39      3.92      0.00
  -16   28   40     10.65      0.00
  -17   29   41      0.61      0.00
  -18   30   42      4.35      0.00
  -19   31   43     -5.01      0.00
  -20   32   44     -3.15      0.00
  -21   33   45     -1.96      0.00
  -25   38   12    -17.84      0.00
  -24   37   11      8.07      0.00
  -23   36   10      6.15      0.00
  -22   35    9     14.35      0.00
  -21   34    8     -6.28      0.00
  -20   33    7    -30.75      0.00
  -19   32    6      0.25      0.00
  -18   31    5      3.04      0.00
  -17   30    4      5.52      0.00
  -16   29    3     -9.22      0.00
  -15   28    2     14.47      0.00
  -14   27    1      7.67      0.00
  -13   26    0      3.82      0.00
    0   13   26     19.67      0.00
   -1   14   27     18.61      0.00
   -2   15   28     -9.59      0.00
   -3   16   29    -12.09      0.00
   -4   17   30     11.49      0.00
   -5   18   31      7.34      0.00
   -6   19   32      3.52      0.00
   -7   20   33     -2.94      0.00
   -8   21   34     -8.32      0.00
   -9   22   35     12.84      0.00
  -10   23   36      9.33      0.00
  -11   24   37     -2.51      0.00
  -12   25   38     -2.62      0.00
  -13   26   39     -7.50      0.00
  -14   27   40    -20.23      0.00
  -15   28   41    -14.70      0.00
  -16   29   42      3.17      0.00
  -17   30   43     -1.75      0.00
  -18   31   44     14.12      0.00
  -19   32   45      9.62      0.00
  -20   33   46     -3.75      0.00
  -24   38   10    -17.86      0.00
  -23   37    9     -3.40      0.00
  -22   36    8      9.46      0.00
  -21   35    7     25.83      0.00
  -20   34    6     14.66      0.00
  -19   33    5     -9.48      0.00
  -18   32    4      0.34      0.00
  -17   31    3     -4.53      0.00
  -16   30    2     -6.11      0.00
  -15   29    1      2.59      0.00
  -14   28    0      1.91      0.00
    0   14   28     -2.91      0.00
   -1   15   29      6.29      0.00
   -2   16   30      3.86      0.00
   -3   17   31     10.10      0.00
   -4   18   32     -0.81      0.00
   -5   19   33     -1.17      0.00
   -6   20   34     -4.55      0.00
   -7   21   35     -4.78      0.00
   -8   22   36     -3.01      0.00
   -9   23   37      2.53      0.00
  -10   24   38     -6.50      0.00
  -11   25   39     -1.52      0.00
  -12   26   40     -0.74      0.00
  -13   27   41    -11.72      0.00
  -14   28   42    -18.53      0.00
  -15   29   43     -9.00      0.00
  -16   30   44     12.96      0.00
  -17   31   45    -15.03      0.00
  -18   32   46    -18.42      0.00
  -19   33   47     -1.92      0.00
  -23   38    8    -18.92      0.00
  -22   37    7     -6.37      0.00
  -21   36    6     10.97      0.00
  -20   35    5     23.02      0.00
  -19   34    4     -1.65      0.00
  -18   33    3    -14.82      0.00
  -17   32    2    -10.74      0.00
  -16   31    1      4.83      0.00
  -15   30    0    -10.80      0.00
    0   15   30     19.54      0.00
   -1   16   31     13.43      0.00
   -2   17   32     13.99      0.00
   -3   18   33     -4.01      0.00
   -4   19   34     12.24      0.00
   -5   20   35      5.13      0.00
   -6   21   36     14.70      0.00
   -7   22   37     -5.10      0.00
   -8   23   38     -2.92      0.00
   -9   24   39    -13.03      0.00
  -10   25   40      0.38      0.00
  -11   26   41     -5.99      0.00
  -12   27   42      2.03      0.00
  -13   28   43     -8.53      0.00
  -14   29   44      7.58      0.00
  -15   30   45     13.57      0.00
  -16   31   46     -5.79      0.00
  -17   32   47    -17.75      0.00
  -18   33   48     -4.44      0.00
  -22   38    6     -9.47      0.00
  -21   37    5      8.57      0.00
  -20   36    4      5.59      0.00
  -19   35    3      4.56      0.00
  -18   34    2    -21.33      0.00
  -17   33    1    -10.32      0.00
  -16   32    0    -24.24      0.00
    0   16   32     12.08      0.00
   -1   17   33      1.56      0.00
   -2   18   34     -5.67      0.00
   -3   19   35    -14.62      0.00
   -4   20   36      1.87      0.00
   -5   21   37      3.13      0.00
   -6   22   38     23.78      0.00
   -7   23   39     -5.07      0.00
   -8   24   40     15.52      0.00
   -9   25   41     15.87      0.00
  -10   26   42     -4.84      0.00
  -11   27   43    -11.94      0.00
  -12   28   44    -23.22      0.00
  -13   29   45     -1.45      0.00
  -14   30   46     -1.47      0.00
  -15   31   47    -18.01      0.00
  -16   32   48     -0.40      0.00
  -21   38    4     -0.72      0.00
  -20   37    3    -18.24      0.00
  -19   36    2      0.03      0.00
  -18   35    1      6.83      0.00
  -17   34    0      9.72      0.00
    0   17   34      3.57      0.00
   -1   18   35    -26.02      0.00
   -2   19   36     -2.85      0.00
   -3   20   37     -6.34      0.00
   -4   21   38     11.38      0.00
   -5   22   39     -1.53      0.00
   -6   23   40     18.40      0.00
   -7   24   41     15.66      0.00
   -8   25   42     30.90      0.00
   -9   26   43      0.93      0.00
  -10   27   44    -13.30      0.00
  -11   28   45     -9.33      0.00
  -12   29   46     -6.25      0.00
  -13   30   47    -13.51      0.00
  -14   31   48    -30.35      0.00
  -15   32   49     -0.93      0.00
  -21   39    3      4.67      0.00
  -20   38    2     11.72      0.00
  -19   37    1      6.45      0.00
  -18   36    0      2.69      0.00
    0   18   36     10.69      0.00
   -1   19   37    -23.84      0.00
   -2   20   38     23.20      0.00
   -3   21   39    -12.77      0.00
   -4   22   40    -10.52      0.00
   -5   23   41      2.47      0.00
   -6   24   42     21.43      0.00
   -7   25   43      5.95      0.00
   -8   26   44     19.16      0.00
   -9   27   45     -1.63      0.00
  -10   28   46     12.77      0.00
  -11   29   47     -7.26      0.00
  -12   30   48      8.19      0.00
  -13   31   49    -24.25      0.00
  -14   32   50    -18.40      0.00
  -20   39    1     15.44      0.00
  -19   38    0     11.72      0.00
    0   19   38     -4.43      0.00
   -1   20   39    -23.03      0.00
   -2   21   40     24.94      0.00
   -3   22   41     -7.26      0.00
   -4   23   42      4.68      0.00
   -5   24   43      9.59      0.00
   -6   25   44     18.20      0.00
   -7   26   45    -11.91      0.00
   -8   27   46     11.75      0.00
   -9   28   47      5.56      0.00
  -10   29   48     -4.30      0.00
  -11   30   49     -4.05      0.00
  -12   31   50    -25.91      0.00
  -13   32   51    -15.53      0.00
    0   20   40    -22.85      0.00
   -1   21   41    -20.41      0.00
   -2   22   42    -13.48      0.00
   -3   23   43      1.45      0.00
   -4   24   44      7.93      0.00
   -5   25   45     25.73      0.00
   -6   26   46      5.87      0.00
   -7   27   47      3.42      0.00
   -8   28   48      1.87      0.00
   -9   29   49    -19.88      0.00
  -10   30   50    -12.35      0.00
  -11   31   51     -3.24      0.00
    0   21   42    -16.00      0.00
   -1   22   43    -34.05      0.00
   -2   23   44      3.64      0.00
   -3   24   45     16.04      0.00
   -4   25   46     19.02      0.00
   -5   26   47      7.97      0.00
   -6   27   48      8.91      0.00
   -7   28   49     -0.95      0.00
   -8   29   50     20.28      0.00
   -9   30   51     -1.02      0.00
  -10   31   52     -2.73      0.00
    0   22   44      5.23      0.00
   -1   23   45     -8.71      0.00
   -2   24   46     12.22      0.00
   -3   25   47    -12.89      0.00
   -4   26   48    -12.29      0.00
   -5   27   49     -2.95      0.00
   -6   28   50     -8.32      0.00
   -7   29   51     -2.20      0.00
   -8   30   52     15.79      0.00
    0   23   46      2.95      0.00
   -1   24   47    -20.05      0.00
   -2   25   48     -9.71      0.00
   -3   26   49     -9.03      0.00
   -4   27   50     19.17      0.00
   -5   28   51     20.70      0.00
   -6   29   52     -7.27      0.00
   -7   30   53     -2.43      0.00
    0   24   48      4.76      0.00
   -1   25   49     -9.99      0.00
   -2   26   50     -8.00      0.00
   -3   27   51     -7.45      0.00
   -4   28   52    -24.71      0.00
   -5   29   53     -7.06      0.00
    0   25   50      8.69      0.00
   -1   26   51    -12.10      0.00
   -2   27   52    -10.93      0.00
   -3   28   53     -8.47      0.00
    0   26   52    -38.35      0.00
   -1   27   53    -21.29      0.00
   -2   28   54     -1.68      0.00
    0   27   54      1.57      0.00
  -31   32   33      9.09      0.00
  -15   33   48      1.58      0.00
  -16   33   47      1.06      0.00
  -17   33   46     -9.25      0.00
  -18   33   45     -8.14      0.00
  -19   33   44     -1.78      0.00
  -20   33   43      7.82      0.00
  -21   33   42      6.22      0.00
  -22   33   41     13.72      0.00
  -23   33   40      2.85      0.00
  -24   33   39      4.13      0.00
  -25   33   38     18.95      0.00
  -26   33   37     -8.87      0.00
  -27   33   36     -1.62      0.00
  -28   33   35     -6.47      0.00
  -29   33   34     -8.35      0.00
  -12   32   49     -2.94      0.00
  -13   32   48    -20.35      0.00
  -14   32   47    -18.68      0.00
  -15   32   46      3.15      0.00
  -16   32   45     12.81      0.00
  -17   32   44    -18.85      0.00
  -18   32   43      1.44      0.00
  -19   32   42     11.18      0.00
  -20   32   41     -2.76      0.00
  -21   32   40      2.07      0.00
  -22   32   39      9.35      0.00
  -23   32   38    -12.51      0.00
  -24   32   37      2.46      0.00
  -25   32   36      4.63      0.00
  -26   32   35    -12.14      0.00
  -27   32   34     -6.87      0.00
  -28   32   33    -11.00      0.00
  -29   32   32     -5.34      0.00
  -30   32   31    -23.74      0.00
  -32   32   29      0.83      0.00
   -8   31   51      8.99      0.00
   -9   31   50      6.12      0.00
  -10   31   49      2.76      0.00
  -11   31   48     23.76      0.00
  -12   31   47      3.38      0.00
  -13   31   46     -5.43      0.00
  -14   31   45     19.50      0.00
  -15   31   44     10.60      0.00
  -16   31   43     -9.14      0.00
  -17   31   42     -7.16      0.00
  -18   31   41      5.63      0.00
  -19   31   40      7.19      0.00
  -20   31   39      1.17      0.00
  -21   31   38      0.23      0.00
  -22   31   37     -2.64      0.00
  -23   31   36     -9.75      0.00
  -24   31   35      9.89      0.00
  -25   31   34      1.24      0.00
  -26   31   33     -2.82      0.00
  -27   31   32    -11.09      0.00
  -28   31   31     -9.33      0.00
  -29   31   30    -35.34      0.00
  -31   31   28     -8.65      0.00
  -31   32   27      0.75      0.00
  -31   33   26      4.72      0.00
   -6   30   51     -7.19      0.00
   -7   30   50     10.71      0.00
   -8   30   49     12.64      0.00
   -9   30   48      3.72      0.00
  -10   30   47    -18.21      0.00
  -11   30   46      7.95      0.00
  -12   30   45     -9.61      0.00
  -13   30   44    -17.15      0.00
  -14   30   43      4.85      0.00
  -15   30   42     -0.72      0.00
  -16   30   41     14.39      0.00
  -17   30   40      9.92      0.00
  -18   30   39     -5.90      0.00
  -19   30   38    -18.08      0.00
  -20   30   37     -4.15      0.00
  -21   30   36      9.02      0.00
  -22   30   35      6.55      0.00
  -23   30   34     33.39      0.00
  -24   30   33    -19.50      0.00
  -25   30   32     21.44      0.00
  -26   30   31    -12.45      0.00
  -27   30   30    -12.49      0.00
  -28   30   29     -5.43      0.00
  -30   30   27     20.36      0.00
  -30   31   26     18.17      0.00
  -30   32   25     13.17      0.00
  -30   33   24    -12.00      0.00
  -30   34   23     -6.59      0.00
  -30   35   22     -7.86      0.00
   -4   29   51      5.00      0.00
   -5   29   50      0.34      0.00
   -6   29   49     -6.76      0.00
   -7   29   48     -3.43      0.00
   -8   29   47     -1.41      0.00
   -9   29   46    -17.66      0.00
  -10   29   45     -3.40      0.00
  -11   29   44     -1.03      0.00
  -12   29   43    -39.89      0.00
  -13   29   42    -23.10      0.00
  -14   29   41      1.38      0.00
  -15   29   40      3.71      0.00
  -16   29   39     12.34      0.00
  -17   29   38     -0.31      0.00
  -18   29   37     -6.51      0.00
  -19   29   36      5.24      0.00
  -20   29   35      6.53      0.00
  -21   29   34     -2.27      0.00
  -22   29   33     15.14      0.00
  -23   29   32     -4.46      0.00
  -24   29   31    -16.69      0.00
  -25   29   30     -3.54      0.00
  -26   29   29     -8.29      0.00
  -27   29   28     14.70      0.00
  -29   29   26     26.54      0.00
  -29   30   25      4.79      0.00
  -29   31   24    -12.16      0.00
  -29   32   23    -11.72      0.00
  -29   33   22    -25.40      0.00
  -29   34   21    -12.68      0.00
  -29   35   20     -3.83      0.00
  -29   36   19    -13.25      0.00
   -1   28   52    -14.30      0.00
   -2   28   51     24.80      0.00
   -3   28   50      0.55      0.00
   -4   28   49     -3.90      0.00
   -5   28   48    -12.42      0.00
   -6   28   47    -13.80      0.00
   -7   28   46    -10.91      0.00
   -8   28   45    -34.90      0.00
   -9   28   44      4.54      0.00
  -10   28   43      6.85      0.00
  -11   28   42     -2.15      0.00
  -12   28   41     -5.12      0.00
  -13   28   40    -11.17      0.00
  -14   28   39     10.51      0.00
  -15   28   38      7.85      0.00
  -16   28   37     -1.66      0.00
  -17   28   36     -9.45      0.00
  -18   28   35      4.63      0.00
  -19   28   34     -0.47      0.00
  -20   28   33     -9.52      0.00
  -21   28   32     13.87      0.00
  -22   28   31     -8.04      0.00
  -23   28   30      4.74      0.00
  -24   28   29     -8.82      0.00
  -25   28   28    -10.48      0.00
  -26   28   27     -9.75      0.00
  -28   28   25    -11.88      0.00
  -28   29   24      2.72      0.00
  -28   30   23    -13.25      0.00
  -28   31   22    -16.25      0.00
  -28   32   21     -3.84      0.00
  -28   33   20    -35.07      0.00
  -28   34   19     -7.62      0.00
  -28   35   18    -22.89      0.00
  -28   36   17      4.03      0.00
    0   27   51    -25.98      0.00
   -1   27   50     17.35      0.00
   -2   27   49     16.88      0.00
   -3   27   48      6.83      0.00
   -4   27   47      9.20      0.00
   -5   27   46     -6.75      0.00
   -6   27   45    -23.39      0.00
   -7   27   44      5.09      0.00
   -8   27   43     -3.23      0.00
   -9   27   42      8.67      0.00
  -10   27   41      1.02      0.00
  -11   27   40     -9.11      0.00
  -12   27   39     -1.69      0.00
  -13   27   38    -26.60      0.00
  -14   27   37      7.58      0.00
  -15   27   36     -6.73      0.00
  -16   27   35      0.41      0.00
  -17   27   34     -6.75      0.00
  -18   27   33     -2.89      0.00
  -19   27   32     -6.88      0.00
  -20   27   31      9.87      0.00
  -21   27   30      4.35      0.00
  -22   27   29     18.80      0.00
  -23   27   28     20.46      0.00
  -24   27   27      6.23      0.00
  -25   27   26     10.38      0.00
  -27   27   24     -8.99      0.00
  -27   28   23    -14.91      0.00
  -27   29   22      8.63      0.00
  -27   30   21     15.16      0.00
  -27   31   20      0.82      0.00
  -27   32   19    -14.40      0.00
  -27   33   18      3.81      0.00
  -27   34   17      5.54      0.00
  -27   35   16      1.17      0.00
  -27   36   15    -12.33      0.00
  -27   37   14    -14.76      0.00
    0   26   49     38.05      0.00
   -1   26   48      8.48      0.00
   -2   26   47     12.82      0.00
   -3   26   46     12.36      0.00
   -4   26   45      6.28      0.00
   -5   26   44     16.23      0.00
   -6   26   43     17.93      0.00
   -7   26   42     -9.23      0.00
   -8   26   41      8.29      0.00
   -9   26   40     19.81      0.00
  -10   26   39     -2.32      0.00
  -11   26   38      2.01      0.00
  -12   26   37     -7.06      0.00
  -13   26   36      1.16      0.00
  -14   26   35     22.35      0.00
  -15   26   34     -5.76      0.00
  -16   26   33     -5.77      0.00
  -17   26   32      2.08      0.00
  -18   26   31      7.45      0.00
  -19   26   30     -7.88      0.00
  -20   26   29     -0.18      0.00
  -21   26   28     -7.90      0.00
  -22   26   27     20.16      0.00
  -23   26   26     -9.94      0.00
  -24   26   25     13.47      0.00
  -26   26   23     -1.49      0.00
  -26   27   22      4.87      0.00
  -26   28   21      0.69      0.00
  -26   29   20     10.02      0.00
  -26   30   19     -4.48      0.00
  -26   31   18     -7.19      0.00
  -26   32   17     -1.17      0.00
  -26   33   16     40.21      0.00
  -26   34   15      7.92      0.00
  -26   35   14      3.59      0.00
  -26   36   13     -4.16      0.00
  -26   37   12      0.50      0.00
    0   25   47     24.74      0.00
   -1   25   46     26.01      0.00
   -2   25   45     -0.33      0.00
   -3   25   44     -3.39      0.00
   -4   25   43     13.14      0.00
   -5   25   42     15.55      0.00
   -6   25   41    -19.98      0.00
   -7   25   40      1.88      0.00
   -8   25   39     -5.16      0.00
   -9   25   38     -0.71      0.00
  -10   25   37     -3.19      0.00
  -11   25   36     -3.92      0.00
  -12   25   35      0.21      0.00
  -13   25   34     10.92      0.00
  -14   25   33     19.10      0.00
  -15   25   32     -4.31      0.00
  -16   25   31      6.05      0.00
  -17   25   30     -5.41      0.00
  -18   25   29      6.34      0.00
  -19   25   28     14.38      0.00
  -20   25   27      5.54      0.00
  -21   25   26    -17.85      0.00
  -22   25   25    -13.44      0.00
  -23   25   24    -14.51      0.00
  -25   25   22    -13.28      0.00
  -25   26   21      0.86      0.00
  -25   27   20     17.83      0.00
  -25   28   19     12.25      0.00
  -25   29   18     16.61      0.00
  -25   30   17     -3.31      0.00
  -25   31   16      6.70      0.00
  -25   32   15     15.94      0.00
  -25   33   14     -7.15      0.00
  -25   34   13    -23.13      0.00
  -25   35   12     -0.80      0.00
  -25   36   11     10.13      0.00
  -25   37   10     -5.78      0.00
  -25   38    9      6.77      0.00
    0   24   45     -7.30      0.00
   -1   24   44    -11.22      0.00
   -2   24   43     -5.38      0.00
   -3   24   42     14.76      0.00
   -4   24   41     20.73      0.00
   -5   24   40    -14.25      0.00
   -6   24   39    -25.68      0.00
   -7   24   38      0.74      0.00
   -8   24   37     -3.13      0.00
   -9   24   36     -0.77      0.00
  -10   24   35      7.91      0.00
  -11   24   34      0.78      0.00
  -12   24   33     -8.63      0.00
  -13   24   32      0.85      0.00
  -14   24   31      8.23      0.00
  -15   24   30      7.01      0.00
  -16   24   29      5.58      0.00
  -17   24   28     -4.21      0.00
  -18   24   27     10.27      0.00
  -19   24   26    -10.16      0.00
  -20   24   25    -13.48      0.00
  -21   24   24     -4.39      0.00
  -22   24   23      8.51      0.00
  -24   24   21     -1.05      0.00
  -24   25   20     -1.05      0.00
  -24   26   19     11.29      0.00
  -24   27   18      0.31      0.00
  -24   28   17    -11.07      0.00
  -24   29   16      7.50      0.00
  -24   30   15      3.36      0.00
  -24   31   14     23.95      0.00
  -24   32   13    -11.90      0.00
  -24   33   12     -7.91      0.00
  -24   34   11     -3.30      0.00
  -24   35   10     10.61      0.00
  -24   36    9    -12.79      0.00
  -24   37    8    -18.41      0.00
  -24   38    7      7.95      0.00
    0   23   43     -5.79      0.00
   -1   23   42     -4.57      0.00
   -2   23   41      4.61      0.00
   -3   23   40     -5.27      0.00
   -4   23   39      5.09      0.00
   -5   23   38     -6.67      0.00
   -6   23   37    -21.18      0.00
   -7   23   36     -6.67      0.00
   -8   23   35    -11.22      0.00
   -9   23   34      1.50      0.00
  -10   23   33      5.35      0.00
  -11   23   32     -7.32      0.00
  -12   23   31    -11.52      0.00
  -13   23   30      7.52      0.00
  -14   23   29     10.44      0.00
  -15   23   28     -5.94      0.00
  -16   23   27     -3.39      0.00
  -17   23   26     -7.34      0.00
  -18   23   25     -1.30      0.00
  -19   23   24     -2.46      0.00
  -20   23   23     -1.22      0.00
  -21   23   22      0.61      0.00
  -23   23   20     -6.49      0.00
  -23   24   19     -7.35      0.00
  -23   25   18     18.51      0.00
  -23   26   17      4.40      0.00
  -23   27   16      8.22      0.00
  -23   28   15     -4.15      0.00
  -23   29   14     -1.49      0.00
  -23   30   13    -17.95      0.00
  -23   31   12    -13.36      0.00
  -23   32   11    -15.89      0.00
  -23   33   10     13.73      0.00
  -23   34    9     -5.87      0.00
  -23   35    8     -3.29      0.00
  -23   36    7      9.79      0.00
  -23   37    6    -15.10      0.00
  -23   38    5     -9.86      0.00
    0   22   41     13.91      0.00
   -1   22   40     -9.65      0.00
   -2   22   39     -1.48      0.00
   -3   22   38     -6.08      0.00
   -4   22   37      8.34      0.00
   -5   22   36    -16.82      0.00
   -6   22   35      0.70      0.00
   -7   22   34     -7.29      0.00
   -8   22   33      3.08      0.00
   -9   22   32     -7.77      0.00
  -10   22   31      5.86      0.00
  -11   22   30     -7.99      0.00
  -12   22   29      2.71      0.00
  -13   22   28     -9.15      0.00
  -14   22   27      0.06      0.00
  -15   22   26     -7.88      0.00
  -16   22   25      1.81      0.00
  -17   22   24     -6.63      0.00
  -18   22   23     -3.73      0.00
  -19   22   22     12.18      0.00
  -20   22   21      5.66      0.00
  -22   22   19      5.40      0.00
  -22   23   18     14.90      0.00
  -22   24   17     -2.12      0.00
  -22   25   16     -6.96      0.00
  -22   26   15      3.54      0.00
  -22   27   14    -12.46      0.00
  -22   28   13     -4.44      0.00
  -22   29   12    -14.56      0.00
  -22   30   11      3.55      0.00
  -22   31   10     11.48      0.00
  -22   32    9     -0.94      0.00
  -22   33    8      3.03      0.00
  -22   34    7    -19.50      0.00
  -22   35    6      6.36      0.00
  -22   36    5     -3.62      0.00
  -22   37    4    -17.57      0.00
  -22   38    3     -5.42      0.00
  -22   39    2     -6.23      0.00
    0   21   39    -23.82      0.00
   -1   21   38    -20.70      0.00
   -2   21   37     -8.04      0.00
   -3   21   36     -7.04      0.00
   -4   21   35      1.65      0.00
   -5   21   34      1.93      0.00
   -6   21   33      1.18      0.00
   -7   21   32     -1.50      0.00
   -8   21   31      8.55      0.00
   -9   21   30     -7.50      0.00
  -10   21   29      6.00      0.00
  -11   21   28     -7.80      0.00
  -12   21   27     -0.65      0.00
  -13   21   26     -4.87      0.00
  -14   21   25      9.95      0.00
  -15   21   24      1.72      0.00
  -16   21   23     -0.07      0.00
  -17   21   22      2.10      0.00
  -18   21   21      1.27      0.00
  -19   21   20     -8.84      0.00
  -21   21   18      5.75      0.00
  -21   22   17     13.48      0.00
  -21   23   16     -3.82      0.00
  -21   24   15    -14.96      0.00
  -21   25   14     -4.61      0.00
  -21   26   13     -2.95      0.00
  -21   27   12     -3.40      0.00
  -21   28   11     -3.11      0.00
  -21   29   10     -9.73      0.00
  -21   30    9    -13.38      0.00
  -21   31    8      2.16      0.00
  -21   32    7    -14.11      0.00
  -21   33    6     -6.41      0.00
  -21   34    5    -20.80      0.00
  -21   35    4      0.75      0.00
  -21   36    3     -5.30      0.00
  -21   37    2    -12.06      0.00
  -21   38    1      9.01      0.00
  -18   39    0     -1.80      0.00
    0   20   37    -19.94      0.00
   -1   20   36    -15.81      0.00
   -2   20   35     -9.48      0.00
   -3   20   34     10.20      0.00
   -4   20   33      0.07      0.00
   -5   20   32    -10.29      0.00
   -6   20   31     -4.25      0.00
   -7   20   30      3.64      0.00
   -8   20   29     -4.54      0.00
   -9   20   28     -2.74      0.00
  -10   20   27     -2.10      0.00
  -11   20   26     -9.35      0.00
  -12   20   25     -3.29      0.00
  -13   20   24     -0.03      0.00
  -14   20   23     -6.46      0.00
  -15   20   22     -3.06      0.00
  -16   20   21      1.00      0.00
  -17   20   20      0.96      0.00
  -18   20   19      0.76      0.00
  -20   20   17     -7.79      0.00
  -20   21   16     -5.20      0.00
  -20   22   15     -9.32      0.00
  -20   23   14    -11.76      0.00
  -20   24   13      7.64      0.00
  -20   25   12     -4.22      0.00
  -20   26   11     11.49      0.00
  -20   27   10     -1.65      0.00
  -20   28    9      3.66      0.00
  -20   29    8     14.52      0.00
  -20   30    7     -5.07      0.00
  -20   31    6     17.18      0.00
  -20   32    5    -20.16      0.00
  -20   33    4     13.95      0.00
  -20   34    3     -1.33      0.00
  -20   35    2      7.56      0.00
  -20   36    1      9.66      0.00
  -17   37    0    -17.15      0.00
  -18   38    1     12.56      0.00
  -19   39    2      3.92      0.00
    0   19   35     11.00      0.00
   -1   19   34     -0.08      0.00
   -2   19   33      6.10      0.00
   -3   19   32      9.01      0.00
   -4   19   31     -6.23      0.00
   -5   19   30     -4.13      0.00
   -6   19   29     10.35      0.00
   -7   19   28     -1.65      0.00
   -8   19   27      2.64      0.00
   -9   19   26      2.73      0.00
  -10   19   25     10.22      0.00
  -11   19   24     -3.52      0.00
  -12   19   23    -12.73      0.00
  -13   19   22    -14.19      0.00
  -14   19   21     12.53      0.00
  -15   19   20      1.61      0.00
  -16   19   19      3.06      0.00
  -17   19   18     -3.47      0.00
  -19   19   16     -2.99      0.00
  -19   20   15      8.22      0.00
  -19   21   14      1.13      0.00
  -19   22   13     20.12      0.00
  -19   23   12     12.67      0.00
  -19   24   11      9.99      0.00
  -19   25   10     -9.09      0.00
  -19   26    9    -16.26      0.00
  -19   27    8      5.73      0.00
  -19   28    7      9.87      0.00
  -19   29    6     -0.73      0.00
  -19   30    5      6.00      0.00
  -19   31    4     13.89      0.00
  -19   32    3     -9.91      0.00
  -19   33    2     -3.78      0.00
  -19   34    1    -22.23      0.00
  -16   35    0    -12.66      0.00
  -17   36    1    -17.48      0.00
  -18   37    2      1.12      0.00
  -19   38    3    -15.22      0.00
  -20   39    4     -8.55      0.00
    0   18   33     19.38      0.00
   -1   18   32     -8.28      0.00
   -2   18   31     -1.64      0.00
   -3   18   30     10.04      0.00
   -4   18   29     10.16      0.00
   -5   18   28      4.21      0.00
   -6   18   27     -0.61      0.00
   -7   18   26      2.29      0.00
   -8   18   25      9.10      0.00
   -9   18   24      6.85      0.00
  -10   18   23    -24.27      0.00
  -11   18   22      1.41      0.00
  -12   18   21     -1.96      0.00
  -13   18   20     -2.39      0.00
  -14   18   19     -0.60      0.00
  -15   18   18     -7.69      0.00
  -16   18   17      2.36      0.00
  -18   18   15      2.45      0.00
  -18   19   14     -7.04      0.00
  -18   20   13      2.17      0.00
  -18   21   12     -7.09      0.00
  -18   22   11     12.79      0.00
  -18   23   10     -7.59      0.00
  -18   24    9     -7.32      0.00
  -18   25    8     -1.93      0.00
  -18   26    7      1.22      0.00
  -18   27    6     14.00      0.00
  -18   28    5      6.47      0.00
  -18   29    4      6.84      0.00
  -18   30    3      6.07      0.00
  -18   31    2    -13.59      0.00
  -18   32    1     -7.27      0.00
  -15   33    0    -30.65      0.00
  -16   34    1     -3.44      0.00
  -17   35    2     -9.17      0.00
  -18   36    3      8.43      0.00
  -19   37    4    -13.10      0.00
  -20   38    5     11.11      0.00
  -21   39    6     12.18      0.00
    0   17   31      6.86      0.00
   -1   17   30      4.04      0.00
   -2   17   29      4.85      0.00
   -3   17   28     -5.18      0.00
   -4   17   27      2.01      0.00
   -5   17   26     -2.55      0.00
   -6   17   25     -5.01      0.00
   -7   17   24      4.31      0.00
   -8   17   23     -7.73      0.00
   -9   17   22     -7.02      0.00
  -10   17   21      5.10      0.00
  -11   17   20      3.62      0.00
  -12   17   19    -10.33      0.00
  -13   17   18    -12.79      0.00
  -14   17   17     16.64      0.00
  -15   17   16      9.13      0.00
  -17   17   14     23.91      0.00
  -17   18   13     11.25      0.00
  -17   19   12     -0.19      0.00
  -17   20   11      3.66      0.00
  -17   21   10     -2.89      0.00
  -17   22    9     -9.83      0.00
  -17   23    8      1.02      0.00
  -17   24    7     -8.47      0.00
  -17   25    6      1.97      0.00
  -17   26    5     16.62      0.00
  -17   27    4     22.37      0.00
  -17   28    3      2.46      0.00
  -17   29    2    -13.01      0.00
  -17   30    1      0.40      0.00
  -14   31    0     -4.19      0.00
  -15   32    1    -12.66      0.00
  -16   33    2    -12.25      0.00
  -17   34    3      2.70      0.00
  -18   35    4     -8.92      0.00
  -19   36    5      5.28      0.00
  -20   37    6      5.11      0.00
  -21   38    7     -1.81      0.00
    0   16   29      4.55      0.00
   -1   16   28    -13.77      0.00
   -2   16   27    -15.30      0.00
   -3   16   26      9.01      0.00
   -4   16   25      3.88      0.00
   -5   16   24    -12.83      0.00
   -6   16   23      2.80      0.00
   -7   16   22     -3.11      0.00
   -8   16   21      3.35      0.00
   -9   16   20     14.07      0.00
  -10   16   19     -1.98      0.00
  -11   16   18     -1.14      0.00
  -12   16   17     -5.61      0.00
  -13   16   16     13.23      0.00
  -14   16   15     -2.67      0.00
  -16   16   13    -17.03      0.00
  -16   17   12      5.68      0.00
  -16   18   11    -14.12      0.00
  -16   19   10      3.39      0.00
  -16   20    9     -8.44      0.00
  -16   21    8      8.69      0.00
  -16   22    7      0.19      0.00
  -16   23    6      2.69      0.00
  -16   24    5     -2.64      0.00
  -16   25    4      8.97      0.00
  -16   26    3      3.09      0.00
  -16   27    2     10.56      0.00
  -16   28    1     10.94      0.00
  -13   29    0     -6.12      0.00
  -14   30    1     12.50      0.00
  -15   31    2      1.80      0.00
  -16   32    3     13.70      0.00
  -17   33    4     -3.45      0.00
  -18   34    5      1.12      0.00
  -19   35    6     -0.62      0.00
  -20   36    7     -2.94      0.00
  -21   37    8      6.22      0.00
  -22   38    9    -15.61      0.00
    0   15   27     -0.40      0.00
   -1   15   26      3.61      0.00
   -2   15   25     11.39      0.00
   -3   15   24     -9.23      0.00
   -4   15   23      2.30      0.00
   -5   15   22     -6.18      0.00
   -6   15   21     17.44      0.00
   -7   15   20     -4.74      0.00
   -8   15   19     -6.07      0.00
   -9   15   18    -19.02      0.00
  -10   15   17      1.67      0.00
  -11   15   16      1.36      0.00
  -12   15   15    -11.91      0.00
  -13   15   14    -19.63      0.00
  -15   15   12     16.76      0.00
  -15   16   11     -7.10      0.00
  -15   17   10     -7.17      0.00
  -15   18    9    -10.96      0.00
  -15   19    8      2.21      0.00
  -15   20    7    -13.24      0.00
  -15   21    6     -3.25      0.00
  -15   22    5      4.20      0.00
  -15   23    4     -1.38      0.00
  -15   24    3     -4.96      0.00
  -15   25    2      0.90      0.00
  -15   26    1      8.20      0.00
  -12   27    0     21.19      0.00
  -13   28    1     12.85      0.00
  -14   29    2      0.04      0.00
  -15   30    3     -0.52      0.00
  -16   31    4     -5.82      0.00
  -17   32    5      4.68      0.00
  -18   33    6     -5.87      0.00
  -19   34    7      4.69      0.00
  -20   35    8      6.73      0.00
  -21   36    9     11.17      0.00
  -22   37   10     -6.10      0.00
  -23   38   11     -6.40      0.00
    0   14   25     -2.83      0.00
   -1   14   24    -16.63      0.00
   -2   14   23     13.56      0.00
   -3   14   22    -14.85      0.00
   -4   14   21     11.39      0.00
   -5   14   20     -8.38      0.00
   -6   14   19     -6.54      0.00
   -7   14   18    -20.40      0.00
   -8   14   17      8.72      0.00
   -9   14   16    -11.09      0.00
  -10   14   15     -5.95      0.00
  -11   14   14     -4.19      0.00
  -12   14   13     -5.52      0.00
  -14   14   11      8.36      0.00
  -14   15   10     -0.24      0.00
  -14   16    9      0.11      0.00
  -14   17    8    -19.97      0.00
  -14   18    7      4.25      0.00
  -14   19    6      3.93      0.00
  -14   20    5     12.66      0.00
  -14   21    4      2.36      0.00
  -14   22    3     -0.68      0.00
  -14   23    2     -0.35      0.00
  -14   24    1      0.30      0.00
  -11   25    0    -11.61      0.00
  -12   26    1      0.50      0.00
  -13   27    2      4.87      0.00
  -14   28    3      3.83      0.00
  -15   29    4     -4.43      0.00
  -16   30    5      3.69      0.00
  -17   31    6      0.78      0.00
  -18   32    7    -35.47      0.00
  -19   33    8    -15.00      0.00
  -20   34    9     -0.83      0.00
  -21   35   10     21.74      0.00
  -22   36   11      0.43      0.00
  -23   37   12     -5.36      0.00
  -24   38   13    -11.20      0.00
    0   13   23    -23.35      0.00
   -1   13   22    -37.57      0.00
   -2   13   21     -5.68      0.00
   -3   13   20     13.92      0.00
   -4   13   19     -5.71      0.00
   -5   13   18    -40.90      0.00
   -6   13   17      1.27      0.00
   -7   13   16     -8.08      0.00
   -8   13   15      2.70      0.00
   -9   13   14     15.61      0.00
  -10   13   13      4.44      0.00
  -11   13   12    -20.61      0.00
  -13   13   10    -30.78      0.00
  -13   14    9     -4.36      0.00
  -13   15    8     -5.15      0.00
  -13   16    7      4.71      0.00
  -13   17    6    -15.62      0.00
  -13   18    5     -2.13      0.00
  -13   19    4      9.28      0.00
  -13   20    3      0.91      0.00
  -13   21    2     -3.31      0.00
  -13   22    1      6.15      0.00
  -10   23    0     -4.27      0.00
  -11   24    1    -11.24      0.00
  -12   25    2      7.69      0.00
  -13   26    3     -4.11      0.00
  -14   27    4     -5.30      0.00
  -15   28    5     11.24      0.00
  -16   29    6    -12.35      0.00
  -17   30    7      0.41      0.00
  -18   31    8      0.06      0.00
  -19   32    9    -15.64      0.00
  -20   33   10     22.68      0.00
  -21   34   11     -7.04      0.00
  -22   35   12      8.03      0.00
  -23   36   13      1.55      0.00
  -24   37   14     14.54      0.00
    0   12   21     -5.24      0.00
   -1   12   20    -29.25      0.00
   -2   12   19      5.45      0.00
   -3   12   18    -21.98      0.00
   -4   12   17     14.68      0.00
   -5   12   16      9.15      0.00
   -6   12   15     13.01      0.00
   -7   12   14     -9.61      0.00
   -8   12   13      0.64      0.00
   -9   12   12     -4.28      0.00
  -10   12   11     -5.51      0.00
  -12   12    9     13.40      0.00
  -12   13    8    -35.92      0.00
  -12   14    7     15.72      0.00
  -12   15    6      6.07      0.00
  -12   16    5      0.43      0.00
  -12   17    4     14.68      0.00
  -12   18    3     -1.49      0.00
  -12   19    2      6.52      0.00
  -12   20    1      3.89      0.00
   -9   21    0      5.49      0.00
  -10   22    1      2.71      0.00
  -11   23    2     -2.72      0.00
  -12   24    3      0.01      0.00
  -13   25    4     -2.12      0.00
  -14   26    5     -9.88      0.00
  -15   27    6     12.14      0.00
  -16   28    7     -5.99      0.00
  -17   29    8    -22.23      0.00
  -18   30    9     -7.07      0.00
  -19   31   10     12.38      0.00
  -20   32   11     -5.68      0.00
  -21   33   12    -16.52      0.00
  -22   34   13    -20.90      0.00
  -23   35   14     10.30      0.00
  -24   36   15    -14.48      0.00
  -25   37   16     -1.56      0.00
    0   11   19    -16.25      0.00
   -1   11   18    -51.11      0.00
   -2   11   17     18.16      0.00
   -3   11   16      6.47      0.00
   -4   11   15     -4.80      0.00
   -5   11   14    -43.93      0.00
   -6   11   13     -6.70      0.00
   -7   11   12     26.62      0.00
   -8   11   11      4.89      0.00
   -9   11   10    -10.16      0.00
  -11   11    8    -27.00      0.00
  -11   12    7      6.79      0.00
  -11   13    6      7.00      0.00
  -11   14    5     -5.77      0.00
  -11   15    4    -12.50      0.00
  -11   16    3      1.85      0.00
  -11   17    2      1.76      0.00
  -11   18    1     -1.77      0.00
   -8   19    0      3.41      0.00
   -9   20    1      4.57      0.00
  -10   21    2      5.12      0.00
  -11   22    3     -6.52      0.00
  -12   23    4     -4.12      0.00
  -13   24    5     13.36      0.00
  -14   25    6      6.19      0.00
  -15   26    7      1.16      0.00
  -16   27    8      2.18      0.00
  -17   28    9     -1.23      0.00
  -18   29   10      1.01      0.00
  -19   30   11     -0.01      0.00
  -20   31   12     22.33      0.00
  -21   32   13    -26.75      0.00
  -22   33   14     -7.85      0.00
  -23   34   15      3.82      0.00
  -24   35   16     -8.61      0.00
  -25   36   17    -13.08      0.00
  -26   37   18     -2.51      0.00
    0   10   17     -8.88      0.00
   -1   10   16    -26.30      0.00
   -2   10   15    -18.13      0.00
   -3   10   14     -0.07      0.00
   -4   10   13     14.87      0.00
   -5   10   12    -35.91      0.00
   -6   10   11    -27.66      0.00
   -7   10   10     29.12      0.00
   -8   10    9      3.55      0.00
  -10   10    7     16.18      0.00
  -10   11    6     -2.42      0.00
  -10   12    5     -9.56      0.00
  -10   13    4     10.28      0.00
  -10   14    3     10.44      0.00
  -10   15    2     26.67      0.00
  -10   16    1    -34.29      0.00
   -7   17    0      3.40      0.00
   -8   18    1      2.34      0.00
   -9   19    2      2.87      0.00
  -10   20    3     -2.55      0.00
  -11   21    4     -9.58      0.00
  -12   22    5      5.97      0.00
  -13   23    6      9.95      0.00
  -14   24    7     -2.36      0.00
  -15   25    8     -6.93      0.00
  -16   26    9     -9.11      0.00
  -17   27   10    -17.28      0.00
  -18   28   11      6.73      0.00
  -19   29   12      3.22      0.00
  -20   30   13     -6.89      0.00
  -21   31   14     15.80      0.00
  -22   32   15     -5.02      0.00
  -23   33   16     14.69      0.00
  -24   34   17      2.90      0.00
  -25   35   18     12.45      0.00
  -26   36   19     -2.93      0.00
    0    9   15      4.19      0.00
   -1    9   14    -79.70      0.00
   -2    9   13     41.67      0.00
   -3    9   12    -55.19      0.00
   -4    9   11     24.73      0.00
   -5    9   10      6.74      0.00
   -6    9    9     17.13      0.00
   -7    9    8     -7.16      0.00
   -9    9    6      1.62      0.00
   -9   10    5      2.89      0.00
   -9   11    4    -20.98      0.00
   -9   12    3     12.82      0.00
   -9   13    2    -24.48      0.00
   -9   14    1    -19.32      0.00
   -6   15    0     19.61      0.00
   -7   16    1     -1.94      0.00
   -8   17    2     -3.68      0.00
   -9   18    3     -6.13      0.00
  -10   19    4    -15.87      0.00
  -11   20    5      2.14      0.00
  -12   21    6     -0.70      0.00
  -13   22    7      6.21      0.00
  -14   23    8     -3.83      0.00
  -15   24    9      0.54      0.00
  -16   25   10     -9.81      0.00
  -17   26   11     -5.22      0.00
  -18   27   12      4.81      0.00
  -19   28   13     -8.32      0.00
  -20   29   14     -2.72      0.00
  -21   30   15     12.00      0.00
  -22   31   16     10.90      0.00
  -23   32   17     -5.38      0.00
  -24   33   18     -5.58      0.00
  -25   34   19     -4.66      0.00
  -26   35   20      6.26      0.00
  -27   36   21     -4.23      0.00
    0    8   13     13.15      0.00
   -1    8   12   -123.82      0.00
   -2    8   11     29.97      0.00
   -3    8   10    -18.31      0.00
   -4    8    9     -0.43      0.00
   -5    8    8    -47.62      0.00
   -6    8    7    -29.62      0.00
   -8    8    5     15.13      0.00
   -8    9    4    -15.40      0.00
   -8   10    3    -47.26      0.00
   -8   11    2    -23.45      0.00
   -8   12    1     10.04      0.00
   -5   13    0     16.83      0.00
   -6   14    1    -25.86      0.00
   -7   15    2      7.47      0.00
   -8   16    3    -10.86      0.00
   -9   17    4    -20.34      0.00
  -10   18    5      4.43      0.00
  -11   19    6     -1.14      0.00
  -12   20    7      5.04      0.00
  -13   21    8      0.96      0.00
  -14   22    9     12.30      0.00
  -15   23   10      2.87      0.00
  -16   24   11     -2.01      0.00
  -17   25   12      2.79      0.00
  -18   26   13     11.86      0.00
  -19   27   14      0.41      0.00
  -20   28   15      6.09      0.00
  -21   29   16      4.63      0.00
  -22   30   17      7.46      0.00
  -23   31   18     20.04      0.00
  -24   32   19      1.17      0.00
  -25   33   20     -5.52      0.00
  -26   34   21     -6.27      0.00
  -27   35   22     -7.49      0.00
  -28   36   23     -7.33      0.00
    0    7   11    -22.26      0.00
   -1    7   10    -39.78      0.00
   -2    7    9     26.00      0.00
   -3    7    8    -61.75      0.00
   -4    7    7    -35.66      0.00
   -5    7    6    -40.76      0.00
   -7    7    4     16.10      0.00
   -7    8    3     -9.87      0.00
   -7    9    2     22.92      0.00
   -7   10    1    -11.91      0.00
   -4   11    0     -2.77      0.00
   -5   12    1     22.72      0.00
   -6   13    2     30.86      0.00
   -7   14    3    -12.37      0.00
   -8   15    4      8.32      0.00
   -9   16    5    -23.25      0.00
  -10   17    6      5.34      0.00
  -11   18    7      8.97      0.00
  -12   19    8     10.25      0.00
  -13   20    9      5.26      0.00
  -14   21   10     -0.05      0.00
  -15   22   11     -7.89      0.00
  -16   23   12      2.15      0.00
  -17   24   13     -0.51      0.00
  -18   25   14      3.09      0.00
  -19   26   15      6.76      0.00
  -20   27   16      0.58      0.00
  -21   28   17      6.10      0.00
  -22   29   18     -0.28      0.00
  -23   30   19     -8.18      0.00
  -24   31   20    -12.48      0.00
  -25   32   21    -13.14      0.00
  -26   33   22     16.99      0.00
  -27   34   23      6.41      0.00
  -28   35   24     19.62      0.00
    0    6    9    -10.73      0.00
   -1    6    8   -200.20      0.00
   -2    6    7     68.42      0.00
   -3    6    6     31.32      0.00
   -4    6    5     -7.01      0.00
   -6    6    3    -15.86      0.00
   -6    7    2     56.31      0.00
   -6    8    1     -8.77      0.00
   -3    9    0     11.20      0.00
   -4   10    1     50.22      0.00
   -5   11    2     -6.33      0.00
   -6   12    3     17.34      0.00
   -7   13    4      6.41      0.00
   -8   14    5     -7.02      0.00
   -9   15    6      2.70      0.00
  -10   16    7     -3.70      0.00
  -11   17    8     -4.81      0.00
  -12   18    9     -6.85      0.00
  -13   19   10      1.00      0.00
  -14   20   11     -9.96      0.00
  -15   21   12      3.73      0.00
  -16   22   13    -11.82      0.00
  -17   23   14     -8.42      0.00
  -18   24   15      8.70      0.00
  -19   25   16     22.95      0.00
  -20   26   17      5.78      0.00
  -21   27   18     -2.04      0.00
  -22   28   19     -4.90      0.00
  -23   29   20    -14.22      0.00
  -24   30   21    -25.03      0.00
  -25   31   22      6.16      0.00
  -26   32   23     14.32      0.00
  -27   33   24    -11.95      0.00
  -28   34   25     13.42      0.00
  -29   35   26     11.79      0.00
    0    5    7     36.10      0.00
   -1    5    6   -111.80      0.00
   -2    5    5    -94.23      0.00
   -3    5    4   -161.46      0.00
   -5    5    2   -130.77      0.00
   -5    6    1    -40.60      0.00
   -2    7    0     33.43      0.00
   -3    8    1    -33.90      0.00
   -4    9    2     18.18      0.00
   -5   10    3     54.48      0.00
   -6   11    4     -8.12      0.00
   -7   12    5     -3.22      0.00
   -8   13    6    -25.21      0.00
   -9   14    7     17.77      0.00
  -10   15    8    -17.08      0.00
  -11   16    9    -10.22      0.00
  -12   17   10     -6.53      0.00
  -13   18   11      7.29      0.00
  -14   19   12      3.68      0.00
  -15   20   13     -4.97      0.00
  -16   21   14     -1.31      0.00
  -17   22   15      6.30      0.00
  -18   23   16      2.90      0.00
  -19   24   17     13.69      0.00
  -20   25   18     -1.87      0.00
  -21   26   19     -1.11      0.00
  -22   27   20     -4.57      0.00
  -23   28   21      0.87      0.00
  -24   29   22     -9.33      0.00
  -25   30   23     15.95      0.00
  -26   31   24     19.01      0.00
  -27   32   25     17.69      0.00
  -28   33   26     10.44      0.00
  -29   34   27     16.89      0.00
    0    4    5     65.49      0.00
   -1    4    4   -233.90      0.00
   -2    4    3    100.23      0.00
   -4    4    1     71.75      0.00
   -1    5    0   -165.18      0.00
   -2    6    1     14.29      0.00
   -3    7    2     58.61      0.00
   -4    8    3    -18.76      0.00
   -5    9    4     34.10      0.00
   -6   10    5    -12.15      0.00
   -7   11    6    -42.86      0.00
   -8   12    7     -0.67      0.00
   -9   13    8      8.84      0.00
  -10   14    9      3.00      0.00
  -11   15   10     -5.88      0.00
  -12   16   11      2.27      0.00
  -13   17   12     -1.72      0.00
  -14   18   13      7.65      0.00
  -15   19   14     10.74      0.00
  -16   20   15     -9.27      0.00
  -17   21   16     -5.88      0.00
  -18   22   17    -11.46      0.00
  -19   23   18     -1.71      0.00
  -20   24   19     -1.01      0.00
  -21   25   20     -1.94      0.00
  -22   26   21     -9.96      0.00
  -23   27   22      2.52      0.00
  -24   28   23      9.11      0.00
  -25   29   24     -5.17      0.00
  -26   30   25     -5.23      0.00
  -27   31   26     -7.66      0.00
  -28   32   27      8.06      0.00
  -29   33   28     -1.16      0.00
    0    3    3     73.81      0.00
   -1    3    2   -328.91      0.00
    0    3    0     78.97      0.00
   -1    4    1     83.79      0.00
   -2    5    2     29.25      0.00
   -3    6    3    -20.70      0.00
   -4    7    4     32.23      0.00
   -5    8    5    -18.24      0.00
   -6    9    6     40.40      0.00
   -7   10    7    -24.57      0.00
   -8   11    8     -3.30      0.00
   -9   12    9    -16.37      0.00
  -10   13   10     23.82      0.00
  -11   14   11     10.94      0.00
  -12   15   12     -4.19      0.00
  -13   16   13      2.59      0.00
  -14   17   14      3.87      0.00
  -15   18   15      2.54      0.00
  -16   19   16     -0.40      0.00
  -17   20   17      7.05      0.00
  -18   21   18     -5.43      0.00
  -19   22   19    -10.27      0.00
  -20   23   20      3.01      0.00
  -21   24   21      0.87      0.00
  -22   25   22     -2.06      0.00
  -23   26   23      0.81      0.00
  -24   27   24     -3.96      0.00
  -25   28   25     -1.66      0.00
  -26   29   26    -20.04      0.00
  -27   30   27     -0.40      0.00
  -28   31   28     -5.50      0.00
  -29   32   29    -10.39      0.00
  -30   33   30    -18.34      0.00
   -1    1    4    362.41      0.00
   -2    2    5    -52.07      0.00
   -3    3    6   -150.47      0.00
   -4    4    7    283.77      0.00
   -5    5    8    -45.41      0.00
   -6    6    9     41.68      0.00
   -7    7   10    -19.88      0.00
   -8    8   11     36.08      0.00
   -9    9   12    -13.77      0.00
  -10   10   13      0.58      0.00
  -11   11   14    -25.75      0.00
  -12   12   15      5.37      0.00
  -13   13   16     -7.86      0.00
  -14   14   17     -4.65      0.00
  -15   15   18     -7.70      0.00
  -16   16   19    -16.57      0.00
  -17   17   20     10.27      0.00
  -18   18   21     -6.77      0.00
  -19   19   22      2.40      0.00
  -20   20   23      2.93      0.00
  -21   21   24     -7.21      0.00
  -22   22   25    -15.10      0.00
  -23   23   26      1.40      0.00
  -24   24   27     31.86      0.00
  -25   25   28      3.99      0.00
  -26   26   29    -18.52      0.00
  -27   27   30     -4.88      0.00
  -28   28   31    -29.46      0.00
  -29   29   32     -7.37      0.00
  -30   30   33    -20.35      0.00
  -31   31   34     -2.45      0.00
   -1    2    6   -299.30      0.00
   -2    3    7     97.31      0.00
   -3    4    8    -20.10      0.00
   -4    5    9     64.24      0.00
   -5    6   10    -18.72      0.00
   -6    7   11     27.27      0.00
   -7    8   12    -60.54      0.00
   -8    9   13     30.35      0.00
   -9   10   14      9.79      0.00
  -10   11   15     -3.02      0.00
  -11   12   16    -27.81      0.00
  -12   13   17     12.70      0.00
  -13   14   18     -3.29      0.00
  -14   15   19     -8.18      0.00
  -15   16   20     -3.89      0.00
  -16   17   21      6.53      0.00
  -17   18   22      2.90      0.00
  -18   19   23     -4.99      0.00
  -19   20   24     -1.92      0.00
  -20   21   25     21.00      0.00
  -21   22   26     -1.39      0.00
  -22   23   27      2.60      0.00
  -23   24   28     -2.63      0.00
  -24   25   29      8.48      0.00
  -25   26   30     -7.12      0.00
  -26   27   31     -7.37      0.00
  -27   28   32     20.18      0.00
  -28   29   33      3.08      0.00
  -29   30   34     -4.49      0.00
  -30   31   35      4.69      0.00
    0    2    7    144.05      0.00
   -1    3    8   -172.34      0.00
   -2    4    9    -63.31      0.00
   -3    5   10    -16.14      0.00
   -4    6   11    -45.40      0.00
   -5    7   12    -66.79      0.00
   -6    8   13     17.82      0.00
   -7    9   14    -21.44      0.00
   -8   10   15     -8.83      0.00
   -9   11   16     -2.62      0.00
  -10   12   17    -21.16      0.00
  -11   13   18     -6.46      0.00
  -12   14   19     -2.87      0.00
  -13   15   20     21.25      0.00
  -14   16   21     -0.79      0.00
  -15   17   22    -17.52      0.00
  -16   18   23     -1.91      0.00
  -17   19   24     -3.00      0.00
  -18   20   25      0.28      0.00
  -19   21   26      2.09      0.00
  -20   22   27      4.18      0.00
  -21   23   28     -4.33      0.00
  -22   24   29     -5.20      0.00
  -23   25   30    -17.09      0.00
  -24   26   31      1.01      0.00
  -25   27   32      6.54      0.00
  -26   28   33     11.80      0.00
  -27   29   34     -2.16      0.00
  -28   30   35     10.04      0.00
  -29   31   36     25.27      0.00
    0    3    9    140.55      0.00
   -1    4   10   -134.02      0.00
   -2    5   11     24.07      0.00
   -3    6   12    -39.39      0.00
   -4    7   13     30.71      0.00
   -5    8   14     34.23      0.00
   -6    9   15     -6.66      0.00
   -7   10   16      0.14      0.00
   -8   11   17      6.91      0.00
   -9   12   18     46.34      0.00
  -10   13   19    -11.47      0.00
  -11   14   20    -10.43      0.00
  -12   15   21     -6.00      0.00
  -13   16   22      3.38      0.00
  -14   17   23     -1.94      0.00
  -15   18   24    -10.28      0.00
  -16   19   25      7.94      0.00
  -17   20   26      5.26      0.00
  -18   21   27     -5.51      0.00
  -19   22   28      0.50      0.00
  -20   23   29     -3.81      0.00
  -21   24   30      1.06      0.00
  -22   25   31      1.00      0.00
  -23   26   32     -2.46      0.00
  -24   27   33     -6.89      0.00
  -25   28   34      4.99      0.00
  -26   29   35     -6.82      0.00
  -27   30   36      7.13      0.00
  -28   31   37     -5.49      0.00
  -29   32   38      4.29      0.00
    0    4   11     81.32      0.00
   -1    5   12   -201.69      0.00
   -2    6   13    -13.01      0.00
   -3    7   14    -30.58      0.00
   -4    8   15     -0.02      0.00
   -5    9   16    -28.92      0.00
   -6   10   17    -10.71      0.00
   -7   11   18    -26.26      0.00
   -8   12   19     -0.93      0.00
   -9   13   20     14.93      0.00
  -10   14   21     -4.47      0.00
  -11   15   22     -4.70      0.00
  -12   16   23      3.82      0.00
  -13   17   24      2.30      0.00
  -14   18   25      7.34      0.00
  -15   19   26     -1.91      0.00
  -16   20   27     -0.32      0.00
  -17   21   28     -1.89      0.00
  -18   22   29     -0.50      0.00
  -19   23   30      2.66      0.00
  -20   24   31      6.89      0.00
  -21   25   32      8.25      0.00
  -22   26   33      9.85      0.00
  -23   27   34      7.52      0.00
  -24   28   35    -18.35      0.00
  -25   29   36      6.91      0.00
  -26   30   37     -9.43      0.00
  -27   31   38     -5.38      0.00
  -28   32   39    -12.99      0.00
    0    5   13     59.31      0.00
   -1    6   14     53.28      0.00
   -2    7   15     -6.64      0.00
   -3    8   16    -63.39      0.00
   -4    9   17    -16.43      0.00
   -5   10   18    -25.70      0.00
   -6   11   19      7.66      0.00
   -7   12   20      4.72      0.00
   -8   13   21     12.44      0.00
   -9   14   22      2.98      0.00
  -10   15   23    -14.06      0.00
  -11   16   24     -8.80      0.00
  -12   17   25     11.76      0.00
  -13   18   26    -10.38      0.00
  -14   19   27      6.00      0.00
  -15   20   28     -6.96      0.00
  -16   21   29      2.52      0.00
  -17   22   30      6.28      0.00
  -18   23   31      0.39      0.00
  -19   24   32    -12.30      0.00
  -20   25   33     -8.12      0.00
  -21   26   34      1.25      0.00
  -22   27   35      4.49      0.00
  -23   28   36     -4.82      0.00
  -24   29   37     -8.91      0.00
  -25   30   38      6.06      0.00
  -26   31   39     -7.94      0.00
  -27   32   40     -5.44      0.00
    0    6   15     -5.67      0.00
   -1    7   16   -104.54      0.00
   -2    8   17    -22.81      0.00
   -3    9   18     -9.82      0.00
   -4   10   19      6.60      0.00
   -5   11   20     21.21      0.00
   -6   12   21      1.68      0.00
   -7   13   22     -0.48      0.00
   -8   14   23      7.32      0.00
   -9   15   24     11.57      0.00
  -10   16   25     -3.86      0.00
  -11   17   26     -3.34      0.00
  -12   18   27      0.85      0.00
  -13   19   28      6.08      0.00
  -14   20   29      1.73      0.00
  -15   21   30     -2.96      0.00
  -16   22   31      5.66      0.00
  -17   23   32      5.67      0.00
  -18   24   33    -13.11      0.00
  -19   25   34    -15.87      0.00
  -20   26   35     -1.88      0.00
  -21   27   36      9.88      0.00
  -22   28   37    -15.04      0.00
  -23   29   38      1.28      0.00
  -24   30   39      9.32      0.00
  -25   31   40      5.47      0.00
  -26   32   41     -8.51      0.00
    0    7   17     -6.01      0.00
   -1    8   18    -66.97      0.00
   -2    9   19    -20.81      0.00
   -3   10   20      3.78      0.00
   -4   11   21     25.68      0.00
   -5   12   22    -10.42      0.00
   -6   13   23    -15.22      0.00
   -7   14   24     -2.57      0.00
   -8   15   25      4.60      0.00
   -9   16   26     -2.55      0.00
  -10   17   27    -13.98      0.00
  -11   18   28    -18.53      0.00
  -12   19   29     -0.63      0.00
  -13   20   30     -2.11      0.00
  -14   21   31      4.38      0.00
  -15   22   32     -7.02      0.00
  -16   23   33    -16.48      0.00
  -17   24   34     -6.36      0.00
  -18   25   35    -15.41      0.00
  -19   26   36     -5.09      0.00
  -20   27   37      1.37      0.00
  -21   28   38    -14.87      0.00
  -22   29   39     -7.12      0.00
  -23   30   40     12.37      0.00
  -24   31   41      9.93      0.00
  -25   32   42      6.18      0.00
    0    8   19     29.79      0.00
   -1    9   20     -7.97      0.00
   -2   10   21      5.49      0.00
   -3   11   22    -48.38      0.00
   -4   12   23      0.02      0.00
   -5   13   24     -3.03      0.00
   -6   14   25      1.33      0.00
   -7   15   26      5.25      0.00
   -8   16   27      4.62      0.00
   -9   17   28    -10.39      0.00
  -10   18   29     -4.86      0.00
  -11   19   30    -13.72      0.00
  -12   20   31     -1.36      0.00
  -13   21   32      1.90      0.00
  -14   22   33      4.21      0.00
  -15   23   34      2.33      0.00
  -16   24   35     11.10      0.00
  -17   25   36     -6.71      0.00
  -18   26   37     -2.55      0.00
  -19   27   38     -0.32      0.00
  -20   28   39    -10.41      0.00
  -21   29   40     -4.32      0.00
  -22   30   41     18.35      0.00
  -23   31   42      0.86      0.00
  -24   32   43     -4.77      0.00
    0    9   21     20.64      0.00
   -1   10   22    -57.59      0.00
   -2   11   23      6.21      0.00
   -3   12   24     13.56      0.00
   -4   13   25     18.82      0.00
   -5   14   26     -6.16      0.00
   -6   15   27    -16.71      0.00
   -7   16   28      3.89      0.00
   -8   17   29     12.12      0.00
   -9   18   30     -0.60      0.00
  -10   19   31      4.11      0.00
  -11   20   32     -2.37      0.00
  -12   21   33     -0.33      0.00
  -13   22   34     15.05      0.00
  -14   23   35      0.73      0.00
  -15   24   36      0.18      0.00
  -16   25   37     -3.68      0.00
  -17   26   38      3.03      0.00
  -18   27   39      6.35      0.00
  -19   28   40     -9.68      0.00
  -20   29   41    -10.34      0.00
  -21   30   42     -1.61      0.00
  -22   31   43     16.77      0.00
  -23   32   44    -14.67      0.00
    0   10   23     15.97      0.00
   -1   11   24    -17.28      0.00
   -2   12   25     10.47      0.00
   -3   13   26      6.49      0.00
   -4   14   27     -0.42      0.00
   -5   15   28     -4.93      0.00
   -6   16   29     -5.18      0.00
   -7   17   30      4.49      0.00
   -8   18   31      5.03      0.00
   -9   19   32      3.46      0.00
  -10   20   33      4.85      0.00
  -11   21   34      2.58      0.00
  -12   22   35     10.64      0.00
  -13   23   36      5.09      0.00
  -14   24   37     -1.93      0.00
  -15   25   38    -18.09      0.00
  -16   26   39     -2.27      0.00
  -17   27   40     -1.06      0.00
  -18   28   41    -13.17      0.00
  -19   29   42    -29.42      0.00
  -20   30   43     -6.99      0.00
  -21   31   44     -1.16      0.00
  -22   32   45      4.89      0.00
    0   11   25     36.36      0.00
   -1   12   26    -24.48      0.00
   -2   13   27      4.53      0.00
   -3   14   28    -26.47      0.00
   -4   15   29     -7.15      0.00
   -5   16   30     -5.03      0.00
   -6   17   31     -3.75      0.00
   -7   18   32     -4.85      0.00
   -8   19   33      2.77      0.00
   -9   20   34     -0.80      0.00
  -10   21   35      0.60      0.00
  -11   22   36      4.36      0.00
  -12   23   37     -5.19      0.00
  -13   24   38     -3.21      0.00
  -14   25   39      3.81      0.00
  -15   26   40     -7.34      0.00
  -16   27   41      3.88      0.00
  -17   28   42     12.13      0.00
  -18   29   43     -1.97      0.00
  -19   30   44    -24.90      0.00
  -20   31   45     -1.97      0.00
  -21   32   46     -3.59      0.00
    0   12   27    -12.71      0.00
   -1   13   28    -24.87      0.00
   -2   14   29      2.70      0.00
   -3   15   30      8.08      0.00
   -4   16   31      4.49      0.00
   -5   17   32     -9.17      0.00
   -6   18   33     -3.31      0.00
   -7   19   34     -3.48      0.00
   -8   20   35      5.16      0.00
   -9   21   36     -8.68      0.00
  -10   22   37      2.27      0.00
  -11   23   38     -7.53      0.00
  -12   24   39     -9.00      0.00
  -13   25   40     -2.91      0.00
  -14   26   41     -2.80      0.00
  -15   27   42     -2.60      0.00
  -16   28   43      0.43      0.00
  -17   29   44     14.24      0.00
  -18   30   45    -11.22      0.00
  -19   31   46     -9.84      0.00
  -20   32   47      5.76      0.00
    0   13   29      3.24      0.00
   -1   14   30     -1.50      0.00
   -2   15   31     -1.52      0.00
   -3   16   32    -11.82      0.00
   -4   17   33     -1.87      0.00
   -5   18   34     -0.77      0.00
   -6   19   35      1.86      0.00
   -7   20   36    -14.85      0.00
   -8   21   37     -6.20      0.00
   -9   22   38      6.70      0.00
  -10   23   39     -1.57      0.00
  -11   24   40      6.65      0.00
  -12   25   41     11.21      0.00
  -13   26   42    -11.65      0.00
  -14   27   43     -3.13      0.00
  -15   28   44    -11.62      0.00
  -16   29   45      1.79      0.00
  -17   30   46     -1.48      0.00
  -18   31   47    -11.81      0.00
  -19   32   48     -7.67      0.00
    0   14   31     -0.41      0.00
   -1   15   32    -23.10      0.00
   -2   16   33     16.12      0.00
   -3   17   34     -3.77      0.00
   -4   18   35     13.30      0.00
   -5   19   36      1.81      0.00
   -6   20   37     -3.75      0.00
   -7   21   38     -7.87      0.00
   -8   22   39     -3.01      0.00
   -9   23   40     -3.21      0.00
  -10   24   41     -4.42      0.00
  -11   25   42     -0.77      0.00
  -12   26   43     15.38      0.00
  -13   27   44      8.50      0.00
  -14   28   45      4.34      0.00
  -15   29   46     10.50      0.00
  -16   30   47      6.43      0.00
  -17   31   48     -9.93      0.00
  -18   32   49     -5.95      0.00
    0   15   33      2.21      0.00
   -1   16   34     -5.88      0.00
   -2   17   35      4.01      0.00
   -3   18   36     -3.94      0.00
   -4   19   37     -0.07      0.00
   -5   20   38     -3.01      0.00
   -6   21   39      3.91      0.00
   -7   22   40     -7.70      0.00
   -8   23   41    -18.21      0.00
   -9   24   42     10.74      0.00
  -10   25   43     -5.50      0.00
  -11   26   44     -8.67      0.00
  -12   27   45     16.90      0.00
  -13   28   46      6.80      0.00
  -14   29   47     11.11      0.00
  -15   30   48      2.10      0.00
  -16   31   49      7.22      0.00
  -17   32   50      6.04      0.00
    0   16   35      4.07      0.00
   -1   17   36    -21.25      0.00
   -2   18   37     -9.18      0.00
   -3   19   38     -1.81      0.00
   -4   20   39      1.16      0.00
   -5   21   40      4.99      0.00
   -6   22   41      8.51      0.00
   -7   23   42      7.52      0.00
   -8   24   43      5.80      0.00
   -9   25   44      7.26      0.00
  -10   26   45    -13.56      0.00
  -11   27   46     -4.40      0.00
  -12   28   47      2.64      0.00
  -13   29   48      6.19      0.00
  -14   30   49      2.18      0.00
  -15   31   50     -4.29      0.00
  -16   32   51     15.28      0.00
    0   17   37     19.09      0.00
   -1   18   38     -4.30      0.00
   -2   19   39      7.82      0.00
   -3   20   40     -4.07      0.00
   -4   21   41    -18.66      0.00
   -5   22   42     -6.08      0.00
   -6   23   43     -0.13      0.00
   -7   24   44      5.97      0.00
   -8   25   45     -5.60      0.00
   -9   26   46    -12.90      0.00
  -10   27   47     -4.86      0.00
  -11   28   48      2.92      0.00
  -12   29   49     29.04      0.00
  -13   30   50     -5.31      0.00
  -14   31   51     -2.68      0.00
    0   18   39     -8.42      0.00
   -1   19   40     -2.96      0.00
   -2   20   41     17.05      0.00
   -3   21   42    -18.61      0.00
   -4   22   43     -0.36      0.00
   -5   23   44     -7.22      0.00
   -6   24   45     -5.05      0.00
   -7   25   46    -13.75      0.00
   -8   26   47     10.95      0.00
   -9   27   48     33.52      0.00
  -10   28   49     30.28      0.00
  -11   29   50     13.98      0.00
  -12   30   51      5.92      0.00
  -13   31   52    -13.35      0.00
    0   19   41     -8.77      0.00
   -1   20   42     20.76      0.00
   -2   21   43     32.43      0.00
   -3   22   44    -20.35      0.00
   -4   23   45      4.79      0.00
   -5   24   46    -19.15      0.00
   -6   25   47     -6.77      0.00
   -7   26   48    -10.50      0.00
   -8   27   49     17.89      0.00
   -9   28   50      7.00      0.00
  -10   29   51      2.52      0.00
  -11   30   52     -6.43      0.00
  -12   31   53      7.44      0.00
    0   20   43     17.47      0.00
   -1   21   44      4.47      0.00
   -2   22   45      5.40      0.00
   -3   23   46     -4.22      0.00
   -4   24   47     -4.00      0.00
   -5   25   48     -1.51      0.00
   -6   26   49      4.53      0.00
   -7   27   50     14.41      0.00
   -8   28   51     13.04      0.00
   -9   29   52     -0.63      0.00
  -10   30   53     -1.95      0.00
    0   21   45     -0.40      0.00
   -1   22   46    -15.63      0.00
   -2   23   47     -2.21      0.00
   -3   24   48      3.13      0.00
   -4   25   49      1.80      0.00
   -5   26   50     -2.08      0.00
   -6   27   51     14.10      0.00
   -7   28   52     -2.26      0.00
   -8   29   53      5.75      0.00
   -9   30   54      0.26      0.00
    0   22   47      8.00      0.00
   -1   23   48      9.47      0.00
   -2   24   49     19.28      0.00
   -3   25   50     -7.57      0.00
   -4   26   51     -0.36      0.00
   -5   27   52     13.08      0.00
   -6   28   53     15.40      0.00
   -7   29   54    -10.13      0.00
    0   23   49     15.24      0.00
   -1   24   50     22.93      0.00
   -2   25   51    -20.08      0.00
   -3   26   52     -6.17      0.00
   -4   27   53      0.95      0.00
   -5   28   54     12.82      0.00
   -6   29   55      2.99      0.00
    0   24   51     -5.85      0.00
   -1   25   52    -23.17      0.00
   -2   26   53      1.22      0.00
   -3   27   54     -9.20      0.00
   -4   28   55      5.50      0.00
    0   25   53    -30.91      0.00
   -1   26   54     -7.78      0.00
   -2   27   55    -11.37      0.00
    0   26   55      3.59      0.00
  -18   34   44     -3.51      0.00
  -19   34   43      7.86      0.00
  -20   34   42     -7.62      0.00
  -21   34   41     -0.83      0.00
  -22   34   40      7.45      0.00
  -23   34   39      2.69      0.00
  -24   34   38    -13.58      0.00
  -25   34   37     10.57      0.00
  -26   34   36     -2.66      0.00
  -27   34   35     -2.82      0.00
  -13   33   47     -1.36      0.00
  -14   33   46      3.63      0.00
  -15   33   45     29.35      0.00
  -16   33   44     -1.12      0.00
  -17   33   43    -10.43      0.00
  -18   33   42    -21.02      0.00
  -19   33   41     -5.89      0.00
  -20   33   40    -10.55      0.00
  -21   33   39     -8.81      0.00
  -22   33   38      1.15      0.00
  -23   33   37     -8.64      0.00
  -24   33   36      4.54      0.00
  -25   33   35      4.88      0.00
  -26   33   34    -14.40      0.00
  -27   33   33    -10.45      0.00
  -28   33   32     -1.41      0.00
  -29   33   31      0.17      0.00
  -10   32   48     -3.08      0.00
  -11   32   47     27.81      0.00
  -12   32   46     22.05      0.00
  -13   32   45     13.71      0.00
  -14   32   44     21.44      0.00
  -15   32   43     20.09      0.00
  -16   32   42    -12.07      0.00
  -17   32   41     -4.19      0.00
  -18   32   40      2.42      0.00
  -19   32   39      6.12      0.00
  -20   32   38    -18.87      0.00
  -21   32   37      3.66      0.00
  -22   32   36    -10.42      0.00
  -23   32   35      0.05      0.00
  -24   32   34     15.14      0.00
  -25   32   33      8.07      0.00
  -26   32   32      9.69      0.00
  -27   32   31      8.77      0.00
  -28   32   30     14.05      0.00
  -32   32   26     -4.37      0.00
  -32   33   25      3.66      0.00
   -7   31   49      1.77      0.00
   -8   31   48      7.47      0.00
   -9   31   47      7.63      0.00
  -10   31   46     24.25      0.00
  -11   31   45     17.38      0.00
  -12   31   44      1.21      0.00
  -13   31   43    -17.33      0.00
  -14   31   42     -1.79      0.00
  -15   31   41      8.26      0.00
  -16   31   40      2.32      0.00
  -17   31   39      4.70      0.00
  -18   31   38     10.38      0.00
  -19   31   37    -13.59      0.00
  -20   31   36      3.44      0.00
  -21   31   35      4.87      0.00
  -22   31   34      8.19      0.00
  -23   31   33     10.44      0.00
  -24   31   32      7.29      0.00
  -25   31   31      4.47      0.00
  -26   31   30     11.93      0.00
  -27   31   29     10.38      0.00
  -31   31   25    -12.74      0.00
  -31   32   24     -8.52      0.00
  -31   33   23      5.19      0.00
  -31   34   22     14.24      0.00
   -5   30   49     15.15      0.00
   -6   30   48    -12.34      0.00
   -7   30   47     15.50      0.00
   -8   30   46      8.38      0.00
   -9   30   45     -5.45      0.00
  -10   30   44     -5.23      0.00
  -11   30   43    -10.75      0.00
  -12   30   42     -8.10      0.00
  -13   30   41      2.07      0.00
  -14   30   40     -2.27      0.00
  -15   30   39      6.31      0.00
  -16   30   38      3.35      0.00
  -17   30   37     -6.08      0.00
  -18   30   36    -11.07      0.00
  -19   30   35      0.54      0.00
  -20   30   34     -0.07      0.00
  -21   30   33     14.97      0.00
  -22   30   32     -2.10      0.00
  -23   30   31     -8.79      0.00
  -24   30   30    -10.38      0.00
  -25   30   29     13.73      0.00
  -26   30   28     -5.58      0.00
  -30   30   24    -11.19      0.00
  -30   31   23     -2.79      0.00
  -30   32   22     15.95      0.00
  -30   33   21     19.84      0.00
  -30   34   20    -13.08      0.00
  -30   35   19      9.19      0.00
   -2   29   50     15.16      0.00
   -3   29   49     -0.62      0.00
   -4   29   48    -10.35      0.00
   -5   29   47      5.41      0.00
   -6   29   46      0.31      0.00
   -7   29   45      0.98      0.00
   -8   29   44     -4.34      0.00
   -9   29   43     -9.85      0.00
  -10   29   42     14.77      0.00
  -11   29   41     10.55      0.00
  -12   29   40    -11.55      0.00
  -13   29   39     13.71      0.00
  -14   29   38      3.63      0.00
  -15   29   37     -1.91      0.00
  -16   29   36    -10.53      0.00
  -17   29   35     -6.91      0.00
  -18   29   34      7.56      0.00
  -19   29   33      9.52      0.00
  -20   29   32     -2.45      0.00
  -21   29   31     -9.00      0.00
  -22   29   30      1.95      0.00
  -23   29   29     -5.48      0.00
  -24   29   28    -14.18      0.00
  -25   29   27    -14.03      0.00
  -29   29   23    -27.78      0.00
  -29   30   22     -8.28      0.00
  -29   31   21     18.27      0.00
  -29   32   20    -15.83      0.00
  -29   33   19    -25.05      0.00
  -29   34   18    -14.83      0.00
  -29   35   17      4.26      0.00
  -29   36   16      8.53      0.00
    0   28   50    -14.16      0.00
   -1   28   49    -10.94      0.00
   -2   28   48     -4.18      0.00
   -3   28   47      1.97      0.00
   -4   28   46    -14.10      0.00
   -5   28   45    -20.47      0.00
   -6   28   44    -19.46      0.00
   -7   28   43     22.40      0.00
   -8   28   42    -13.62      0.00
   -9   28   41     12.81      0.00
  -10   28   40     -0.50      0.00
  -11   28   39     -6.92      0.00
  -12   28   38      5.06      0.00
  -13   28   37      6.51      0.00
  -14   28   36     -4.49      0.00
  -15   28   35      9.84      0.00
  -16   28   34      4.21      0.00
  -17   28   33     -3.42      0.00
  -18   28   32     -5.22      0.00
  -19   28   31    -15.44      0.00
  -20   28   30     -5.03      0.00
  -21   28   29     -1.71      0.00
  -22   28   28      4.22      0.00
  -23   28   27     11.91      0.00
  -24   28   26    -11.47      0.00
  -28   28   22     -7.83      0.00
  -28   29   21      4.10      0.00
  -28   30   20     20.82      0.00
  -28   31   19      6.01      0.00
  -28   32   18    -12.05      0.00
  -28   33   17     -2.91      0.00
  -28   34   16      9.17      0.00
  -28   35   15     -7.71      0.00
  -28   36   14     -1.03      0.00
  -28   37   13      1.67      0.00
    0   27   48    -13.50      0.00
   -1   27   47     21.42      0.00
   -2   27   46     24.05      0.00
   -3   27   45      3.26      0.00
   -4   27   44     -0.20      0.00
   -5   27   43      3.26      0.00
   -6   27   42     16.66      0.00
   -7   27   41     12.30      0.00
   -8   27   40      7.44      0.00
   -9   27   39      5.82      0.00
  -10   27   38     -8.08      0.00
  -11   27   37     10.60      0.00
  -12   27   36     -0.81      0.00
  -13   27   35    -12.49      0.00
  -14   27   34     -7.47      0.00
  -15   27   33     -0.65      0.00
  -16   27   32    -21.62      0.00
  -17   27   31      0.52      0.00
  -18   27   30     -9.85      0.00
  -19   27   29      4.33      0.00
  -20   27   28     20.16      0.00
  -21   27   27     -7.53      0.00
  -22   27   26     -4.41      0.00
  -23   27   25      8.09      0.00
  -27   27   21     11.35      0.00
  -27   28   20     11.13      0.00
  -27   29   19      6.40      0.00
  -27   30   18     -7.93      0.00
  -27   31   17     11.06      0.00
  -27   32   16    -12.65      0.00
  -27   33   15      8.65      0.00
  -27   34   14     -8.29      0.00
  -27   35   13     -2.83      0.00
  -27   36   12     -0.95      0.00
  -27   37   11     -0.90      0.00
    0   26   46     48.12      0.00
   -1   26   45     13.99      0.00
   -2   26   44     -0.88      0.00
   -3   26   43     -6.47      0.00
   -4   26   42      5.23      0.00
   -5   26   41     16.74      0.00
   -6   26   40      6.22      0.00
   -7   26   39     12.09      0.00
   -8   26   38     10.63      0.00
   -9   26   37      6.69      0.00
  -10   26   36     -5.45      0.00
  -11   26   35     -5.54      0.00
  -12   26   34     -9.75      0.00
  -13   26   33      0.62      0.00
  -14   26   32      6.36      0.00
  -15   26   31     -5.60      0.00
  -16   26   30     -8.38      0.00
  -17   26   29      5.46      0.00
  -18   26   28     -6.15      0.00
  -19   26   27      7.91      0.00
  -20   26   26     -1.67      0.00
  -21   26   25    -18.29      0.00
  -22   26   24    -12.97      0.00
  -26   26   20      9.43      0.00
  -26   27   19      8.58      0.00
  -26   28   18      6.21      0.00
  -26   29   17      2.47      0.00
  -26   30   16      0.92      0.00
  -26   31   15    -10.71      0.00
  -26   32   14    -14.23      0.00
  -26   33   13     -6.25      0.00
  -26   34   12     -3.84      0.00
  -26   35   11      7.50      0.00
  -26   36   10      7.67      0.00
  -26   37    9     -4.45      0.00
  -26   38    8     -5.60      0.00
    0   25   44      1.98      0.00
   -1   25   43    -10.65      0.00
   -2   25   42      5.87      0.00
   -3   25   41     -0.33      0.00
   -4   25   40      7.12      0.00
   -5   25   39     -0.83      0.00
   -6   25   38     -4.91      0.00
   -7   25   37     15.62      0.00
   -8   25   36     14.84      0.00
   -9   25   35     -0.39      0.00
  -10   25   34     -9.03      0.00
  -11   25   33     -1.24      0.00
  -12   25   32     -0.94      0.00
  -13   25   31      4.54      0.00
  -14   25   30     12.42      0.00
  -15   25   29     -0.24      0.00
  -16   25   28     -5.89      0.00
  -17   25   27      1.16      0.00
  -18   25   26     -0.55      0.00
  -19   25   25      2.28      0.00
  -20   25   24     -0.55      0.00
  -21   25   23     -8.72      0.00
  -25   25   19      6.19      0.00
  -25   26   18      6.82      0.00
  -25   27   17     12.14      0.00
  -25   28   16     10.57      0.00
  -25   29   15     -4.77      0.00
  -25   30   14      1.70      0.00
  -25   31   13     -4.54      0.00
  -25   32   12      9.12      0.00
  -25   33   11      5.07      0.00
  -25   34   10     21.53      0.00
  -25   35    9      4.02      0.00
  -25   36    8    -17.37      0.00
  -25   37    7     12.30      0.00
  -25   38    6      8.39      0.00
    0   24   42     14.19      0.00
   -1   24   41      0.14      0.00
   -2   24   40     -9.34      0.00
   -3   24   39     -9.22      0.00
   -4   24   38      5.57      0.00
   -5   24   37      8.89      0.00
   -6   24   36      1.75      0.00
   -7   24   35      8.88      0.00
   -8   24   34      5.19      0.00
   -9   24   33      2.93      0.00
  -10   24   32      3.98      0.00
  -11   24   31     -2.56      0.00
  -12   24   30    -11.30      0.00
  -13   24   29     -1.77      0.00
  -14   24   28      1.56      0.00
  -15   24   27     -1.53      0.00
  -16   24   26    -19.84      0.00
  -17   24   25     16.02      0.00
  -18   24   24     -2.30      0.00
  -19   24   23      3.01      0.00
  -20   24   22     10.27      0.00
  -24   24   18     -8.75      0.00
  -24   25   17     -0.33      0.00
  -24   26   16     -1.43      0.00
  -24   27   15     -5.55      0.00
  -24   28   14     -6.69      0.00
  -24   29   13     -4.70      0.00
  -24   30   12     -7.08      0.00
  -24   31   11     25.48      0.00
  -24   32   10      6.68      0.00
  -24   33    9      0.35      0.00
  -24   34    8      3.52      0.00
  -24   35    7    -11.60      0.00
  -24   36    6     -9.94      0.00
  -24   37    5      2.42      0.00
  -24   38    4      0.84      0.00
    0   23   40     15.39      0.00
   -1   23   39     -7.88      0.00
   -2   23   38      4.97      0.00
   -3   23   37     12.72      0.00
   -4   23   36     31.50      0.00
   -5   23   35      0.62      0.00
   -6   23   34     -0.99      0.00
   -7   23   33     14.98      0.00
   -8   23   32      3.53      0.00
   -9   23   31      2.69      0.00
  -10   23   30     -8.58      0.00
  -11   23   29      0.48      0.00
  -12   23   28      2.76      0.00
  -13   23   27      2.09      0.00
  -14   23   26      6.07      0.00
  -15   23   25      2.48      0.00
  -16   23   24     -1.76      0.00
  -17   23   23      3.99      0.00
  -18   23   22      6.60      0.00
  -19   23   21     -3.73      0.00
  -23   23   17     -0.82      0.00
  -23   24   16     -9.40      0.00
  -23   25   15     -9.43      0.00
  -23   26   14      5.65      0.00
  -23   27   13      5.81      0.00
  -23   28   12      6.14      0.00
  -23   29   11     -1.41      0.00
  -23   30   10     13.36      0.00
  -23   31    9     12.45      0.00
  -23   32    8     -9.54      0.00
  -23   33    7     -0.37      0.00
  -23   34    6     14.06      0.00
  -23   35    5     11.91      0.00
  -23   36    4     -6.28      0.00
  -23   37    3      1.79      0.00
  -23   38    2     -3.43      0.00
    0   22   38      8.92      0.00
   -1   22   37      7.19      0.00
   -2   22   36     -8.41      0.00
   -3   22   35    -13.22      0.00
   -4   22   34      6.28      0.00
   -5   22   33      0.56      0.00
   -6   22   32      6.20      0.00
   -7   22   31     23.43      0.00
   -8   22   30      2.28      0.00
   -9   22   29      2.22      0.00
  -10   22   28      5.18      0.00
  -11   22   27     14.45      0.00
  -12   22   26      5.97      0.00
  -13   22   25      3.38      0.00
  -14   22   24     -1.35      0.00
  -15   22   23     12.71      0.00
  -16   22   22     10.00      0.00
  -17   22   21      7.76      0.00
  -18   22   20     -4.01      0.00
  -22   22   16     17.01      0.00
  -22   23   15     -8.12      0.00
  -22   24   14     -6.34      0.00
  -22   25   13    -12.97      0.00
  -22   26   12      1.22      0.00
  -22   27   11     18.62      0.00
  -22   28   10     12.67      0.00
  -22   29    9      3.29      0.00
  -22   30    8      4.23      0.00
  -22   31    7    -13.09      0.00
  -22   32    6      7.82      0.00
  -22   33    5     -6.31      0.00
  -22   34    4     17.86      0.00
  -22   35    3    -14.47      0.00
  -22   36    2    -12.13      0.00
  -22   37    1     14.30      0.00
  -16   38    0     27.72      0.00
  -17   39    1      9.14      0.00
    0   21   36     17.21      0.00
   -1   21   35    -22.08      0.00
   -2   21   34    -32.19      0.00
   -3   21   33    -10.13      0.00
   -4   21   32     13.76      0.00
   -5   21   31      5.57      0.00
   -6   21   30     -0.49      0.00
   -7   21   29      7.69      0.00
   -8   21   28     -2.79      0.00
   -9   21   27      7.48      0.00
  -10   21   26    -10.60      0.00
  -11   21   25      4.49      0.00
  -12   21   24      0.27      0.00
  -13   21   23      4.21      0.00
  -14   21   22      1.23      0.00
  -15   21   21     -0.49      0.00
  -16   21   20      5.20      0.00
  -17   21   19      0.05      0.00
  -21   21   15    -13.86      0.00
  -21   22   14     -9.59      0.00
  -21   23   13    -10.48      0.00
  -21   24   12    -12.71      0.00
  -21   25   11     -8.42      0.00
  -21   26   10     -5.60      0.00
  -21   27    9      3.05      0.00
  -21   28    8      2.27      0.00
  -21   29    7     -0.93      0.00
  -21   30    6    -15.62      0.00
  -21   31    5      5.50      0.00
  -21   32    4     10.62      0.00
  -21   33    3      3.15      0.00
  -21   34    2      1.40      0.00
  -21   35    1      2.83      0.00
  -15   36    0     10.56      0.00
  -16   37    1      4.51      0.00
  -17   38    2     11.91      0.00
  -18   39    3     -7.91      0.00
    0   20   34      7.42      0.00
   -1   20   33     -8.83      0.00
   -2   20   32     -1.10      0.00
   -3   20   31     20.32      0.00
   -4   20   30      4.87      0.00
   -5   20   29     -4.26      0.00
   -6   20   28      3.81      0.00
   -7   20   27      0.13      0.00
   -8   20   26     -7.71      0.00
   -9   20   25      4.02      0.00
  -10   20   24      0.24      0.00
  -11   20   23      4.24      0.00
  -12   20   22     -0.70      0.00
  -13   20   21    -10.60      0.00
  -14   20   20     -4.14      0.00
  -15   20   19      2.51      0.00
  -16   20   18      1.06      0.00
  -20   20   14    -21.79      0.00
  -20   21   13     16.23      0.00
  -20   22   12     -7.94      0.00
  -20   23   11     20.37      0.00
  -20   24   10     -3.65      0.00
  -20   25    9      4.16      0.00
  -20   26    8      2.59      0.00
  -20   27    7      6.58      0.00
  -20   28    6     19.04      0.00
  -20   29    5    -14.01      0.00
  -20   30    4     17.79      0.00
  -20   31    3      6.60      0.00
  -20   32    2     14.09      0.00
  -20   33    1     -4.43      0.00
  -14   34    0      9.41      0.00
  -15   35    1      6.62      0.00
  -16   36    2     26.26      0.00
  -17   37    3     17.67      0.00
  -18   38    4     -1.01      0.00
  -19   39    5     -8.51      0.00
    0   19   32     18.27      0.00
   -1   19   31     -2.86      0.00
   -2   19   30     11.65      0.00
   -3   19   29     -3.52      0.00
   -4   19   28     -1.74      0.00
   -5   19   27      3.41      0.00
   -6   19   26     -3.84      0.00
   -7   19   25     -4.17      0.00
   -8   19   24      0.56      0.00
   -9   19   23     -2.82      0.00
  -10   19   22     -4.52      0.00
  -11   19   21      3.15      0.00
  -12   19   20      4.74      0.00
  -13   19   19     -2.84      0.00
  -14   19   18     -1.54      0.00
  -15   19   17      5.77      0.00
  -19   19   13     -2.76      0.00
  -19   20   12     -7.53      0.00
  -19   21   11      7.75      0.00
  -19   22   10     -2.10      0.00
  -19   23    9      8.11      0.00
  -19   24    8      0.68      0.00
  -19   25    7     -2.49      0.00
  -19   26    6     -9.36      0.00
  -19   27    5    -14.21      0.00
  -19   28    4      4.16      0.00
  -19   29    3      8.75      0.00
  -19   30    2     13.75      0.00
  -19   31    1    -19.18      0.00
  -13   32    0     -2.74      0.00
  -14   33    1      3.05      0.00
  -15   34    2     -6.35      0.00
  -16   35    3    -11.81      0.00
  -17   36    4     15.40      0.00
  -18   37    5     -1.88      0.00
  -19   38    6     -7.86      0.00
  -20   39    7     -4.23      0.00
    0   18   30      8.01      0.00
   -1   18   29     -7.75      0.00
   -2   18   28     -6.02      0.00
   -3   18   27     -6.91      0.00
   -4   18   26      5.22      0.00
   -5   18   25    -12.98      0.00
   -6   18   24      1.29      0.00
   -7   18   23      5.99      0.00
   -8   18   22      2.42      0.00
   -9   18   21    -13.67      0.00
  -10   18   20     10.22      0.00
  -11   18   19      0.17      0.00
  -12   18   18      9.92      0.00
  -13   18   17      2.14      0.00
  -14   18   16    -11.05      0.00
  -18   18   12     -8.66      0.00
  -18   19   11     -4.71      0.00
  -18   20   10     -0.94      0.00
  -18   21    9     -0.95      0.00
  -18   22    8      3.76      0.00
  -18   23    7      9.02      0.00
  -18   24    6      5.67      0.00
  -18   25    5    -13.45      0.00
  -18   26    4      8.95      0.00
  -18   27    3      3.62      0.00
  -18   28    2      3.66      0.00
  -18   29    1     -3.25      0.00
  -12   30    0      3.67      0.00
  -13   31    1      2.17      0.00
  -14   32    2     12.03      0.00
  -15   33    3      3.38      0.00
  -16   34    4      5.19      0.00
  -17   35    5     -9.67      0.00
  -18   36    6      7.87      0.00
  -19   37    7    -10.25      0.00
  -20   38    8     -0.29      0.00
    0   17   28     -3.37      0.00
   -1   17   27     -2.44      0.00
   -2   17   26      3.64      0.00
   -3   17   25      1.30      0.00
   -4   17   24      1.18      0.00
   -5   17   23      7.10      0.00
   -6   17   22      1.31      0.00
   -7   17   21     -3.85      0.00
   -8   17   20     -5.49      0.00
   -9   17   19      1.76      0.00
  -10   17   18      3.56      0.00
  -11   17   17     -2.00      0.00
  -12   17   16      3.48      0.00
  -13   17   15      4.04      0.00
  -17   17   11     -1.48      0.00
  -17   18   10     -5.49      0.00
  -17   19    9     12.14      0.00
  -17   20    8      6.55      0.00
  -17   21    7      7.51      0.00
  -17   22    6      1.30      0.00
  -17   23    5     -2.94      0.00
  -17   24    4     -3.59      0.00
  -17   25    3      6.19      0.00
  -17   26    2      6.57      0.00
  -17   27    1      7.69      0.00
  -11   28    0    -11.23      0.00
  -12   29    1     -8.46      0.00
  -13   30    2      8.57      0.00
  -14   31    3     27.66      0.00
  -15   32    4      9.11      0.00
  -16   33    5     -6.56      0.00
  -17   34    6    -15.20      0.00
  -18   35    7    -13.93      0.00
  -19   36    8    -15.94      0.00
  -20   37    9     21.39      0.00
  -21   38   10      1.44      0.00
    0   16   26     20.61      0.00
   -1   16   25     -3.87      0.00
   -2   16   24    -12.50      0.00
   -3   16   23     -3.05      0.00
   -4   16   22     -2.85      0.00
   -5   16   21     -1.34      0.00
   -6   16   20     16.37      0.00
   -7   16   19      2.26      0.00
   -8   16   18    -19.94      0.00
   -9   16   17     -7.11      0.00
  -10   16   16     -9.37      0.00
  -11   16   15     12.81      0.00
  -12   16   14     10.15      0.00
  -16   16   10      6.30      0.00
  -16   17    9      2.68      0.00
  -16   18    8    -12.01      0.00
  -16   19    7     -3.07      0.00
  -16   20    6     -3.93      0.00
  -16   21    5     11.12      0.00
  -16   22    4     11.91      0.00
  -16   23    3      1.34      0.00
  -16   24    2     -0.70      0.00
  -16   25    1      5.43      0.00
  -10   26    0     16.73      0.00
  -11   27    1     14.98      0.00
  -12   28    2     -2.99      0.00
  -13   29    3      7.12      0.00
  -14   30    4     11.42      0.00
  -15   31    5     10.11      0.00
  -16   32    6      8.84      0.00
  -17   33    7     11.18      0.00
  -18   34    8      2.23      0.00
  -19   35    9     -6.23      0.00
  -20   36   10     -7.61      0.00
  -21   37   11     10.38      0.00
  -22   38   12      5.07      0.00
    0   15   24      5.95      0.00
   -1   15   23     -7.74      0.00
   -2   15   22     21.05      0.00
   -3   15   21    -20.22      0.00
   -4   15   20      1.77      0.00
   -5   15   19     -0.83      0.00
   -6   15   18     10.11      0.00
   -7   15   17      5.81      0.00
   -8   15   16    -27.14      0.00
   -9   15   15      7.78      0.00
  -10   15   14      5.57      0.00
  -11   15   13     -6.17      0.00
  -15   15    9      3.14      0.00
  -15   16    8      7.07      0.00
  -15   17    7      4.93      0.00
  -15   18    6    -17.66      0.00
  -15   19    5     -6.20      0.00
  -15   20    4      8.84      0.00
  -15   21    3      0.22      0.00
  -15   22    2     -9.19      0.00
  -15   23    1     -0.10      0.00
   -9   24    0      3.08      0.00
  -10   25    1      7.64      0.00
  -11   26    2      5.88      0.00
  -12   27    3     -7.38      0.00
  -13   28    4      0.30      0.00
  -14   29    5      3.51      0.00
  -15   30    6      5.47      0.00
  -16   31    7     11.92      0.00
  -17   32    8     -9.47      0.00
  -18   33    9     -6.16      0.00
  -19   34   10      6.61      0.00
  -20   35   11      9.54      0.00
  -21   36   12     -1.58      0.00
  -22   37   13     -3.61      0.00
  -23   38   14     -4.44      0.00
    0   14   22    -20.23      0.00
   -1   14   21      6.32      0.00
   -2   14   20     11.12      0.00
   -3   14   19      1.15      0.00
   -4   14   18     -7.93      0.00
   -5   14   17     -7.31      0.00
   -6   14   16     -4.99      0.00
   -7   14   15     21.58      0.00
   -8   14   14    -20.64      0.00
   -9   14   13     -0.65      0.00
  -10   14   12    -17.69      0.00
  -14   14    8    -28.27      0.00
  -14   15    7      1.80      0.00
  -14   16    6      5.00      0.00
  -14   17    5      3.60      0.00
  -14   18    4    -11.32      0.00
  -14   19    3      1.53      0.00
  -14   20    2      3.49      0.00
  -14   21    1     -7.96      0.00
   -8   22    0      2.13      0.00
   -9   23    1      0.82      0.00
  -10   24    2      2.95      0.00
  -11   25    3    -12.58      0.00
  -12   26    4     -4.39      0.00
  -13   27    5    -16.92      0.00
  -14   28    6     -2.36      0.00
  -15   29    7     -1.51      0.00
  -16   30    8     10.47      0.00
  -17   31    9      0.02      0.00
  -18   32   10    -20.01      0.00
  -19   33   11     -0.45      0.00
  -20   34   12     17.88      0.00
  -21   35   13      5.46      0.00
  -22   36   14     -4.37      0.00
  -23   37   15     19.38      0.00
  -24   38   16      1.01      0.00
    0   13   20     31.39      0.00
   -1   13   19     -0.59      0.00
   -2   13   18    -11.93      0.00
   -3   13   17     -9.94      0.00
   -4   13   16     24.21      0.00
   -5   13   15     10.27      0.00
   -6   13   14     -3.37      0.00
   -7   13   13     20.27      0.00
   -8   13   12    -21.61      0.00
   -9   13   11    -15.99      0.00
  -13   13    7    -10.84      0.00
  -13   14    6     15.17      0.00
  -13   15    5     16.38      0.00
  -13   16    4      3.92      0.00
  -13   17    3     25.37      0.00
  -13   18    2    -11.51      0.00
  -13   19    1     -7.47      0.00
   -7   20    0      9.94      0.00
   -8   21    1    -11.57      0.00
   -9   22    2     -8.78      0.00
  -10   23    3     -2.56      0.00
  -11   24    4    -15.81      0.00
  -12   25    5      2.79      0.00
  -13   26    6     14.17      0.00
  -14   27    7     -7.37      0.00
  -15   28    8    -12.80      0.00
  -16   29    9     -7.73      0.00
  -17   30   10      2.96      0.00
  -18   31   11    -12.57      0.00
  -19   32   12      3.56      0.00
  -20   33   13     11.42      0.00
  -21   34   14     -0.83      0.00
  -22   35   15     -1.40      0.00
  -23   36   16      0.33      0.00
  -24   37   17     19.31      0.00
    0   12   18     -1.26      0.00
   -1   12   17     -7.69      0.00
   -2   12   16     79.32      0.00
   -3   12   15    -14.90      0.00
   -4   12   14      7.04      0.00
   -5   12   13      2.00      0.00
   -6   12   12      6.87      0.00
   -7   12   11     -6.29      0.00
   -8   12   10    -18.97      0.00
  -12   12    6     -9.00      0.00
  -12   13    5      9.29      0.00
  -12   14    4     -6.23      0.00
  -12   15    3     -7.18      0.00
  -12   16    2      1.10      0.00
  -12   17    1     16.11      0.00
   -6   18    0     -1.54      0.00
   -7   19    1     -9.25      0.00
   -8   20    2     -0.78      0.00
   -9   21    3     -1.98      0.00
  -10   22    4     -1.46      0.00
  -11   23    5     -8.49      0.00
  -12   24    6      6.42      0.00
  -13   25    7      3.26      0.00
  -14   26    8     -8.67      0.00
  -15   27    9     -1.50      0.00
  -16   28   10    -10.23      0.00
  -17   29   11     -4.89      0.00
  -18   30   12     -3.28      0.00
  -19   31   13      3.03      0.00
  -20   32   14      6.97      0.00
  -21   33   15    -35.60      0.00
  -22   34   16     13.97      0.00
  -23   35   17      8.67      0.00
  -24   36   18    -10.44      0.00
  -25   37   19     18.72      0.00
    0   11   16     57.23      0.00
   -1   11   15     42.41      0.00
   -2   11   14     22.40      0.00
   -3   11   13      0.99      0.00
   -4   11   12    -21.64      0.00
   -5   11   11      5.45      0.00
   -6   11   10    -27.96      0.00
   -7   11    9     17.60      0.00
  -11   11    5     40.79      0.00
  -11   12    4    -29.66      0.00
  -11   13    3      0.20      0.00
  -11   14    2     -9.20      0.00
  -11   15    1      0.21      0.00
   -5   16    0      6.25      0.00
   -6   17    1     12.50      0.00
   -7   18    2     -2.33      0.00
   -8   19    3     -8.98      0.00
   -9   20    4      0.68      0.00
  -10   21    5      1.43      0.00
  -11   22    6     -5.84      0.00
  -12   23    7      8.54      0.00
  -13   24    8      4.69      0.00
  -14   25    9      1.17      0.00
  -15   26   10      6.03      0.00
  -16   27   11      9.94      0.00
  -17   28   12     -2.65      0.00
  -18   29   13     17.86      0.00
  -19   30   14      8.16      0.00
  -20   31   15      8.03      0.00
  -21   32   16    -13.36      0.00
  -22   33   17      0.11      0.00
  -23   34   18     24.14      0.00
  -24   35   19      2.02      0.00
  -25   36   20    -14.74      0.00
  -26   37   21     -4.60      0.00
    0   10   14     34.95      0.00
   -1   10   13      6.72      0.00
   -2   10   12     13.51      0.00
   -3   10   11     28.42      0.00
   -4   10   10    -19.44      0.00
   -5   10    9     31.74      0.00
   -6   10    8     12.49      0.00
  -10   10    4      3.17      0.00
  -10   11    3     15.82      0.00
  -10   12    2    -21.62      0.00
  -10   13    1    -19.48      0.00
   -4   14    0     13.16      0.00
   -5   15    1     -7.83      0.00
   -6   16    2     12.63      0.00
   -7   17    3      2.05      0.00
   -8   18    4     -7.62      0.00
   -9   19    5      0.49      0.00
  -10   20    6      2.82      0.00
  -11   21    7     -2.66      0.00
  -12   22    8      6.44      0.00
  -13   23    9     -0.49      0.00
  -14   24   10      4.92      0.00
  -15   25   11      9.65      0.00
  -16   26   12      3.57      0.00
  -17   27   13     -0.96      0.00
  -18   28   14      6.12      0.00
  -19   29   15     -4.66      0.00
  -20   30   16     -4.49      0.00
  -21   31   17      8.33      0.00
  -22   32   18     -1.38      0.00
  -23   33   19      4.06      0.00
  -24   34   20      5.72      0.00
  -25   35   21     -2.18      0.00
  -26   36   22    -10.48      0.00
    0    9   12      4.87      0.00
   -1    9   11     42.87      0.00
   -2    9   10     43.95      0.00
   -3    9    9     25.01      0.00
   -4    9    8    -38.47      0.00
   -5    9    7     19.81      0.00
   -9    9    3    -53.34      0.00
   -9   10    2      9.10      0.00
   -9   11    1     44.43      0.00
   -3   12    0     17.16      0.00
   -4   13    1    -19.64      0.00
   -5   14    2    -23.53      0.00
   -6   15    3    -16.61      0.00
   -7   16    4     36.66      0.00
   -8   17    5     -0.54      0.00
   -9   18    6    -11.67      0.00
  -10   19    7      5.89      0.00
  -11   20    8      3.57      0.00
  -12   21    9     -1.04      0.00
  -13   22   10      5.87      0.00
  -14   23   11      7.63      0.00
  -15   24   12     -7.55      0.00
  -16   25   13      0.32      0.00
  -17   26   14      8.28      0.00
  -18   27   15     -5.03      0.00
  -19   28   16    -12.93      0.00
  -20   29   17     -9.54      0.00
  -21   30   18      4.76      0.00
  -22   31   19     -6.46      0.00
  -23   32   20    -19.87      0.00
  -24   33   21    -39.88      0.00
  -25   34   22      5.63      0.00
  -26   35   23    -13.21      0.00
  -27   36   24     16.59      0.00
    0    8   10     30.47      0.00
   -1    8    9     39.18      0.00
   -2    8    8    -42.87      0.00
   -3    8    7    -35.24      0.00
   -4    8    6     -7.27      0.00
   -8    8    2     -2.42      0.00
   -8    9    1     -2.67      0.00
   -2   10    0     -7.30      0.00
   -3   11    1     41.69      0.00
   -4   12    2    -18.35      0.00
   -5   13    3      5.46      0.00
   -6   14    4      4.39      0.00
   -7   15    5    -19.52      0.00
   -8   16    6    -15.41      0.00
   -9   17    7     22.65      0.00
  -10   18    8     -3.17      0.00
  -11   19    9     -3.72      0.00
  -12   20   10      3.72      0.00
  -13   21   11      1.65      0.00
  -14   22   12      1.17      0.00
  -15   23   13     -4.37      0.00
  -16   24   14    -10.40      0.00
  -17   25   15     -0.72      0.00
  -18   26   16      7.24      0.00
  -19   27   17     -1.59      0.00
  -20   28   18      4.80      0.00
  -21   29   19      7.75      0.00
  -22   30   20    -25.41      0.00
  -23   31   21      0.12      0.00
  -24   32   22    -12.51      0.00
  -25   33   23     -3.03      0.00
  -26   34   24     16.75      0.00
  -27   35   25     -8.72      0.00
    0    7    8   -105.62      0.00
   -1    7    7     15.68      0.00
   -2    7    6    175.83      0.00
   -3    7    5     24.16      0.00
   -7    7    1    -30.84      0.00
   -1    8    0    -24.30      0.00
   -2    9    1     -5.43      0.00
   -3   10    2    -32.13      0.00
   -4   11    3     82.99      0.00
   -5   12    4     12.03      0.00
   -6   13    5     12.65      0.00
   -7   14    6    -44.32      0.00
   -8   15    7     -1.44      0.00
   -9   16    8    -13.08      0.00
  -10   17    9     16.81      0.00
  -11   18   10    -16.23      0.00
  -12   19   11     -5.81      0.00
  -13   20   12      5.50      0.00
  -14   21   13      3.44      0.00
  -15   22   14     -5.98      0.00
  -16   23   15    -14.27      0.00
  -17   24   16      3.93      0.00
  -18   25   17      5.83      0.00
  -19   26   18     -2.69      0.00
  -20   27   19     -4.51      0.00
  -21   28   20     10.51      0.00
  -22   29   21     -6.28      0.00
  -23   30   22     10.14      0.00
  -24   31   23     -0.65      0.00
  -25   32   24      3.77      0.00
  -26   33   25    -20.84      0.00
  -27   34   26     15.82      0.00
  -28   35   27     -4.40      0.00
    0    6    6    156.47      0.00
   -1    6    5     44.60      0.00
   -2    6    4    138.63      0.00
    0    6    0    -72.10      0.00
   -1    7    1    -30.15      0.00
   -2    8    2      8.90      0.00
   -3    9    3     15.15      0.00
   -4   10    4     46.24      0.00
   -5   11    5     78.45      0.00
   -6   12    6    -37.49      0.00
   -7   13    7    -11.41      0.00
   -8   14    8     -4.33      0.00
   -9   15    9     17.11      0.00
  -10   16   10     -3.40      0.00
  -11   17   11     12.90      0.00
  -12   18   12     11.11      0.00
  -13   19   13      2.90      0.00
  -14   20   14     -1.95      0.00
  -15   21   15      1.52      0.00
  -16   22   16      8.09      0.00
  -17   23   17      6.48      0.00
  -18   24   18      2.42      0.00
  -19   25   19     -5.39      0.00
  -20   26   20     11.42      0.00
  -21   27   21     -3.60      0.00
  -22   28   22     -4.52      0.00
  -23   29   23      5.69      0.00
  -24   30   24     -5.61      0.00
  -25   31   25     15.51      0.00
  -26   32   26      3.28      0.00
  -27   33   27    -20.27      0.00
  -28   34   28     19.53      0.00
    0    5    4    -74.12      0.00
   -1    5    3    -78.40      0.00
    0    5    1    -60.59      0.00
   -1    6    2     50.94      0.00
   -2    7    3     55.61      0.00
   -3    8    4    -44.44      0.00
   -4    9    5     45.23      0.00
   -5   10    6      7.82      0.00
   -6   11    7     28.08      0.00
   -7   12    8     12.86      0.00
   -8   13    9     -5.05      0.00
   -9   14   10     -0.89      0.00
  -10   15   11    -12.46      0.00
  -11   16   12      0.91      0.00
  -12   17   13      3.34      0.00
  -13   18   14      3.97      0.00
  -14   19   15    -10.08      0.00
  -15   20   16     -0.01      0.00
  -16   21   17     -6.45      0.00
  -17   22   18      3.83      0.00
  -18   23   19     -5.38      0.00
  -19   24   20      8.15      0.00
  -20   25   21     -0.78      0.00
  -21   26   22      2.86      0.00
  -22   27   23      6.00      0.00
  -23   28   24     12.84      0.00
  -24   29   25     -9.43      0.00
  -25   30   26     -7.30      0.00
  -26   31   27      9.77      0.00
  -27   32   28      7.26      0.00
  -28   33   29      3.66      0.00
  -29   34   30     14.78      0.00
    0    4    2    -13.65      0.00
    0    0    6    296.44      0.00
   -1    1    7    -83.68      0.00
   -3    3    9    131.94      0.00
   -4    4   10     -4.20      0.00
   -5    5   11     12.92      0.00
   -6    6   12     24.28      0.00
   -7    7   13     67.43      0.00
   -8    8   14    -58.49      0.00
   -9    9   15     15.09      0.00
  -10   10   16    -12.65      0.00
  -11   11   17      1.56      0.00
  -12   12   18     13.89      0.00
  -13   13   19     -3.63      0.00
  -14   14   20    -19.96      0.00
  -15   15   21     -3.22      0.00
  -16   16   22     15.91      0.00
  -17   17   23      3.49      0.00
  -18   18   24     -0.72      0.00
  -19   19   25      0.89      0.00
  -20   20   26      6.42      0.00
  -21   21   27      3.51      0.00
  -22   22   28    -17.84      0.00
  -23   23   29      2.18      0.00
  -24   24   30     10.41      0.00
  -25   25   31     -9.06      0.00
  -26   26   32      9.33      0.00
  -27   27   33     19.59      0.00
  -28   28   34    -15.72      0.00
  -29   29   35     -4.68      0.00
  -30   30   36    -18.79      0.00
    0    1    8    171.71      0.00
   -1    2    9     78.70      0.00
   -2    3   10     10.83      0.00
   -3    4   11     37.58      0.00
   -4    5   12    -10.25      0.00
   -5    6   13     23.25      0.00
   -6    7   14      5.35      0.00
   -7    8   15     21.68      0.00
   -8    9   16    -63.65      0.00
   -9   10   17    -14.24      0.00
  -10   11   18     31.86      0.00
  -11   12   19      9.19      0.00
  -12   13   20     -2.71      0.00
  -13   14   21     -6.26      0.00
  -14   15   22      5.41      0.00
  -15   16   23     -3.54      0.00
  -16   17   24      1.87      0.00
  -17   18   25     11.33      0.00
  -18   19   26      6.98      0.00
  -19   20   27    -10.22      0.00
  -20   21   28    -10.30      0.00
  -21   22   29     -1.99      0.00
  -22   23   30      3.18      0.00
  -23   24   31     -0.98      0.00
  -24   25   32     15.28      0.00
  -25   26   33      8.47      0.00
  -26   27   34     10.87      0.00
  -27   28   35     -4.17      0.00
  -28   29   36     13.59      0.00
  -29   30   37      9.24      0.00
  -30   31   38      7.21      0.00
   -2    2    8    572.34      0.00
    0    2   10   -157.65      0.00
   -1    3   11   -121.61      0.00
   -2    4   12     59.03      0.00
   -3    5   13      5.52      0.00
   -4    6   14     -6.00      0.00
   -5    7   15     11.39      0.00
   -6    8   16    -10.04      0.00
   -7    9   17     23.62      0.00
   -8   10   18    -24.22      0.00
   -9   11   19      0.62      0.00
  -10   12   20     -1.94      0.00
  -11   13   21    -14.75      0.00
  -12   14   22     -0.71      0.00
  -13   15   23      5.36      0.00
  -14   16   24     -9.17      0.00
  -15   17   25      5.51      0.00
  -16   18   26      8.40      0.00
  -17   19   27      0.68      0.00
  -18   20   28    -15.42      0.00
  -19   21   29    -14.48      0.00
  -20   22   30     -0.96      0.00
  -21   23   31     24.29      0.00
  -22   24   32    -13.24      0.00
  -23   25   33     -6.82      0.00
  -24   26   34    -11.42      0.00
  -25   27   35    -16.32      0.00
  -26   28   36     -3.96      0.00
  -27   29   37     -7.73      0.00
  -28   30   38     -8.13      0.00
  -29   31   39     -3.81      0.00
    0    3   12    -75.87      0.00
   -1    4   13     30.58      0.00
   -2    5   14    185.40      0.00
   -3    6   15    -32.20      0.00
   -4    7   16    -15.73      0.00
   -5    8   17     32.96      0.00
   -6    9   18     -0.97      0.00
   -7   10   19     14.72      0.00
   -8   11   20    -14.85      0.00
   -9   12   21    -11.42      0.00
  -10   13   22     10.30      0.00
  -11   14   23     11.27      0.00
  -12   15   24     11.84      0.00
  -13   16   25      4.31      0.00
  -14   17   26     -9.60      0.00
  -15   18   27     12.53      0.00
  -16   19   28     -6.25      0.00
  -17   20   29    -12.32      0.00
  -18   21   30     -3.18      0.00
  -19   22   31      3.13      0.00
  -20   23   32     -3.50      0.00
  -21   24   33     -7.12      0.00
  -22   25   34     10.78      0.00
  -23   26   35     -5.18      0.00
  -24   27   36     -6.57      0.00
  -25   28   37      1.78      0.00
  -26   29   38     -3.22      0.00
  -27   30   39     -8.99      0.00
  -28   31   40    -19.81      0.00
    0    4   14    175.15      0.00
   -1    5   15      7.65      0.00
   -2    6   16     -7.03      0.00
   -3    7   17    -29.04      0.00
   -4    8   18      0.93      0.00
   -5    9   19     19.23      0.00
   -6   10   20     24.79      0.00
   -7   11   21     -4.00      0.00
   -8   12   22    -12.15      0.00
   -9   13   23      0.75      0.00
  -10   14   24     -5.12      0.00
  -11   15   25     -7.01      0.00
  -12   16   26     13.84      0.00
  -13   17   27      1.96      0.00
  -14   18   28     -4.43      0.00
  -15   19   29      2.51      0.00
  -16   20   30     -4.76      0.00
  -17   21   31      7.31      0.00
  -18   22   32      8.72      0.00
  -19   23   33    -14.71      0.00
  -20   24   34     -8.32      0.00
  -21   25   35     14.52      0.00
  -22   26   36     10.87      0.00
  -23   27   37      0.11      0.00
  -24   28   38     -1.92      0.00
  -25   29   39    -22.04      0.00
  -26   30   40     -7.53      0.00
  -27   31   41     -3.12      0.00
    0    5   16    -13.80      0.00
   -1    6   17    -23.61      0.00
   -2    7   18     76.06      0.00
   -3    8   19     -6.23      0.00
   -4    9   20    -12.88      0.00
   -5   10   21      3.10      0.00
   -6   11   22     -2.49      0.00
   -7   12   23     12.28      0.00
   -8   13   24    -18.98      0.00
   -9   14   25      5.02      0.00
  -10   15   26     -5.29      0.00
  -11   16   27      5.08      0.00
  -12   17   28     -8.17      0.00
  -13   18   29     -4.15      0.00
  -14   19   30     -0.13      0.00
  -15   20   31      1.79      0.00
  -16   21   32      2.03      0.00
  -17   22   33     -2.45      0.00
  -18   23   34    -10.80      0.00
  -19   24   35     -0.76      0.00
  -20   25   36      5.58      0.00
  -21   26   37     16.01      0.00
  -22   27   38     -0.07      0.00
  -23   28   39    -15.99      0.00
  -24   29   40      8.11      0.00
  -25   30   41     -9.93      0.00
  -26   31   42     -6.64      0.00
    0    6   18     58.03      0.00
   -1    7   19     -3.80      0.00
   -2    8   20     34.01      0.00
   -3    9   21     -1.80      0.00
   -4   10   22      4.93      0.00
   -5   11   23     27.85      0.00
   -6   12   24     -0.62      0.00
   -7   13   25     -1.12      0.00
   -8   14   26    -10.43      0.00
   -9   15   27      9.08      0.00
  -10   16   28     -2.35      0.00
  -11   17   29     17.19      0.00
  -12   18   30      2.27      0.00
  -13   19   31      9.22      0.00
  -14   20   32    -13.10      0.00
  -15   21   33     -7.77      0.00
  -16   22   34    -14.13      0.00
  -17   23   35      3.17      0.00
  -18   24   36    -13.79      0.00
  -19   25   37    -12.12      0.00
  -20   26   38     -3.59      0.00
  -21   27   39     -9.37      0.00
  -22   28   40    -12.84      0.00
  -23   29   41      8.16      0.00
  -24   30   42     17.10      0.00
  -25   31   43    -13.66      0.00
  -26   32   44     -1.64      0.00
    0    7   20     88.56      0.00
   -1    8   21     -0.31      0.00
   -2    9   22     -6.08      0.00
   -3   10   23     -6.79      0.00
   -4   11   24      4.55      0.00
   -5   12   25    -18.96      0.00
   -6   13   26     17.13      0.00
   -7   14   27      9.11      0.00
   -8   15   28     -5.46      0.00
   -9   16   29     -9.96      0.00
  -10   17   30     -1.92      0.00
  -11   18   31     10.00      0.00
  -12   19   32     -3.56      0.00
  -13   20   33    -10.18      0.00
  -14   21   34     15.74      0.00
  -15   22   35     -5.17      0.00
  -16   23   36     -8.16      0.00
  -17   24   37      5.47      0.00
  -18   25   38    -11.54      0.00
  -19   26   39     20.46      0.00
  -20   27   40     17.42      0.00
  -21   28   41      8.97      0.00
  -22   29   42     14.57      0.00
  -23   30   43      2.65      0.00
  -24   31   44     -9.34      0.00
  -25   32   45     -5.11      0.00
    0    8   22     24.88      0.00
   -1    9   23     25.39      0.00
   -2   10   24     -0.47      0.00
   -3   11   25     -7.93      0.00
   -4   12   26    -17.32      0.00
   -5   13   27     11.15      0.00
   -6   14   28     14.19      0.00
   -7   15   29      4.51      0.00
   -8   16   30    -21.12      0.00
   -9   17   31     -0.38      0.00
  -10   18   32     -3.85      0.00
  -11   19   33     -2.18      0.00
  -12   20   34     -6.73      0.00
  -13   21   35      8.98      0.00
  -14   22   36      8.80      0.00
  -15   23   37      1.82      0.00
  -16   24   38      6.50      0.00
  -17   25   39      9.67      0.00
  -18   26   40      6.86      0.00
  -19   27   41     15.97      0.00
  -20   28   42     -6.62      0.00
  -21   29   43     11.23      0.00
  -22   30   44      3.77      0.00
  -23   31   45      5.97      0.00
  -24   32   46     -1.23      0.00
    0    9   24     42.39      0.00
   -1   10   25     13.21      0.00
   -2   11   26    -33.07      0.00
   -3   12   27      8.34      0.00
   -4   13   28     12.32      0.00
   -5   14   29     -4.43      0.00
   -6   15   30     -5.03      0.00
   -7   16   31     -0.09      0.00
   -8   17   32     -6.04      0.00
   -9   18   33     -0.85      0.00
  -10   19   34    -15.98      0.00
  -11   20   35      4.20      0.00
  -12   21   36      6.38      0.00
  -13   22   37      3.43      0.00
  -14   23   38      2.71      0.00
  -15   24   39      1.74      0.00
  -16   25   40    -21.55      0.00
  -17   26   41      2.01      0.00
  -18   27   42     -6.33      0.00
  -19   28   43    -26.85      0.00
  -20   29   44     -4.61      0.00
  -21   30   45      2.26      0.00
  -22   31   46      4.02      0.00
  -23   32   47     12.83      0.00
    0   10   26    -13.80      0.00
   -1   11   27     14.19      0.00
   -2   12   28     -9.75      0.00
   -3   13   29      2.74      0.00
   -4   14   30     -2.45      0.00
   -5   15   31    -10.07      0.00
   -6   16   32     -0.33      0.00
   -7   17   33     -2.79      0.00
   -8   18   34     -3.44      0.00
   -9   19   35      0.84      0.00
  -10   20   36      3.80      0.00
  -11   21   37     10.65      0.00
  -12   22   38      1.71      0.00
  -13   23   39     -3.44      0.00
  -14   24   40     -1.77      0.00
  -15   25   41    -10.36      0.00
  -16   26   42     -2.83      0.00
  -17   27   43      0.62      0.00
  -18   28   44     -5.43      0.00
  -19   29   45    -12.17      0.00
  -20   30   46     -4.15      0.00
  -21   31   47      0.09      0.00
  -22   32   48      2.45      0.00
    0   11   28     -0.43      0.00
   -1   12   29     14.65      0.00
   -2   13   30     -7.16      0.00
   -3   14   31     -6.57      0.00
   -4   15   32    -13.88      0.00
   -5   16   33     -4.86      0.00
   -6   17   34      2.60      0.00
   -7   18   35      2.61      0.00
   -8   19   36     -0.49      0.00
   -9   20   37     -5.17      0.00
  -10   21   38     -5.69      0.00
  -11   22   39     10.54      0.00
  -12   23   40     -8.97      0.00
  -13   24   41     -2.33      0.00
  -14   25   42    -15.06      0.00
  -15   26   43     -2.89      0.00
  -16   27   44     -6.77      0.00
  -17   28   45     -0.65      0.00
  -18   29   46     -1.07      0.00
  -19   30   47     -2.79      0.00
  -20   31   48     -5.61      0.00
  -21   32   49     10.60      0.00
    0   12   30      8.51      0.00
   -1   13   31     12.37      0.00
   -2   14   32    -14.39      0.00
   -3   15   33     -0.92      0.00
   -4   16   34      5.12      0.00
   -5   17   35      6.19      0.00
   -6   18   36      1.42      0.00
   -7   19   37     -5.07      0.00
   -8   20   38     -3.16      0.00
   -9   21   39      1.61      0.00
  -10   22   40     -0.39      0.00
  -11   23   41      4.13      0.00
  -12   24   42     -7.60      0.00
  -13   25   43    -11.75      0.00
  -14   26   44     -3.37      0.00
  -15   27   45    -16.55      0.00
  -16   28   46      1.75      0.00
  -17   29   47     -9.34      0.00
  -18   30   48     -6.19      0.00
  -19   31   49     -2.90      0.00
  -20   32   50      6.83      0.00
    0   13   32    -10.26      0.00
   -1   14   33     -7.93      0.00
   -2   15   34      3.85      0.00
   -3   16   35     12.93      0.00
   -4   17   36     -1.46      0.00
   -5   18   37      4.52      0.00
   -6   19   38     -3.62      0.00
   -7   20   39     -0.78      0.00
   -8   21   40      0.88      0.00
   -9   22   41     -0.26      0.00
  -10   23   42     -9.50      0.00
  -11   24   43      6.94      0.00
  -12   25   44    -13.30      0.00
  -13   26   45      0.09      0.00
  -14   27   46     -3.24      0.00
  -15   28   47    -10.78      0.00
  -16   29   48     27.99      0.00
  -17   30   49      0.33      0.00
  -18   31   50      2.81      0.00
    0   14   34    -10.61      0.00
   -1   15   35      7.27      0.00
   -2   16   36     -0.98      0.00
   -3   17   37     -9.56      0.00
   -4   18   38     -2.17      0.00
   -5   19   39      6.34      0.00
   -6   20   40      4.86      0.00
   -7   21   41    -13.55      0.00
   -8   22   42      0.37      0.00
   -9   23   43     -8.67      0.00
  -10   24   44     -4.37      0.00
  -11   25   45    -12.28      0.00
  -12   26   46      9.25      0.00
  -13   27   47      6.78      0.00
  -14   28   48     15.33      0.00
  -15   29   49      8.58      0.00
  -16   30   50      5.49      0.00
  -17   31   51     -5.29      0.00
    0   15   36      1.87      0.00
   -1   16   37     -6.59      0.00
   -2   17   38     -6.70      0.00
   -3   18   39      6.90      0.00
   -4   19   40     11.15      0.00
   -5   20   41     -2.54      0.00
   -6   21   42     14.34      0.00
   -7   22   43     -8.49      0.00
   -8   23   44     -1.94      0.00
   -9   24   45     -5.15      0.00
  -10   25   46    -14.38      0.00
  -11   26   47     -2.49      0.00
  -12   27   48     -9.26      0.00
  -13   28   49      4.71      0.00
  -14   29   50      9.14      0.00
  -15   30   51    -11.70      0.00
  -16   31   52      8.66      0.00
    0   16   38      9.16      0.00
   -1   17   39     -3.89      0.00
   -2   18   40     22.26      0.00
   -3   19   41     -2.83      0.00
   -4   20   42     -4.18      0.00
   -5   21   43      4.81      0.00
   -6   22   44      8.53      0.00
   -7   23   45    -14.04      0.00
   -8   24   46     11.57      0.00
   -9   25   47    -12.93      0.00
  -10   26   48    -13.34      0.00
  -11   27   49      0.62      0.00
  -12   28   50      6.57      0.00
  -13   29   51     -2.17      0.00
  -14   30   52      5.94      0.00
  -15   31   53     17.72      0.00
    0   17   40     29.08      0.00
   -1   18   41      2.93      0.00
   -2   19   42     13.38      0.00
   -3   20   43    -16.57      0.00
   -4   21   44     -8.30      0.00
   -5   22   45      5.26      0.00
   -6   23   46      5.97      0.00
   -7   24   47     -4.94      0.00
   -8   25   48      8.00      0.00
   -9   26   49     -1.86      0.00
  -10   27   50     16.13      0.00
  -11   28   51     -1.25      0.00
  -12   29   52      1.86      0.00
  -13   30   53      6.39      0.00
  -14   31   54     12.99      0.00
    0   18   42     30.24      0.00
   -1   19   43      4.49      0.00
   -2   20   44     -8.81      0.00
   -3   21   45     -6.88      0.00
   -4   22   46      5.53      0.00
   -5   23   47     -0.03      0.00
   -6   24   48     -3.51      0.00
   -7   25   49    -13.68      0.00
   -8   26   50     17.06      0.00
   -9   27   51     19.30      0.00
  -10   28   52      7.29      0.00
  -11   29   53     -3.93      0.00
  -12   30   54      9.93      0.00
    0   19   44     13.18      0.00
   -1   20   45    -11.59      0.00
   -2   21   46     -2.17      0.00
   -3   22   47      7.98      0.00
   -4   23   48    -15.20      0.00
   -5   24   49    -17.93      0.00
   -6   25   50      3.36      0.00
   -7   26   51     -4.89      0.00
   -8   27   52     12.47      0.00
   -9   28   53     -8.30      0.00
  -10   29   54    -10.65      0.00
  -11   30   55      4.61      0.00
    0   20   46    -17.61      0.00
   -1   21   47     12.54      0.00
   -2   22   48    -11.72      0.00
   -3   23   49     10.12      0.00
   -4   24   50    -11.30      0.00
   -5   25   51     -5.12      0.00
   -6   26   52      0.64      0.00
   -7   27   53     -0.79      0.00
   -8   28   54      8.13      0.00
   -9   29   55     -7.46      0.00
  -10   30   56      8.19      0.00
    0   21   48     23.20      0.00
   -1   22   49    -21.58      0.00
   -2   23   50    -14.66      0.00
   -3   24   51    -11.74      0.00
   -4   25   52      7.47      0.00
   -5   26   53      4.87      0.00
   -6   27   54     22.01      0.00
   -7   28   55      0.40      0.00
   -8   29   56      5.34      0.00
    0   22   50    -10.49      0.00
   -1   23   51    -12.31      0.00
   -2   24   52      6.91      0.00
   -3   25   53      3.21      0.00
   -4   26   54    -13.48      0.00
   -5   27   55      7.49      0.00
   -6   28   56     16.02      0.00
    0   23   52    -11.49      0.00
   -1   24   53     -6.49      0.00
   -2   25   54      5.93      0.00
   -3   26   55      3.31      0.00
   -4   27   56     10.74      0.00
   -5   28   57     25.34      0.00
    0   24   54    -21.36      0.00
   -1   25   55    -14.16      0.00
   -2   26   56      4.91      0.00
   -3   27   57     -9.11      0.00
    0   25   56    -23.57      0.00
   -1   26   57     -1.25      0.00
  -19   32   51     18.44      0.00
  -15   34   44      1.10      0.00
  -16   34   43    -12.06      0.00
  -17   34   42    -10.82      0.00
  -18   34   41     -5.41      0.00
  -19   34   40      0.87      0.00
  -20   34   39      4.95      0.00
  -21   34   38      3.75      0.00
  -22   34   37     -9.49      0.00
  -23   34   36      9.51      0.00
  -24   34   35     -4.06      0.00
  -25   34   34     16.94      0.00
  -26   34   33    -20.37      0.00
  -27   34   32      5.26      0.00
  -28   34   31    -14.89      0.00
  -12   33   45    -10.66      0.00
  -13   33   44      2.39      0.00
  -14   33   43     10.11      0.00
  -15   33   42     25.31      0.00
  -16   33   41    -10.58      0.00
  -17   33   40    -15.11      0.00
  -18   33   39     -6.92      0.00
  -19   33   38      1.13      0.00
  -20   33   37    -14.16      0.00
  -21   33   36     15.36      0.00
  -22   33   35     10.27      0.00
  -23   33   34      6.98      0.00
  -24   33   33      6.41      0.00
  -25   33   32     -2.91      0.00
  -26   33   31    -13.91      0.00
  -27   33   30    -16.32      0.00
   -8   32   47     -3.89      0.00
   -9   32   46     -6.19      0.00
  -10   32   45     -7.95      0.00
  -11   32   44     27.58      0.00
  -12   32   43    -21.30      0.00
  -13   32   42      8.09      0.00
  -14   32   41      1.68      0.00
  -15   32   40    -11.24      0.00
  -16   32   39     12.09      0.00
  -17   32   38     16.32      0.00
  -18   32   37     10.01      0.00
  -19   32   36      6.26      0.00
  -20   32   35      1.18      0.00
  -21   32   34     22.43      0.00
  -22   32   33     -0.86      0.00
  -23   32   32      6.10      0.00
  -24   32   31      4.97      0.00
  -25   32   30     20.67      0.00
  -26   32   29      1.14      0.00
  -32   32   23    -28.25      0.00
  -32   33   22    -12.27      0.00
   -6   31   47      3.43      0.00
   -7   31   46     -8.73      0.00
   -8   31   45     -7.98      0.00
   -9   31   44     -3.93      0.00
  -10   31   43      6.99      0.00
  -11   31   42     18.30      0.00
  -12   31   41    -19.66      0.00
  -13   31   40    -15.82      0.00
  -14   31   39    -14.49      0.00
  -15   31   38     -4.22      0.00
  -16   31   37     -3.74      0.00
  -17   31   36     16.38      0.00
  -18   31   35      3.22      0.00
  -19   31   34      4.06      0.00
  -20   31   33      1.59      0.00
  -21   31   32      7.51      0.00
  -22   31   31    -19.44      0.00
  -23   31   30      5.53      0.00
  -24   31   29    -14.85      0.00
  -25   31   28      7.45      0.00
  -31   31   22    -30.64      0.00
  -31   32   21     -2.02      0.00
  -31   33   20     -2.66      0.00
  -31   34   19      0.46      0.00
  -31   35   18     -8.35      0.00
   -3   30   48     -5.25      0.00
   -4   30   47     -2.10      0.00
   -5   30   46     17.97      0.00
   -6   30   45     -8.31      0.00
   -7   30   44      0.74      0.00
   -8   30   43      1.68      0.00
   -9   30   42     11.56      0.00
  -10   30   41    -18.24      0.00
  -11   30   40     15.15      0.00
  -12   30   39    -11.52      0.00
  -13   30   38     30.16      0.00
  -14   30   37     13.59      0.00
  -15   30   36     -8.77      0.00
  -16   30   35     -5.51      0.00
  -17   30   34      1.42      0.00
  -18   30   33    -10.63      0.00
  -19   30   32     -4.32      0.00
  -20   30   31     -2.18      0.00
  -21   30   30      4.14      0.00
  -22   30   29     -7.62      0.00
  -23   30   28     11.96      0.00
  -24   30   27    -15.73      0.00
  -30   30   21    -22.21      0.00
  -30   31   20     11.47      0.00
  -30   32   19     13.08      0.00
  -30   33   18     -6.36      0.00
  -30   34   17      7.87      0.00
  -30   35   16     11.90      0.00
  -30   36   15     12.86      0.00
   -1   29   48    -19.45      0.00
   -2   29   47    -11.66      0.00
   -3   29   46    -11.97      0.00
   -4   29   45     -3.54      0.00
   -5   29   44      5.33      0.00
   -6   29   43      8.44      0.00
   -7   29   42     -8.47      0.00
   -8   29   41     -4.19      0.00
   -9   29   40    -18.73      0.00
  -10   29   39    -18.25      0.00
  -11   29   38     -3.88      0.00
  -12   29   37      6.67      0.00
  -13   29   36      0.89      0.00
  -14   29   35    -12.51      0.00
  -15   29   34     -5.27      0.00
  -16   29   33     -4.06      0.00
  -17   29   32      7.67      0.00
  -18   29   31      9.68      0.00
  -19   29   30      1.40      0.00
  -20   29   29     14.47      0.00
  -21   29   28     11.39      0.00
  -22   29   27      7.60      0.00
  -23   29   26      4.50      0.00
  -29   29   20      3.49      0.00
  -29   30   19      7.21      0.00
  -29   31   18     10.93      0.00
  -29   32   17      1.97      0.00
  -29   33   16    -16.43      0.00
  -29   34   15     -5.04      0.00
  -29   35   14     -2.96      0.00
  -29   36   13     11.40      0.00
    0   28   47    -40.32      0.00
   -1   28   46    -15.75      0.00
   -2   28   45     15.83      0.00
   -3   28   44     -7.81      0.00
   -4   28   43     -3.94      0.00
   -5   28   42    -13.56      0.00
   -6   28   41    -28.73      0.00
   -7   28   40     -7.96      0.00
   -8   28   39     -3.34      0.00
   -9   28   38    -13.82      0.00
  -10   28   37    -11.15      0.00
  -11   28   36     12.80      0.00
  -12   28   35     14.78      0.00
  -13   28   34      4.15      0.00
  -14   28   33     -5.08      0.00
  -15   28   32     -4.04      0.00
  -16   28   31      9.66      0.00
  -17   28   30     -0.59      0.00
  -18   28   29     -1.09      0.00
  -19   28   28     -5.53      0.00
  -20   28   27      7.66      0.00
  -21   28   26      0.59      0.00
  -22   28   25    -20.87      0.00
  -28   28   19    -17.81      0.00
  -28   29   18      7.37      0.00
  -28   30   17     15.02      0.00
  -28   31   16     -1.38      0.00
  -28   32   15      7.61      0.00
  -28   33   14      3.59      0.00
  -28   34   13      2.44      0.00
  -28   35   12      3.64      0.00
  -28   36   11      6.35      0.00
  -28   37   10     -6.14      0.00
    0   27   45      1.93      0.00
   -1   27   44     -2.15      0.00
   -2   27   43    -19.05      0.00
   -3   27   42      3.28      0.00
   -4   27   41    -27.16      0.00
   -5   27   40    -11.44      0.00
   -6   27   39     -7.37      0.00
   -7   27   38     -6.50      0.00
   -8   27   37      3.32      0.00
   -9   27   36     -1.19      0.00
  -10   27   35    -24.21      0.00
  -11   27   34     -1.31      0.00
  -12   27   33    -14.47      0.00
  -13   27   32    -18.56      0.00
  -14   27   31     -0.56      0.00
  -15   27   30      0.03      0.00
  -16   27   29      0.95      0.00
  -17   27   28      9.18      0.00
  -18   27   27      2.10      0.00
  -19   27   26     -4.34      0.00
  -20   27   25     -6.87      0.00
  -21   27   24      5.78      0.00
  -27   27   18     18.09      0.00
  -27   28   17     -9.18      0.00
  -27   29   16     -2.46      0.00
  -27   30   15     -7.67      0.00
  -27   31   14     15.54      0.00
  -27   32   13    -10.67      0.00
  -27   33   12    -14.61      0.00
  -27   34   11    -15.39      0.00
  -27   35   10    -14.67      0.00
  -27   36    9     -5.15      0.00
  -27   37    8     -5.64      0.00
    0   26   43      8.85      0.00
   -1   26   42    -13.84      0.00
   -2   26   41      9.33      0.00
   -3   26   40    -14.87      0.00
   -4   26   39      6.70      0.00
   -5   26   38     10.71      0.00
   -6   26   37      4.52      0.00
   -7   26   36      5.56      0.00
   -8   26   35      0.90      0.00
   -9   26   34     -1.98      0.00
  -10   26   33    -19.08      0.00
  -11   26   32      8.48      0.00
  -12   26   31     -9.33      0.00
  -13   26   30      2.93      0.00
  -14   26   29      4.09      0.00
  -15   26   28    -16.10      0.00
  -16   26   27      0.16      0.00
  -17   26   26     -2.40      0.00
  -18   26   25      5.11      0.00
  -19   26   24     11.04      0.00
  -20   26   23     14.93      0.00
  -26   26   17     20.17      0.00
  -26   27   16     -1.70      0.00
  -26   28   15      1.30      0.00
  -26   29   14      7.21      0.00
  -26   30   13     -0.81      0.00
  -26   31   12    -18.95      0.00
  -26   32   11      0.52      0.00
  -26   33   10     -2.11      0.00
  -26   34    9      0.60      0.00
  -26   35    8      3.17      0.00
  -26   36    7     -0.70      0.00
  -26   37    6      2.44      0.00
  -26   38    5     -0.93      0.00
    0   25   41      7.59      0.00
   -1   25   40      4.92      0.00
   -2   25   39     -6.37      0.00
   -3   25   38    -10.03      0.00
   -4   25   37     -1.80      0.00
   -5   25   36     -4.97      0.00
   -6   25   35    -11.91      0.00
   -7   25   34      2.83      0.00
   -8   25   33     -2.40      0.00
   -9   25   32      4.08      0.00
  -10   25   31     -0.28      0.00
  -11   25   30      3.18      0.00
  -12   25   29      4.72      0.00
  -13   25   28      8.33      0.00
  -14   25   27     -1.71      0.00
  -15   25   26      1.64      0.00
  -16   25   25     -0.37      0.00
  -17   25   24     -8.69      0.00
  -18   25   23     -5.16      0.00
  -19   25   22      8.45      0.00
  -25   25   16     23.11      0.00
  -25   26   15      1.65      0.00
  -25   27   14      6.03      0.00
  -25   28   13     -6.60      0.00
  -25   29   12    -16.46      0.00
  -25   30   11    -15.29      0.00
  -25   31   10     10.91      0.00
  -25   32    9     27.88      0.00
  -25   33    8     11.41      0.00
  -25   34    7    -13.84      0.00
  -25   35    6    -15.39      0.00
  -25   36    5    -30.74      0.00
  -25   37    4    -15.36      0.00
  -25   38    3     -1.97      0.00
    0   24   39      1.45      0.00
   -1   24   38    -15.63      0.00
   -2   24   37      5.07      0.00
   -3   24   36     -0.59      0.00
   -4   24   35     -9.52      0.00
   -5   24   34     12.15      0.00
   -6   24   33     -3.58      0.00
   -7   24   32      7.47      0.00
   -8   24   31      9.10      0.00
   -9   24   30      2.13      0.00
  -10   24   29     -8.76      0.00
  -11   24   28     -0.94      0.00
  -12   24   27    -10.96      0.00
  -13   24   26      0.61      0.00
  -14   24   25      4.21      0.00
  -15   24   24     -4.96      0.00
  -16   24   23     -8.71      0.00
  -17   24   22     -9.47      0.00
  -18   24   21     -0.89      0.00
  -24   24   15    -15.29      0.00
  -24   25   14    -12.94      0.00
  -24   26   13     -4.64      0.00
  -24   27   12      6.30      0.00
  -24   28   11     -0.86      0.00
  -24   29   10    -14.89      0.00
  -24   30    9     -0.57      0.00
  -24   31    8     13.58      0.00
  -24   32    7     -0.84      0.00
  -24   33    6    -11.39      0.00
  -24   34    5    -20.29      0.00
  -24   35    4    -22.09      0.00
  -24   36    3      5.13      0.00
  -24   37    2     -4.28      0.00
  -24   38    1      3.41      0.00
    0   23   37      0.17      0.00
   -1   23   36     -3.22      0.00
   -2   23   35      7.67      0.00
   -3   23   34     -5.40      0.00
   -4   23   33     20.64      0.00
   -5   23   32     11.54      0.00
   -6   23   31     -1.83      0.00
   -7   23   30      3.80      0.00
   -8   23   29      4.41      0.00
   -9   23   28      7.81      0.00
  -10   23   27      8.02      0.00
  -11   23   26      6.96      0.00
  -12   23   25      7.01      0.00
  -13   23   24      8.21      0.00
  -14   23   23     -0.98      0.00
  -15   23   22     -2.64      0.00
  -16   23   21      0.72      0.00
  -17   23   20     10.65      0.00
  -23   23   14      8.48      0.00
  -23   24   13     -1.07      0.00
  -23   25   12      1.93      0.00
  -23   26   11      9.46      0.00
  -23   27   10      9.62      0.00
  -23   28    9     -0.70      0.00
  -23   29    8     -0.78      0.00
  -23   30    7     13.96      0.00
  -23   31    6     -6.15      0.00
  -23   32    5      4.55      0.00
  -23   33    4     11.13      0.00
  -23   34    3      5.66      0.00
  -23   35    2      9.66      0.00
  -23   36    1      6.98      0.00
  -14   37    0     -4.13      0.00
  -15   38    1      8.91      0.00
    0   22   35     12.94      0.00
   -1   22   34      5.76      0.00
   -2   22   33     -2.82      0.00
   -3   22   32     -4.07      0.00
   -4   22   31     11.23      0.00
   -5   22   30     -3.97      0.00
   -6   22   29     -1.54      0.00
   -7   22   28      3.94      0.00
   -8   22   27      2.03      0.00
   -9   22   26      1.09      0.00
  -10   22   25     -3.03      0.00
  -11   22   24     -4.24      0.00
  -12   22   23      7.96      0.00
  -13   22   22      7.19      0.00
  -14   22   21      0.55      0.00
  -15   22   20      5.41      0.00
  -16   22   19     -3.45      0.00
  -22   22   13    -14.02      0.00
  -22   23   12      1.45      0.00
  -22   24   11     -1.11      0.00
  -22   25   10      3.32      0.00
  -22   26    9     -2.91      0.00
  -22   27    8     -0.23      0.00
  -22   28    7     -3.67      0.00
  -22   29    6      4.52      0.00
  -22   30    5      3.13      0.00
  -22   31    4      4.39      0.00
  -22   32    3      4.04      0.00
  -22   33    2     14.55      0.00
  -22   34    1    -16.69      0.00
  -13   35    0    -14.62      0.00
  -14   36    1     -3.85      0.00
  -15   37    2     -0.49      0.00
  -16   38    3     25.94      0.00
    0   21   33     15.42      0.00
   -1   21   32      1.46      0.00
   -2   21   31     -3.53      0.00
   -3   21   30     14.02      0.00
   -4   21   29    -13.24      0.00
   -5   21   28     -2.91      0.00
   -6   21   27    -10.65      0.00
   -7   21   26     -4.01      0.00
   -8   21   25     -3.68      0.00
   -9   21   24     13.19      0.00
  -10   21   23     -0.13      0.00
  -11   21   22     -2.77      0.00
  -12   21   21      3.52      0.00
  -13   21   20      3.57      0.00
  -14   21   19     -1.40      0.00
  -15   21   18      9.15      0.00
  -21   21   12     -0.17      0.00
  -21   22   11      7.39      0.00
  -21   23   10      3.36      0.00
  -21   24    9    -10.34      0.00
  -21   25    8     -5.48      0.00
  -21   26    7     -5.90      0.00
  -21   27    6     -1.05      0.00
  -21   28    5     -5.89      0.00
  -21   29    4     -3.40      0.00
  -21   30    3     -6.32      0.00
  -21   31    2      0.21      0.00
  -21   32    1     -2.04      0.00
  -12   33    0     -2.00      0.00
  -13   34    1     -4.73      0.00
  -14   35    2     -2.33      0.00
  -15   36    3      4.50      0.00
  -16   37    4      4.78      0.00
  -17   38    5     -5.49      0.00
  -18   39    6    -11.48      0.00
    0   20   31      2.57      0.00
   -1   20   30    -19.51      0.00
   -2   20   29     -6.49      0.00
   -3   20   28     -1.70      0.00
   -4   20   27    -10.94      0.00
   -5   20   26     15.19      0.00
   -6   20   25      5.60      0.00
   -7   20   24      2.05      0.00
   -8   20   23     -0.09      0.00
   -9   20   22      3.32      0.00
  -10   20   21     -5.43      0.00
  -11   20   20     10.55      0.00
  -12   20   19     -4.03      0.00
  -13   20   18      4.95      0.00
  -14   20   17     -2.90      0.00
  -20   20   11     -1.73      0.00
  -20   21   10    -10.15      0.00
  -20   22    9      4.88      0.00
  -20   23    8     -0.90      0.00
  -20   24    7     10.48      0.00
  -20   25    6    -10.49      0.00
  -20   26    5     -5.69      0.00
  -20   27    4     16.62      0.00
  -20   28    3      7.32      0.00
  -20   29    2     -4.42      0.00
  -20   30    1    -15.10      0.00
  -11   31    0     -4.34      0.00
  -12   32    1      9.91      0.00
  -13   33    2     12.84      0.00
  -14   34    3     -7.70      0.00
  -15   35    4     11.62      0.00
  -16   36    5     15.76      0.00
  -17   37    6     31.65      0.00
  -18   38    7      3.06      0.00
    0   19   29    -13.57      0.00
   -1   19   28    -17.43      0.00
   -2   19   27    -10.47      0.00
   -3   19   26     16.30      0.00
   -4   19   25     -3.43      0.00
   -5   19   24      1.86      0.00
   -6   19   23    -23.33      0.00
   -7   19   22      4.58      0.00
   -8   19   21    -10.12      0.00
   -9   19   20      7.81      0.00
  -10   19   19    -30.62      0.00
  -11   19   18     10.62      0.00
  -12   19   17     -9.01      0.00
  -13   19   16     27.31      0.00
  -19   19   10     -2.39      0.00
  -19   20    9      1.14      0.00
  -19   21    8    -21.32      0.00
  -19   22    7     -4.94      0.00
  -19   23    6     -9.99      0.00
  -19   24    5     -0.61      0.00
  -19   25    4      2.48      0.00
  -19   26    3    -11.95      0.00
  -19   27    2      2.92      0.00
  -19   28    1    -13.77      0.00
  -10   29    0     -2.67      0.00
  -11   30    1      7.12      0.00
  -12   31    2    -11.08      0.00
  -13   32    3     -0.69      0.00
  -14   33    4     13.47      0.00
  -15   34    5    -16.63      0.00
  -16   35    6      1.59      0.00
  -17   36    7     -5.23      0.00
  -18   37    8    -15.06      0.00
  -19   38    9    -23.66      0.00
    0   18   27    -18.73      0.00
   -1   18   26      2.01      0.00
   -2   18   25      6.81      0.00
   -3   18   24     12.74      0.00
   -4   18   23     -7.06      0.00
   -5   18   22      0.60      0.00
   -6   18   21     -5.98      0.00
   -7   18   20      7.27      0.00
   -8   18   19      2.12      0.00
   -9   18   18     17.67      0.00
  -10   18   17    -10.85      0.00
  -11   18   16     12.52      0.00
  -12   18   15     -4.26      0.00
  -18   18    9    -12.98      0.00
  -18   19    8      0.18      0.00
  -18   20    7     13.84      0.00
  -18   21    6      2.93      0.00
  -18   22    5     -2.68      0.00
  -18   23    4     -1.35      0.00
  -18   24    3     -0.40      0.00
  -18   25    2     -4.38      0.00
  -18   26    1     -6.12      0.00
   -9   27    0     -1.48      0.00
  -10   28    1      3.05      0.00
  -11   29    2     -9.33      0.00
  -12   30    3     -0.68      0.00
  -13   31    4    -18.75      0.00
  -14   32    5     13.08      0.00
  -15   33    6     -2.84      0.00
  -16   34    7      4.98      0.00
  -17   35    8      1.58      0.00
  -18   36    9     -2.52      0.00
  -19   37   10      4.49      0.00
  -20   38   11      1.98      0.00
    0   17   25     -1.37      0.00
   -1   17   24     -1.47      0.00
   -2   17   23    -16.95      0.00
   -3   17   22     15.97      0.00
   -4   17   21      0.54      0.00
   -5   17   20      8.46      0.00
   -6   17   19     13.71      0.00
   -7   17   18     -2.89      0.00
   -8   17   17     -4.60      0.00
   -9   17   16     -7.04      0.00
  -10   17   15    -13.19      0.00
  -11   17   14     -5.36      0.00
  -17   17    8      6.75      0.00
  -17   18    7     -0.46      0.00
  -17   19    6     -2.30      0.00
  -17   20    5     -0.63      0.00
  -17   21    4     -2.33      0.00
  -17   22    3      6.63      0.00
  -17   23    2     -4.55      0.00
  -17   24    1     -1.57      0.00
   -8   25    0      0.22      0.00
   -9   26    1      5.67      0.00
  -10   27    2     15.90      0.00
  -11   28    3    -10.74      0.00
  -12   29    4     -7.42      0.00
  -13   30    5    -26.13      0.00
  -14   31    6     -1.12      0.00
  -15   32    7     -0.72      0.00
  -16   33    8     -2.90      0.00
  -17   34    9    -13.63      0.00
  -18   35   10    -17.83      0.00
  -19   36   11     -8.87      0.00
  -20   37   12     24.48      0.00
  -21   38   13     13.66      0.00
    0   16   23    -11.65      0.00
   -1   16   22     18.67      0.00
   -2   16   21     11.07      0.00
   -3   16   20     14.16      0.00
   -4   16   19     -8.31      0.00
   -5   16   18      4.82      0.00
   -6   16   17    -14.76      0.00
   -7   16   16      5.13      0.00
   -8   16   15      1.28      0.00
   -9   16   14     -1.65      0.00
  -10   16   13    -17.41      0.00
  -16   16    7    -35.24      0.00
  -16   17    6     -1.57      0.00
  -16   18    5      2.68      0.00
  -16   19    4     18.55      0.00
  -16   20    3      3.32      0.00
  -16   21    2      3.11      0.00
  -16   22    1     11.30      0.00
   -7   23    0     13.61      0.00
   -8   24    1     -0.79      0.00
   -9   25    2      5.53      0.00
  -10   26    3     -6.66      0.00
  -11   27    4      5.66      0.00
  -12   28    5      0.12      0.00
  -13   29    6     -5.41      0.00
  -14   30    7      0.01      0.00
  -15   31    8      8.69      0.00
  -16   32    9     -4.98      0.00
  -17   33   10      6.87      0.00
  -18   34   11     19.11      0.00
  -19   35   12    -10.32      0.00
  -20   36   13      5.40      0.00
  -21   37   14      8.91      0.00
  -22   38   15    -12.68      0.00
    0   15   21    -11.18      0.00
   -1   15   20     -6.30      0.00
   -2   15   19    -11.23      0.00
   -3   15   18     11.19      0.00
   -4   15   17      3.66      0.00
   -5   15   16      2.90      0.00
   -6   15   15    -16.46      0.00
   -7   15   14    -10.40      0.00
   -8   15   13     23.47      0.00
   -9   15   12     17.05      0.00
  -15   15    6     17.24      0.00
  -15   16    5    -11.72      0.00
  -15   17    4      2.47      0.00
  -15   18    3    -10.74      0.00
  -15   19    2      7.94      0.00
  -15   20    1      6.98      0.00
   -6   21    0     -9.79      0.00
   -7   22    1     -3.21      0.00
   -8   23    2     -1.27      0.00
   -9   24    3      7.39      0.00
  -10   25    4      6.70      0.00
  -11   26    5      0.06      0.00
  -12   27    6     -2.92      0.00
  -13   28    7     -5.08      0.00
  -14   29    8      3.19      0.00
  -15   30    9      6.46      0.00
  -16   31   10      1.57      0.00
  -17   32   11      0.53      0.00
  -18   33   12      9.13      0.00
  -19   34   13     18.74      0.00
  -20   35   14      0.11      0.00
  -21   36   15    -17.53      0.00
  -22   37   16     -0.89      0.00
  -23   38   17    -17.62      0.00
    0   14   19    -15.75      0.00
   -1   14   18     -4.61      0.00
   -2   14   17      3.55      0.00
   -3   14   16      7.66      0.00
   -4   14   15     -5.78      0.00
   -5   14   14    -18.38      0.00
   -6   14   13     28.58      0.00
   -7   14   12    -12.66      0.00
   -8   14   11     36.25      0.00
  -14   14    5      4.61      0.00
  -14   15    4    -11.68      0.00
  -14   16    3     16.04      0.00
  -14   17    2     -6.06      0.00
  -14   18    1      3.87      0.00
   -5   19    0      2.50      0.00
   -6   20    1      0.43      0.00
   -7   21    2     -2.94      0.00
   -8   22    3     11.18      0.00
   -9   23    4     10.53      0.00
  -10   24    5     11.47      0.00
  -11   25    6     -0.48      0.00
  -12   26    7     -4.07      0.00
  -13   27    8      0.75      0.00
  -14   28    9     -8.21      0.00
  -15   29   10     -1.25      0.00
  -16   30   11      8.89      0.00
  -17   31   12      5.35      0.00
  -18   32   13     -4.29      0.00
  -19   33   14      5.29      0.00
  -20   34   15    -23.70      0.00
  -21   35   16    -23.80      0.00
  -22   36   17    -14.19      0.00
  -23   37   18     21.02      0.00
    0   13   17     -2.82      0.00
   -1   13   16     26.56      0.00
   -2   13   15    -18.90      0.00
   -3   13   14      4.39      0.00
   -4   13   13    -31.14      0.00
   -5   13   12     -3.06      0.00
   -6   13   11    -11.40      0.00
   -7   13   10      6.82      0.00
  -13   13    4     37.28      0.00
  -13   14    3     -3.61      0.00
  -13   15    2      3.73      0.00
  -13   16    1    -15.07      0.00
   -4   17    0      5.24      0.00
   -5   18    1      0.01      0.00
   -6   19    2      7.46      0.00
   -7   20    3     -1.17      0.00
   -8   21    4     -9.16      0.00
   -9   22    5     -3.94      0.00
  -10   23    6     12.61      0.00
  -11   24    7      0.19      0.00
  -12   25    8      4.09      0.00
  -13   26    9     -8.35      0.00
  -14   27   10      5.95      0.00
  -15   28   11      0.06      0.00
  -16   29   12    -13.87      0.00
  -17   30   13     -7.03      0.00
  -18   31   14    -14.47      0.00
  -19   32   15    -11.58      0.00
  -20   33   16     -2.37      0.00
  -21   34   17     -9.79      0.00
  -22   35   18     10.75      0.00
  -23   36   19      9.70      0.00
  -24   37   20      8.58      0.00
    0   12   15    -43.46      0.00
   -1   12   14    -23.55      0.00
   -2   12   13     -8.76      0.00
   -3   12   12     48.31      0.00
   -4   12   11      1.46      0.00
   -5   12   10    -16.19      0.00
   -6   12    9    -43.77      0.00
  -12   12    3    -76.39      0.00
  -12   13    2     25.00      0.00
  -12   14    1     -7.04      0.00
   -3   15    0     27.50      0.00
   -4   16    1     -8.95      0.00
   -5   17    2     13.18      0.00
   -6   18    3    -14.72      0.00
   -7   19    4     19.02      0.00
   -8   20    5      2.58      0.00
   -9   21    6      9.89      0.00
  -10   22    7     -0.80      0.00
  -11   23    8     -4.07      0.00
  -12   24    9     -1.88      0.00
  -13   25   10      0.47      0.00
  -14   26   11     -4.30      0.00
  -15   27   12      2.60      0.00
  -16   28   13      4.31      0.00
  -17   29   14      5.88      0.00
  -18   30   15     -7.65      0.00
  -19   31   16      3.96      0.00
  -20   32   17      4.47      0.00
  -21   33   18     -0.61      0.00
  -22   34   19      5.15      0.00
  -23   35   20    -13.64      0.00
  -24   36   21    -21.87      0.00
  -25   37   22     -6.76      0.00
    0   11   13     15.95      0.00
   -1   11   12     22.32      0.00
   -2   11   11     -4.41      0.00
   -3   11   10    -39.53      0.00
   -4   11    9     26.72      0.00
   -5   11    8    -53.22      0.00
  -11   11    2    -25.69      0.00
  -11   12    1     16.88      0.00
   -2   13    0      4.30      0.00
   -3   14    1     18.24      0.00
   -4   15    2     -1.29      0.00
   -5   16    3      6.00      0.00
   -6   17    4     -3.45      0.00
   -7   18    5      2.28      0.00
   -8   19    6     -7.31      0.00
   -9   20    7     11.65      0.00
  -10   21    8      1.69      0.00
  -11   22    9     10.71      0.00
  -12   23   10     11.34      0.00
  -13   24   11      8.38      0.00
  -14   25   12      0.25      0.00
  -15   26   13     21.73      0.00
  -16   27   14      3.91      0.00
  -17   28   15     -0.07      0.00
  -18   29   16      5.07      0.00
  -19   30   17     -3.30      0.00
  -20   31   18     23.63      0.00
  -21   32   19     -6.24      0.00
  -22   33   20     -6.60      0.00
  -23   34   21     -5.00      0.00
  -24   35   22     -6.83      0.00
  -25   36   23      0.53      0.00
    0   10   11    -39.35      0.00
   -1   10   10    -19.69      0.00
   -2   10    9     31.69      0.00
   -3   10    8    -48.39      0.00
   -4   10    7    -19.74      0.00
  -10   10    1      0.98      0.00
   -1   11    0     19.63      0.00
   -2   12    1     -0.52      0.00
   -3   13    2     26.27      0.00
   -4   14    3    -17.88      0.00
   -5   15    4     16.11      0.00
   -6   16    5    -17.37      0.00
   -7   17    6     13.88      0.00
   -8   18    7      8.79      0.00
   -9   19    8      4.54      0.00
  -10   20    9     -2.38      0.00
  -11   21   10     -6.74      0.00
  -12   22   11     -4.31      0.00
  -13   23   12      0.01      0.00
  -14   24   13      4.93      0.00
  -15   25   14      5.69      0.00
  -16   26   15      7.65      0.00
  -17   27   16    -16.50      0.00
  -18   28   17    -15.98      0.00
  -19   29   18      3.16      0.00
  -20   30   19     13.41      0.00
  -21   31   20    -17.79      0.00
  -22   32   21     -5.52      0.00
  -23   33   22      1.09      0.00
  -24   34   23     19.85      0.00
  -25   35   24     -2.71      0.00
  -26   36   25    -14.02      0.00
    0    9    9    -51.86      0.00
   -1    9    8    -53.44      0.00
   -2    9    7     33.74      0.00
   -3    9    6     13.59      0.00
    0    9    0     95.95      0.00
   -1   10    1    -28.16      0.00
   -2   11    2    -20.90      0.00
   -3   12    3    -42.76      0.00
   -4   13    4     19.79      0.00
   -5   14    5    -27.06      0.00
   -6   15    6     18.22      0.00
   -7   16    7     -5.01      0.00
   -8   17    8    -10.93      0.00
   -9   18    9    -10.64      0.00
  -10   19   10     10.40      0.00
  -11   20   11     -0.08      0.00
  -12   21   12      2.81      0.00
  -13   22   13     -5.07      0.00
  -14   23   14      6.51      0.00
  -15   24   15     -0.39      0.00
  -16   25   16     -7.89      0.00
  -17   26   17      8.26      0.00
  -18   27   18     10.78      0.00
  -19   28   19     -3.41      0.00
  -20   29   20      0.65      0.00
  -21   30   21    -18.56      0.00
  -22   31   22     -6.97      0.00
  -23   32   23      8.97      0.00
  -24   33   24     -5.95      0.00
  -25   34   25    -18.05      0.00
  -26   35   26    -13.65      0.00
    0    8    7     27.22      0.00
   -1    8    6    -30.97      0.00
   -2    8    5    -27.50      0.00
    0    8    1    -46.03      0.00
   -1    9    2     13.60      0.00
   -2   10    3     31.28      0.00
   -3   11    4    -28.85      0.00
   -4   12    5      3.81      0.00
   -5   13    6    -29.72      0.00
   -6   14    7    -12.13      0.00
   -7   15    8      3.83      0.00
   -8   16    9     23.80      0.00
   -9   17   10    -11.93      0.00
  -10   18   11     -0.26      0.00
  -11   19   12      0.07      0.00
  -12   20   13     -1.14      0.00
  -13   21   14      4.11      0.00
  -14   22   15     10.21      0.00
  -15   23   16     -1.95      0.00
  -16   24   17     -0.31      0.00
  -17   25   18     -1.14      0.00
  -18   26   19      5.37      0.00
  -19   27   20      8.70      0.00
  -20   28   21    -11.78      0.00
  -21   29   22      2.37      0.00
  -22   30   23     10.67      0.00
  -23   31   24     -8.67      0.00
  -24   32   25    -25.03      0.00
  -25   33   26     -5.64      0.00
  -26   34   27     -9.56      0.00
  -27   35   28     10.40      0.00
    0    7    5    -24.37      0.00
   -1    7    4    -46.04      0.00
    0    7    2    140.69      0.00
   -1    8    3     -1.66      0.00
   -2    9    4    -41.73      0.00
   -3   10    5     -5.50      0.00
   -4   11    6    -33.42      0.00
   -5   12    7      2.67      0.00
   -6   13    8      8.00      0.00
   -7   14    9     11.31      0.00
   -8   15   10    -10.55      0.00
   -9   16   11      2.24      0.00
  -10   17   12      1.13      0.00
  -11   18   13     -3.84      0.00
  -12   19   14     16.44      0.00
  -13   20   15     -4.81      0.00
  -14   21   16     11.21      0.00
  -15   22   17      2.03      0.00
  -16   23   18     -1.24      0.00
  -17   24   19      8.37      0.00
  -18   25   20     -4.28      0.00
  -19   26   21     -6.81      0.00
  -20   27   22     -3.75      0.00
  -21   28   23     -8.44      0.00
  -22   29   24      0.56      0.00
  -23   30   25     10.53      0.00
  -24   31   26     -7.75      0.00
  -25   32   27      8.63      0.00
  -26   33   28     -2.92      0.00
  -27   34   29      4.89      0.00
    0    6    3   -112.59      0.00
    0    0    9    -76.46      0.00
   -1    1   10   -141.56      0.00
   -2    2   11     37.72      0.00
   -3    3   12    169.96      0.00
   -4    4   13   -188.23      0.00
   -5    5   14     -6.21      0.00
   -6    6   15    -31.77      0.00
   -7    7   16     27.07      0.00
   -8    8   17     24.59      0.00
   -9    9   18     38.13      0.00
  -10   10   19    -27.88      0.00
  -11   11   20      8.99      0.00
  -12   12   21    -26.80      0.00
  -13   13   22     16.06      0.00
  -14   14   23      3.36      0.00
  -15   15   24     15.36      0.00
  -16   16   25     -7.99      0.00
  -17   17   26     18.66      0.00
  -18   18   27     -2.04      0.00
  -19   19   28    -12.45      0.00
  -20   20   29     -1.45      0.00
  -21   21   30     -5.03      0.00
  -22   22   31      4.84      0.00
  -23   23   32     -5.08      0.00
  -24   24   33     29.60      0.00
  -25   25   34     22.02      0.00
  -26   26   35      3.24      0.00
  -27   27   36     -6.92      0.00
  -28   28   37      5.56      0.00
  -29   29   38      7.30      0.00
  -30   30   39    -14.21      0.00
    0    1   11     61.03      0.00
   -1    2   12   -200.09      0.00
   -2    3   13      6.88      0.00
   -3    4   14     98.80      0.00
   -4    5   15    -53.01      0.00
   -5    6   16     24.59      0.00
   -6    7   17      7.30      0.00
   -7    8   18    -28.89      0.00
   -8    9   19     25.08      0.00
   -9   10   20     23.09      0.00
  -10   11   21     -4.22      0.00
  -11   12   22      4.53      0.00
  -12   13   23     -8.06      0.00
  -13   14   24     -1.96      0.00
  -14   15   25      8.47      0.00
  -15   16   26      1.27      0.00
  -16   17   27     11.04      0.00
  -17   18   28     -5.83      0.00
  -18   19   29    -17.73      0.00
  -19   20   30      3.08      0.00
  -20   21   31      3.90      0.00
  -21   22   32     -1.32      0.00
  -22   23   33     -6.89      0.00
  -23   24   34      5.30      0.00
  -24   25   35      1.63      0.00
  -25   26   36     -4.93      0.00
  -26   27   37      2.19      0.00
  -27   28   38      0.56      0.00
  -28   29   39     20.70      0.00
  -29   30   40     -5.76      0.00
    0    2   13     14.93      0.00
   -1    3   14     19.54      0.00
   -2    4   15     50.41      0.00
   -3    5   16     10.86      0.00
   -4    6   17    -26.10      0.00
   -5    7   18    -53.72      0.00
   -6    8   19     39.04      0.00
   -7    9   20     28.56      0.00
   -8   10   21    -38.42      0.00
   -9   11   22    -28.55      0.00
  -10   12   23    -14.95      0.00
  -11   13   24     20.01      0.00
  -12   14   25     -4.92      0.00
  -13   15   26     -6.23      0.00
  -14   16   27      2.39      0.00
  -15   17   28      6.85      0.00
  -16   18   29     -8.23      0.00
  -17   19   30    -13.88      0.00
  -18   20   31     -2.89      0.00
  -19   21   32     -0.29      0.00
  -20   22   33     -4.92      0.00
  -21   23   34      2.52      0.00
  -22   24   35     -0.89      0.00
  -23   25   36     -5.10      0.00
  -24   26   37     -5.65      0.00
  -25   27   38     12.32      0.00
  -26   28   39     15.14      0.00
  -27   29   40     -1.35      0.00
  -28   30   41    -30.12      0.00
    0    3   15    -15.93      0.00
   -1    4   16    -43.62      0.00
   -2    5   17    -53.93      0.00
   -3    6   18     90.35      0.00
   -4    7   19    -28.09      0.00
   -5    8   20    -10.07      0.00
   -6    9   21     -3.88      0.00
   -7   10   22     28.49      0.00
   -8   11   23     -3.15      0.00
   -9   12   24     23.16      0.00
  -10   13   25      0.83      0.00
  -11   14   26      1.05      0.00
  -12   15   27     -8.92      0.00
  -13   16   28     15.25      0.00
  -14   17   29      3.14      0.00
  -15   18   30     -3.61      0.00
  -16   19   31     -7.86      0.00
  -17   20   32     10.02      0.00
  -18   21   33    -10.24      0.00
  -19   22   34      6.15      0.00
  -20   23   35     -7.74      0.00
  -21   24   36     -9.27      0.00
  -22   25   37      4.46      0.00
  -23   26   38     -3.31      0.00
  -24   27   39      6.96      0.00
  -25   28   40     18.10      0.00
  -26   29   41     -5.75      0.00
  -27   30   42    -11.50      0.00
  -28   31   43    -13.13      0.00
    0    4   17    -44.68      0.00
   -1    5   18    -24.60      0.00
   -2    6   19     -4.37      0.00
   -3    7   20     11.84      0.00
   -4    8   21     12.70      0.00
   -5    9   22    -36.87      0.00
   -6   10   23    -26.36      0.00
   -7   11   24     -8.11      0.00
   -8   12   25      5.01      0.00
   -9   13   26     -3.09      0.00
  -10   14   27      0.27      0.00
  -11   15   28      0.68      0.00
  -12   16   29    -11.00      0.00
  -13   17   30     -7.14      0.00
  -14   18   31      4.37      0.00
  -15   19   32      5.75      0.00
  -16   20   33     -5.40      0.00
  -17   21   34     -4.48      0.00
  -18   22   35      6.13      0.00
  -19   23   36      0.74      0.00
  -20   24   37    -10.09      0.00
  -21   25   38     12.77      0.00
  -22   26   39      3.05      0.00
  -23   27   40     -2.94      0.00
  -24   28   41      3.05      0.00
  -25   29   42      5.22      0.00
  -26   30   43     -1.82      0.00
  -27   31   44     14.56      0.00
    0    5   19    -12.16      0.00
   -1    6   20    -20.59      0.00
   -2    7   21     15.25      0.00
   -3    8   22    -37.08      0.00
   -4    9   23     -9.66      0.00
   -5   10   24    -18.80      0.00
   -6   11   25      0.45      0.00
   -7   12   26     10.44      0.00
   -8   13   27     -5.47      0.00
   -9   14   28    -12.80      0.00
  -10   15   29     15.13      0.00
  -11   16   30      9.33      0.00
  -12   17   31    -11.86      0.00
  -13   18   32    -15.47      0.00
  -14   19   33     -8.25      0.00
  -15   20   34     -2.89      0.00
  -16   21   35     -6.12      0.00
  -17   22   36     -5.28      0.00
  -18   23   37     -7.33      0.00
  -19   24   38     -7.36      0.00
  -20   25   39     -4.47      0.00
  -21   26   40     -5.72      0.00
  -22   27   41      2.46      0.00
  -23   28   42     14.39      0.00
  -24   29   43      2.55      0.00
  -25   30   44      6.56      0.00
  -26   31   45     14.43      0.00
    0    6   21    -71.01      0.00
   -1    7   22     -3.11      0.00
   -2    8   23     -2.99      0.00
   -3    9   24     40.27      0.00
   -4   10   25    -10.15      0.00
   -5   11   26    -21.35      0.00
   -6   12   27    -13.25      0.00
   -7   13   28     22.04      0.00
   -8   14   29      4.16      0.00
   -9   15   30      5.34      0.00
  -10   16   31      0.31      0.00
  -11   17   32      4.51      0.00
  -12   18   33     -4.56      0.00
  -13   19   34      4.85      0.00
  -14   20   35     -0.08      0.00
  -15   21   36     -4.40      0.00
  -16   22   37    -13.58      0.00
  -17   23   38     -0.68      0.00
  -18   24   39      9.68      0.00
  -19   25   40     -6.47      0.00
  -20   26   41     10.19      0.00
  -21   27   42    -10.60      0.00
  -22   28   43     -8.27      0.00
  -23   29   44     -5.60      0.00
  -24   30   45    -14.31      0.00
  -25   31   46     12.42      0.00
    0    7   23    -21.37      0.00
   -1    8   24      8.31      0.00
   -2    9   25      1.65      0.00
   -3   10   26      6.60      0.00
   -4   11   27      1.33      0.00
   -5   12   28      4.43      0.00
   -6   13   29    -19.50      0.00
   -7   14   30     -2.55      0.00
   -8   15   31     -0.68      0.00
   -9   16   32     -8.92      0.00
  -10   17   33      6.57      0.00
  -11   18   34      3.48      0.00
  -12   19   35     -0.67      0.00
  -13   20   36      0.59      0.00
  -14   21   37     -6.18      0.00
  -15   22   38      5.09      0.00
  -16   23   39     10.73      0.00
  -17   24   40      5.04      0.00
  -18   25   41      8.65      0.00
  -19   26   42     21.71      0.00
  -20   27   43      7.62      0.00
  -21   28   44     14.07      0.00
  -22   29   45     10.10      0.00
  -23   30   46      5.74      0.00
  -24   31   47      7.21      0.00
    0    8   25     17.70      0.00
   -1    9   26    -41.08      0.00
   -2   10   27     -0.84      0.00
   -3   11   28    -14.08      0.00
   -4   12   29     -5.53      0.00
   -5   13   30      0.02      0.00
   -6   14   31     -4.74      0.00
   -7   15   32      3.53      0.00
   -8   16   33     -3.68      0.00
   -9   17   34     -5.49      0.00
  -10   18   35      1.26      0.00
  -11   19   36     -5.28      0.00
  -12   20   37    -18.61      0.00
  -13   21   38     -2.21      0.00
  -14   22   39      0.86      0.00
  -15   23   40      1.57      0.00
  -16   24   41     12.15      0.00
  -17   25   42     -4.54      0.00
  -18   26   43     15.06      0.00
  -19   27   44     -3.74      0.00
  -20   28   45      2.88      0.00
  -21   29   46     17.81      0.00
  -22   30   47      3.47      0.00
  -23   31   48     29.68      0.00
    0    9   27    -31.21      0.00
   -1   10   28      1.52      0.00
   -2   11   29     20.96      0.00
   -3   12   30     12.83      0.00
   -4   13   31    -13.16      0.00
   -5   14   32     -1.79      0.00
   -6   15   33     -7.20      0.00
   -7   16   34     -0.86      0.00
   -8   17   35     -4.08      0.00
   -9   18   36      2.29      0.00
  -10   19   37    -16.24      0.00
  -11   20   38     -3.13      0.00
  -12   21   39    -14.19      0.00
  -13   22   40      5.57      0.00
  -14   23   41     -4.99      0.00
  -15   24   42     -9.14      0.00
  -16   25   43      7.81      0.00
  -17   26   44      2.34      0.00
  -18   27   45     -1.58      0.00
  -19   28   46     -5.13      0.00
  -20   29   47     16.23      0.00
  -21   30   48    -15.91      0.00
  -22   31   49      0.70      0.00
    0   10   29    -19.36      0.00
   -1   11   30     -3.55      0.00
   -2   12   31     -9.09      0.00
   -3   13   32     16.16      0.00
   -4   14   33      3.35      0.00
   -5   15   34     -0.74      0.00
   -6   16   35    -15.54      0.00
   -7   17   36      3.98      0.00
   -8   18   37     10.22      0.00
   -9   19   38      0.16      0.00
  -10   20   39     -1.67      0.00
  -11   21   40     -2.41      0.00
  -12   22   41      2.67      0.00
  -13   23   42      2.29      0.00
  -14   24   43      1.17      0.00
  -15   25   44      4.54      0.00
  -16   26   45      7.81      0.00
  -17   27   46      2.62      0.00
  -18   28   47    -11.38      0.00
  -19   29   48      4.41      0.00
  -20   30   49     -9.85      0.00
  -21   31   50     -8.07      0.00
    0   11   31      1.05      0.00
   -1   12   32     -9.33      0.00
   -2   13   33     -0.73      0.00
   -3   14   34     -5.42      0.00
   -4   15   35     -6.06      0.00
   -5   16   36    -11.26      0.00
   -6   17   37     -5.84      0.00
   -7   18   38      7.90      0.00
   -8   19   39      1.66      0.00
   -9   20   40      1.26      0.00
  -10   21   41      3.17      0.00
  -11   22   42      3.39      0.00
  -12   23   43     -5.65      0.00
  -13   24   44     -5.20      0.00
  -14   25   45      3.10      0.00
  -15   26   46     -5.30      0.00
  -16   27   47    -17.90      0.00
  -17   28   48     -3.34      0.00
  -18   29   49      7.66      0.00
  -19   30   50     12.15      0.00
  -20   31   51     15.39      0.00
    0   12   33    -15.99      0.00
   -1   13   34      3.22      0.00
   -2   14   35      5.06      0.00
   -3   15   36      1.09      0.00
   -4   16   37     12.61      0.00
   -5   17   38     10.17      0.00
   -6   18   39      7.57      0.00
   -7   19   40      6.98      0.00
   -8   20   41     -4.25      0.00
   -9   21   42     11.58      0.00
  -10   22   43     -0.13      0.00
  -11   23   44     -5.19      0.00
  -12   24   45     -6.12      0.00
  -13   25   46    -10.61      0.00
  -14   26   47    -14.80      0.00
  -15   27   48      3.38      0.00
  -16   28   49      7.25      0.00
  -17   29   50     14.92      0.00
  -18   30   51      7.50      0.00
  -19   31   52     10.48      0.00
    0   13   35    -32.15      0.00
   -1   14   36     -6.64      0.00
   -2   15   37      7.31      0.00
   -3   16   38      1.94      0.00
   -4   17   39      8.60      0.00
   -5   18   40     -2.90      0.00
   -6   19   41     -9.92      0.00
   -7   20   42      1.07      0.00
   -8   21   43      5.39      0.00
   -9   22   44     -3.33      0.00
  -10   23   45     -9.31      0.00
  -11   24   46     -8.03      0.00
  -12   25   47      1.22      0.00
  -13   26   48    -11.65      0.00
  -14   27   49      3.27      0.00
  -15   28   50     22.50      0.00
  -16   29   51     18.34      0.00
  -17   30   52      6.19      0.00
  -18   31   53     -2.93      0.00
    0   14   37     -2.60      0.00
   -1   15   38    -11.95      0.00
   -2   16   39     -0.99      0.00
   -3   17   40     -6.34      0.00
   -4   18   41     -2.79      0.00
   -5   19   42     -6.90      0.00
   -6   20   43     -2.25      0.00
   -7   21   44      2.88      0.00
   -8   22   45    -17.13      0.00
   -9   23   46      2.47      0.00
  -10   24   47     -2.57      0.00
  -11   25   48     -8.55      0.00
  -12   26   49     10.52      0.00
  -13   27   50     -6.06      0.00
  -14   28   51      5.31      0.00
  -15   29   52     -1.45      0.00
  -16   30   53      4.42      0.00
  -17   31   54     -6.95      0.00
    0   15   39    -17.23      0.00
   -1   16   40     -9.41      0.00
   -2   17   41      9.15      0.00
   -3   18   42      6.44      0.00
   -4   19   43     13.37      0.00
   -5   20   44      7.94      0.00
   -6   21   45     -8.89      0.00
   -7   22   46     -6.02      0.00
   -8   23   47     -8.32      0.00
   -9   24   48     -0.18      0.00
  -10   25   49      0.87      0.00
  -11   26   50     13.86      0.00
  -12   27   51     -7.55      0.00
  -13   28   52      0.24      0.00
  -14   29   53      9.21      0.00
  -15   30   54     10.64      0.00
    0   16   41      1.78      0.00
   -1   17   42     -2.95      0.00
   -2   18   43      0.61      0.00
   -3   19   44     -0.20      0.00
   -4   20   45     -3.31      0.00
   -5   21   46     13.87      0.00
   -6   22   47     -0.66      0.00
   -7   23   48      1.59      0.00
   -8   24   49     -1.32      0.00
   -9   25   50     -4.38      0.00
  -10   26   51      6.35      0.00
  -11   27   52    -10.56      0.00
  -12   28   53      0.50      0.00
  -13   29   54     -1.74      0.00
  -14   30   55      1.32      0.00
    0   17   43      7.94      0.00
   -1   18   44     10.22      0.00
   -2   19   45     -2.02      0.00
   -3   20   46    -12.15      0.00
   -4   21   47     33.10      0.00
   -5   22   48    -10.53      0.00
   -6   23   49    -18.51      0.00
   -7   24   50    -16.01      0.00
   -8   25   51    -12.94      0.00
   -9   26   52    -15.19      0.00
  -10   27   53      3.11      0.00
  -11   28   54     -8.31      0.00
  -12   29   55     14.41      0.00
  -13   30   56      3.04      0.00
    0   18   45    -17.62      0.00
   -1   19   46    -18.99      0.00
   -2   20   47      7.31      0.00
   -3   21   48      5.30      0.00
   -4   22   49     13.90      0.00
   -5   23   50     -0.69      0.00
   -6   24   51     -3.32      0.00
   -7   25   52    -14.86      0.00
   -8   26   53    -11.12      0.00
   -9   27   54     -0.71      0.00
  -10   28   55     -8.01      0.00
  -11   29   56     14.27      0.00
  -12   30   57     14.43      0.00
    0   19   47    -14.69      0.00
   -1   20   48     -6.04      0.00
   -2   21   49     13.79      0.00
   -3   22   50     16.86      0.00
   -4   23   51      2.17      0.00
   -5   24   52    -16.61      0.00
   -6   25   53    -13.38      0.00
   -7   26   54    -43.62      0.00
   -8   27   55    -13.81      0.00
   -9   28   56    -19.45      0.00
  -10   29   57      1.41      0.00
    0   20   49      1.69      0.00
   -1   21   50     14.67      0.00
   -2   22   51      0.06      0.00
   -3   23   52      6.80      0.00
   -4   24   53      8.35      0.00
   -5   25   54     -6.94      0.00
   -6   26   55    -11.44      0.00
   -7   27   56    -19.77      0.00
   -8   28   57     -5.97      0.00
   -9   29   58     -4.62      0.00
    0   21   51      6.09      0.00
   -1   22   52     -5.12      0.00
   -2   23   53      0.60      0.00
   -3   24   54     33.15      0.00
   -4   25   55     -3.29      0.00
   -5   26   56     -2.41      0.00
   -6   27   57     -1.08      0.00
   -7   28   58    -15.05      0.00
    0   22   53    -12.23      0.00
   -1   23   54     -2.24      0.00
   -2   24   55     15.84      0.00
   -3   25   56     13.10      0.00
   -4   26   57      3.25      0.00
   -5   27   58      2.93      0.00
    0   23   55    -21.48      0.00
   -1   24   56      3.97      0.00
   -2   25   57      7.56      0.00
   -3   26   58      1.48      0.00
   -4   27   59     -2.59      0.00
    0   24   57      0.52      0.00
   -1   25   58     -0.70      0.00
   -2   26   59      3.28      0.00
    0   25   59    -14.49      0.00
  -18   35   40    -16.48      0.00
  -19   35   39      6.54      0.00
  -20   35   38     -8.06      0.00
  -21   35   37      1.67      0.00
  -22   35   36      6.32      0.00
  -23   35   35      5.03      0.00
  -24   35   34     -6.58      0.00
  -25   35   33     12.50      0.00
  -26   35   32      7.14      0.00
  -27   35   31      1.04      0.00
  -13   34   43    -23.56      0.00
  -14   34   42     12.88      0.00
  -15   34   41     17.72      0.00
  -16   34   40      2.61      0.00
  -17   34   39     -7.14      0.00
  -18   34   38    -13.33      0.00
  -19   34   37      8.13      0.00
  -20   34   36      5.36      0.00
  -21   34   35      8.03      0.00
  -22   34   34      4.03      0.00
  -23   34   33      4.43      0.00
  -24   34   32     -2.94      0.00
  -25   34   31      5.42      0.00
  -26   34   30     -6.89      0.00
  -10   33   44     -4.39      0.00
  -11   33   43      3.29      0.00
  -12   33   42     -8.28      0.00
  -13   33   41    -16.08      0.00
  -14   33   40     27.04      0.00
  -15   33   39      5.82      0.00
  -16   33   38    -12.58      0.00
  -17   33   37    -12.82      0.00
  -18   33   36    -13.45      0.00
  -19   33   35     11.34      0.00
  -20   33   34     -4.84      0.00
  -21   33   33      6.50      0.00
  -22   33   32      7.11      0.00
  -23   33   31    -18.06      0.00
  -24   33   30     14.75      0.00
  -25   33   29     -9.06      0.00
   -7   32   45     -3.04      0.00
   -8   32   44    -11.69      0.00
   -9   32   43     -7.74      0.00
  -10   32   42     11.88      0.00
  -11   32   41      4.93      0.00
  -12   32   40     -2.89      0.00
  -13   32   39     -6.44      0.00
  -14   32   38     14.11      0.00
  -15   32   37      1.95      0.00
  -16   32   36      0.79      0.00
  -17   32   35      7.36      0.00
  -18   32   34     -2.86      0.00
  -19   32   33     -3.30      0.00
  -20   32   32     -7.80      0.00
  -21   32   31      9.37      0.00
  -22   32   30    -23.87      0.00
  -23   32   29     -6.77      0.00
  -24   32   28     -8.65      0.00
  -32   32   20    -20.04      0.00
  -32   33   19     -2.34      0.00
  -32   34   18    -10.49      0.00
   -5   31   45      6.99      0.00
   -6   31   44      2.53      0.00
   -7   31   43     -7.44      0.00
   -8   31   42     -5.86      0.00
   -9   31   41     11.25      0.00
  -10   31   40     10.68      0.00
  -11   31   39    -16.69      0.00
  -12   31   38     15.61      0.00
  -13   31   37      2.28      0.00
  -14   31   36     -0.20      0.00
  -15   31   35     -7.31      0.00
  -16   31   34      5.02      0.00
  -17   31   33     -1.09      0.00
  -18   31   32     -1.27      0.00
  -19   31   31    -14.04      0.00
  -20   31   30    -16.26      0.00
  -21   31   29     -3.23      0.00
  -22   31   28    -19.13      0.00
  -23   31   27     -4.94      0.00
  -31   31   19    -25.34      0.00
  -31   32   18     -6.22      0.00
  -31   33   17     -7.68      0.00
  -31   34   16    -14.75      0.00
  -31   35   15     -5.62      0.00
   -2   30   46     -9.24      0.00
   -3   30   45    -14.20      0.00
   -4   30   44     -2.60      0.00
   -5   30   43      3.38      0.00
   -6   30   42     -3.73      0.00
   -7   30   41     -5.55      0.00
   -8   30   40      5.37      0.00
   -9   30   39      3.31      0.00
  -10   30   38    -11.58      0.00
  -11   30   37      0.89      0.00
  -12   30   36      9.68      0.00
  -13   30   35     13.10      0.00
  -14   30   34      0.52      0.00
  -15   30   33    -13.83      0.00
  -16   30   32     -4.99      0.00
  -17   30   31     -5.34      0.00
  -18   30   30     -4.90      0.00
  -19   30   29     -3.21      0.00
  -20   30   28     -7.50      0.00
  -21   30   27     -6.57      0.00
  -22   30   26      4.15      0.00
  -30   30   18     -4.00      0.00
  -30   31   17      8.95      0.00
  -30   32   16      6.55      0.00
  -30   33   15     -5.44      0.00
  -30   34   14      6.60      0.00
  -30   35   13      7.55      0.00
  -30   36   12     24.03      0.00
    0   29   46      2.16      0.00
   -1   29   45    -20.02      0.00
   -2   29   44     12.57      0.00
   -3   29   43      9.90      0.00
   -4   29   42     -4.77      0.00
   -5   29   41      4.15      0.00
   -6   29   40      0.22      0.00
   -7   29   39     18.25      0.00
   -8   29   38     -5.87      0.00
   -9   29   37      0.49      0.00
  -10   29   36    -24.91      0.00
  -11   29   35    -12.64      0.00
  -12   29   34     10.90      0.00
  -13   29   33      3.18      0.00
  -14   29   32     -8.09      0.00
  -15   29   31     -0.66      0.00
  -16   29   30      5.07      0.00
  -17   29   29     -8.64      0.00
  -18   29   28    -10.51      0.00
  -19   29   27     -2.39      0.00
  -20   29   26     -1.53      0.00
  -21   29   25      7.14      0.00
  -29   29   17      2.37      0.00
  -29   30   16      9.16      0.00
  -29   31   15     -4.38      0.00
  -29   32   14      9.04      0.00
  -29   33   13    -14.34      0.00
  -29   34   12     -8.37      0.00
  -29   35   11      6.46      0.00
  -29   36   10     10.31      0.00
  -29   37    9      1.59      0.00
    0   28   44    -36.45      0.00
   -1   28   43    -16.12      0.00
   -2   28   42     14.55      0.00
   -3   28   41     17.25      0.00
   -4   28   40      6.06      0.00
   -5   28   39    -10.16      0.00
   -6   28   38    -35.40      0.00
   -7   28   37     -1.85      0.00
   -8   28   36    -13.08      0.00
   -9   28   35     -8.19      0.00
  -10   28   34     -8.65      0.00
  -11   28   33     10.84      0.00
  -12   28   32     16.03      0.00
  -13   28   31      2.43      0.00
  -14   28   30     -3.83      0.00
  -15   28   29     -1.66      0.00
  -16   28   28     -7.17      0.00
  -17   28   27      6.37      0.00
  -18   28   26     -2.93      0.00
  -19   28   25    -20.04      0.00
  -20   28   24    -10.73      0.00
  -28   28   16     -4.04      0.00
  -28   29   15     -2.59      0.00
  -28   30   14      8.37      0.00
  -28   31   13     -0.14      0.00
  -28   32   12      0.35      0.00
  -28   33   11     -8.38      0.00
  -28   34   10      3.56      0.00
  -28   35    9     -1.12      0.00
  -28   36    8      0.50      0.00
  -28   37    7     -4.19      0.00
    0   27   42     16.08      0.00
   -1   27   41     26.68      0.00
   -2   27   40     11.66      0.00
   -3   27   39      1.29      0.00
   -4   27   38      6.61      0.00
   -5   27   37     -1.95      0.00
   -6   27   36     -5.63      0.00
   -7   27   35     17.39      0.00
   -8   27   34      0.99      0.00
   -9   27   33      4.29      0.00
  -10   27   32     -6.17      0.00
  -11   27   31     -3.04      0.00
  -12   27   30     -2.22      0.00
  -13   27   29      2.23      0.00
  -14   27   28     -5.63      0.00
  -15   27   27      1.83      0.00
  -16   27   26     -2.31      0.00
  -17   27   25     24.81      0.00
  -18   27   24      2.00      0.00
  -19   27   23     -4.75      0.00
  -27   27   15    -24.00      0.00
  -27   28   14     -8.30      0.00
  -27   29   13     12.23      0.00
  -27   30   12     -2.20      0.00
  -27   31   11    -21.61      0.00
  -27   32   10      7.21      0.00
  -27   33    9      1.81      0.00
  -27   34    8      0.35      0.00
  -27   35    7      3.06      0.00
  -27   36    6      4.50      0.00
  -27   37    5     -4.55      0.00
    0   26   40     46.24      0.00
   -1   26   39      3.45      0.00
   -2   26   38     -4.29      0.00
   -3   26   37     11.93      0.00
   -4   26   36      2.97      0.00
   -5   26   35     -3.02      0.00
   -6   26   34     -9.87      0.00
   -7   26   33      2.62      0.00
   -8   26   32      1.42      0.00
   -9   26   31     -3.88      0.00
  -10   26   30      1.03      0.00
  -11   26   29      2.93      0.00
  -12   26   28     -2.47      0.00
  -13   26   27     -2.67      0.00
  -14   26   26     -3.96      0.00
  -15   26   25     -6.81      0.00
  -16   26   24     -2.30      0.00
  -17   26   23     -2.58      0.00
  -18   26   22     -3.21      0.00
  -26   26   14     -2.74      0.00
  -26   27   13     -9.49      0.00
  -26   28   12     -3.16      0.00
  -26   29   11      8.02      0.00
  -26   30   10      4.54      0.00
  -26   31    9      5.08      0.00
  -26   32    8      7.72      0.00
  -26   33    7      6.37      0.00
  -26   34    6    -11.34      0.00
  -26   35    5    -26.62      0.00
  -26   36    4     -9.18      0.00
  -26   37    3      3.39      0.00
  -26   38    2     -1.74      0.00
    0   25   38     -8.90      0.00
   -1   25   37      7.50      0.00
   -2   25   36     -2.89      0.00
   -3   25   35     -2.26      0.00
   -4   25   34     -2.50      0.00
   -5   25   33     -2.44      0.00
   -6   25   32     -1.45      0.00
   -7   25   31     -6.67      0.00
   -8   25   30    -11.57      0.00
   -9   25   29      4.09      0.00
  -10   25   28     -3.59      0.00
  -11   25   27      1.98      0.00
  -12   25   26     -5.71      0.00
  -13   25   25     10.44      0.00
  -14   25   24      1.77      0.00
  -15   25   23     10.78      0.00
  -16   25   22     -1.54      0.00
  -17   25   21      3.28      0.00
  -25   25   13     13.74      0.00
  -25   26   12     -6.65      0.00
  -25   27   11      6.69      0.00
  -25   28   10     10.30      0.00
  -25   29    9     -0.42      0.00
  -25   30    8     -7.68      0.00
  -25   31    7     -6.89      0.00
  -25   32    6     -0.63      0.00
  -25   33    5    -10.59      0.00
  -25   34    4    -28.08      0.00
  -25   35    3    -13.67      0.00
  -25   36    2     -0.85      0.00
  -25   37    1    -14.88      0.00
  -13   38    0     -6.58      0.00
    0   24   36     -9.25      0.00
   -1   24   35      4.90      0.00
   -2   24   34     -5.38      0.00
   -3   24   33      5.91      0.00
   -4   24   32     -9.45      0.00
   -5   24   31      4.92      0.00
   -6   24   30    -10.10      0.00
   -7   24   29      2.27      0.00
   -8   24   28      5.09      0.00
   -9   24   27      1.03      0.00
  -10   24   26     -9.49      0.00
  -11   24   25      0.25      0.00
  -12   24   24     -7.97      0.00
  -13   24   23      1.13      0.00
  -14   24   22      8.18      0.00
  -15   24   21     14.18      0.00
  -16   24   20    -22.08      0.00
  -24   24   12     15.12      0.00
  -24   25   11      3.61      0.00
  -24   26   10      8.06      0.00
  -24   27    9      6.74      0.00
  -24   28    8     -3.65      0.00
  -24   29    7      0.61      0.00
  -24   30    6     -6.68      0.00
  -24   31    5     -5.64      0.00
  -24   32    4     -7.10      0.00
  -24   33    3    -19.61      0.00
  -24   34    2     13.55      0.00
  -24   35    1      3.91      0.00
  -12   36    0     -5.56      0.00
  -13   37    1    -16.87      0.00
  -14   38    2     -7.01      0.00
    0   23   34      1.61      0.00
   -1   23   33     12.77      0.00
   -2   23   32      2.46      0.00
   -3   23   31     -2.10      0.00
   -4   23   30      5.63      0.00
   -5   23   29      4.55      0.00
   -6   23   28      0.94      0.00
   -7   23   27      2.10      0.00
   -8   23   26    -12.43      0.00
   -9   23   25      0.21      0.00
  -10   23   24      8.47      0.00
  -11   23   23      3.96      0.00
  -12   23   22     -0.45      0.00
  -13   23   21     -2.83      0.00
  -14   23   20     -1.79      0.00
  -15   23   19     -2.60      0.00
  -23   23   11      7.41      0.00
  -23   24   10     21.43      0.00
  -23   25    9    -18.61      0.00
  -23   26    8      1.09      0.00
  -23   27    7    -12.54      0.00
  -23   28    6    -10.90      0.00
  -23   29    5      3.72      0.00
  -23   30    4      1.95      0.00
  -23   31    3     -2.28      0.00
  -23   32    2      7.31      0.00
  -23   33    1     20.73      0.00
  -11   34    0    -13.07      0.00
  -12   35    1     -6.69      0.00
  -13   36    2     -5.24      0.00
  -14   37    3     -8.81      0.00
  -15   38    4     13.17      0.00
    0   22   32     -1.43      0.00
   -1   22   31      6.34      0.00
   -2   22   30     -7.43      0.00
   -3   22   29     17.41      0.00
   -4   22   28     -5.36      0.00
   -5   22   27     15.44      0.00
   -6   22   26     -2.28      0.00
   -7   22   25    -12.65      0.00
   -8   22   24     -3.65      0.00
   -9   22   23      0.97      0.00
  -10   22   22    -11.23      0.00
  -11   22   21     -3.40      0.00
  -12   22   20     -4.02      0.00
  -13   22   19      3.84      0.00
  -14   22   18     -1.77      0.00
  -22   22   10      2.25      0.00
  -22   23    9     -9.26      0.00
  -22   24    8    -11.66      0.00
  -22   25    7     -5.87      0.00
  -22   26    6     -4.23      0.00
  -22   27    5    -18.06      0.00
  -22   28    4     -3.33      0.00
  -22   29    3    -11.29      0.00
  -22   30    2     -1.43      0.00
  -22   31    1     -3.98      0.00
  -10   32    0     11.96      0.00
  -11   33    1    -14.98      0.00
  -12   34    2    -23.91      0.00
  -13   35    3      4.24      0.00
  -14   36    4     -8.37      0.00
  -15   37    5     -8.65      0.00
  -16   38    6     21.40      0.00
    0   21   30     13.84      0.00
   -1   21   29     12.46      0.00
   -2   21   28      4.42      0.00
   -3   21   27     -4.94      0.00
   -4   21   26    -19.26      0.00
   -5   21   25     -2.60      0.00
   -6   21   24      4.59      0.00
   -7   21   23      0.59      0.00
   -8   21   22      4.42      0.00
   -9   21   21     -2.11      0.00
  -10   21   20     -5.30      0.00
  -11   21   19      0.61      0.00
  -12   21   18      5.48      0.00
  -13   21   17      0.73      0.00
  -21   21    9     -0.98      0.00
  -21   22    8     -1.51      0.00
  -21   23    7      1.31      0.00
  -21   24    6     12.07      0.00
  -21   25    5    -14.29      0.00
  -21   26    4     -3.35      0.00
  -21   27    3     -4.85      0.00
  -21   28    2     -3.60      0.00
  -21   29    1     -7.10      0.00
   -9   30    0    -22.26      0.00
  -10   31    1     13.31      0.00
  -11   32    2      8.09      0.00
  -12   33    3     -5.40      0.00
  -13   34    4     -6.97      0.00
  -14   35    5     -6.69      0.00
  -15   36    6     -5.86      0.00
  -16   37    7     13.35      0.00
  -17   38    8      9.57      0.00
    0   20   28    -13.47      0.00
   -1   20   27    -13.53      0.00
   -2   20   26     -8.43      0.00
   -3   20   25     -7.05      0.00
   -4   20   24     -3.07      0.00
   -5   20   23      8.68      0.00
   -6   20   22      6.31      0.00
   -7   20   21    -16.65      0.00
   -8   20   20     -1.76      0.00
   -9   20   19     -4.24      0.00
  -10   20   18     13.34      0.00
  -11   20   17     -4.40      0.00
  -12   20   16      0.45      0.00
  -20   20    8     -9.77      0.00
  -20   21    7      3.19      0.00
  -20   22    6      1.47      0.00
  -20   23    5      6.32      0.00
  -20   24    4     -2.31      0.00
  -20   25    3     -1.69      0.00
  -20   26    2     14.08      0.00
  -20   27    1      3.57      0.00
   -8   28    0      7.59      0.00
   -9   29    1     -7.12      0.00
  -10   30    2     -3.14      0.00
  -11   31    3     -0.31      0.00
  -12   32    4      6.89      0.00
  -13   33    5      3.51      0.00
  -14   34    6    -24.91      0.00
  -15   35    7    -16.89      0.00
  -16   36    8     11.94      0.00
  -17   37    9    -11.33      0.00
  -18   38   10     -7.22      0.00
    0   19   26     -2.49      0.00
   -1   19   25     -2.45      0.00
   -2   19   24      8.62      0.00
   -3   19   23      7.01      0.00
   -4   19   22     10.09      0.00
   -5   19   21      7.02      0.00
   -6   19   20     10.15      0.00
   -7   19   19      1.53      0.00
   -8   19   18      0.73      0.00
   -9   19   17    -14.30      0.00
  -10   19   16     -0.16      0.00
  -11   19   15     -0.95      0.00
  -19   19    7      0.81      0.00
  -19   20    6     -2.40      0.00
  -19   21    5     -0.52      0.00
  -19   22    4      0.35      0.00
  -19   23    3     -6.23      0.00
  -19   24    2      0.96      0.00
  -19   25    1    -10.73      0.00
   -7   26    0     -1.76      0.00
   -8   27    1      9.97      0.00
   -9   28    2      1.82      0.00
  -10   29    3     -3.79      0.00
  -11   30    4     -2.76      0.00
  -12   31    5    -16.44      0.00
  -13   32    6    -10.75      0.00
  -14   33    7    -16.81      0.00
  -15   34    8     12.39      0.00
  -16   35    9    -10.84      0.00
  -17   36   10      0.66      0.00
  -18   37   11     -9.57      0.00
  -19   38   12      3.82      0.00
    0   18   24     12.77      0.00
   -1   18   23      8.21      0.00
   -2   18   22      5.62      0.00
   -3   18   21     -6.59      0.00
   -4   18   20    -10.15      0.00
   -5   18   19     -3.08      0.00
   -6   18   18      2.21      0.00
   -7   18   17     -2.51      0.00
   -8   18   16      6.37      0.00
   -9   18   15     -0.67      0.00
  -10   18   14      2.61      0.00
  -18   18    6     -1.55      0.00
  -18   19    5     -1.76      0.00
  -18   20    4      0.64      0.00
  -18   21    3      1.91      0.00
  -18   22    2     -7.79      0.00
  -18   23    1      2.06      0.00
   -6   24    0     -1.44      0.00
   -7   25    1     -5.91      0.00
   -8   26    2      1.74      0.00
   -9   27    3     -1.72      0.00
  -10   28    4    -14.93      0.00
  -11   29    5     17.05      0.00
  -12   30    6    -27.79      0.00
  -13   31    7    -12.57      0.00
  -14   32    8      9.16      0.00
  -15   33    9    -15.21      0.00
  -16   34   10      0.99      0.00
  -17   35   11      9.91      0.00
  -18   36   12     10.13      0.00
  -19   37   13     19.47      0.00
  -20   38   14      8.42      0.00
    0   17   22      1.70      0.00
   -1   17   21    -16.28      0.00
   -2   17   20     -4.98      0.00
   -3   17   19      0.80      0.00
   -4   17   18      5.32      0.00
   -5   17   17      2.11      0.00
   -6   17   16     -7.63      0.00
   -7   17   15      7.63      0.00
   -8   17   14     -0.87      0.00
   -9   17   13     13.15      0.00
  -17   17    5      3.42      0.00
  -17   18    4     -6.05      0.00
  -17   19    3     -6.98      0.00
  -17   20    2     -7.76      0.00
  -17   21    1     -3.55      0.00
   -5   22    0      7.02      0.00
   -6   23    1      7.84      0.00
   -7   24    2     -3.13      0.00
   -8   25    3     -7.92      0.00
   -9   26    4     -0.23      0.00
  -10   27    5     11.07      0.00
  -11   28    6      0.64      0.00
  -12   29    7     -6.64      0.00
  -13   30    8     -7.89      0.00
  -14   31    9      9.16      0.00
  -15   32   10      1.26      0.00
  -16   33   11     -4.66      0.00
  -17   34   12     -3.74      0.00
  -18   35   13    -11.04      0.00
  -19   36   14    -22.73      0.00
  -20   37   15     -1.65      0.00
  -21   38   16      4.75      0.00
    0   16   20      4.26      0.00
   -1   16   19      3.07      0.00
   -2   16   18      5.99      0.00
   -3   16   17    -18.64      0.00
   -4   16   16     12.24      0.00
   -5   16   15      7.08      0.00
   -6   16   14     16.13      0.00
   -7   16   13     -3.86      0.00
   -8   16   12    -24.35      0.00
  -16   16    4    -15.08      0.00
  -16   17    3     -5.46      0.00
  -16   18    2      9.09      0.00
  -16   19    1      0.14      0.00
   -4   20    0     -3.71      0.00
   -5   21    1     -2.89      0.00
   -6   22    2     14.74      0.00
   -7   23    3     -2.74      0.00
   -8   24    4     -3.92      0.00
   -9   25    5     -9.37      0.00
  -10   26    6      1.87      0.00
  -11   27    7      0.29      0.00
  -12   28    8      5.40      0.00
  -13   29    9     -3.55      0.00
  -14   30   10     -1.50      0.00
  -15   31   11     -3.60      0.00
  -16   32   12     -4.65      0.00
  -17   33   13    -15.33      0.00
  -18   34   14     -9.22      0.00
  -19   35   15    -11.29      0.00
  -20   36   16     13.95      0.00
  -21   37   17      5.56      0.00
  -22   38   18    -10.06      0.00
    0   15   18     18.09      0.00
   -1   15   17      8.83      0.00
   -2   15   16     -4.93      0.00
   -3   15   15      4.89      0.00
   -4   15   14     -9.47      0.00
   -5   15   13     -6.06      0.00
   -6   15   12    -19.10      0.00
   -7   15   11     31.72      0.00
  -15   15    3    -17.64      0.00
  -15   16    2     -4.18      0.00
  -15   17    1      7.79      0.00
   -3   18    0      5.68      0.00
   -4   19    1      0.08      0.00
   -5   20    2    -10.54      0.00
   -6   21    3      4.29      0.00
   -7   22    4      4.67      0.00
   -8   23    5      3.85      0.00
   -9   24    6      6.52      0.00
  -10   25    7     -6.26      0.00
  -11   26    8      9.90      0.00
  -12   27    9     -7.73      0.00
  -13   28   10    -11.00      0.00
  -14   29   11      6.04      0.00
  -15   30   12      4.99      0.00
  -16   31   13      9.33      0.00
  -17   32   14      5.63      0.00
  -18   33   15     12.57      0.00
  -19   34   16     -1.24      0.00
  -20   35   17     10.87      0.00
  -21   36   18      8.98      0.00
  -22   37   19     -0.84      0.00
    0   14   16     -4.04      0.00
   -1   14   15      3.73      0.00
   -2   14   14    -28.72      0.00
   -3   14   13    -19.38      0.00
   -4   14   12      2.75      0.00
   -5   14   11     -4.79      0.00
   -6   14   10    -24.75      0.00
  -14   14    2     10.73      0.00
  -14   15    1     -9.08      0.00
   -2   16    0     -9.08      0.00
   -3   17    1     -2.91      0.00
   -4   18    2    -11.02      0.00
   -5   19    3    -13.39      0.00
   -6   20    4     -3.11      0.00
   -7   21    5      9.70      0.00
   -8   22    6     -2.15      0.00
   -9   23    7     10.29      0.00
  -10   24    8      0.90      0.00
  -11   25    9      2.44      0.00
  -12   26   10     -0.29      0.00
  -13   27   11      2.77      0.00
  -14   28   12      8.58      0.00
  -15   29   13     -4.50      0.00
  -16   30   14      0.08      0.00
  -17   31   15      1.09      0.00
  -18   32   16     10.00      0.00
  -19   33   17      6.07      0.00
  -20   34   18    -11.48      0.00
  -21   35   19    -15.60      0.00
  -22   36   20     13.61      0.00
  -23   37   21      8.66      0.00
    0   13   14     27.88      0.00
   -1   13   13    -14.78      0.00
   -2   13   12     -5.16      0.00
   -3   13   11    -41.45      0.00
   -4   13   10      8.22      0.00
   -5   13    9     27.07      0.00
  -13   13    1    -16.77      0.00
   -1   14    0      2.91      0.00
   -2   15    1     -6.24      0.00
   -3   16    2     -1.58      0.00
   -4   17    3     11.92      0.00
   -5   18    4      6.98      0.00
   -6   19    5     -6.32      0.00
   -7   20    6     -0.40      0.00
   -8   21    7      7.19      0.00
   -9   22    8     11.34      0.00
  -10   23    9      8.07      0.00
  -11   24   10     -7.02      0.00
  -12   25   11    -10.36      0.00
  -13   26   12     -4.21      0.00
  -14   27   13     11.09      0.00
  -15   28   14      0.67      0.00
  -16   29   15      5.72      0.00
  -17   30   16     -5.65      0.00
  -18   31   17    -13.45      0.00
  -19   32   18     -7.50      0.00
  -20   33   19    -26.25      0.00
  -21   34   20     -3.97      0.00
  -22   35   21     12.10      0.00
  -23   36   22     -1.05      0.00
  -24   37   23     -0.87      0.00
    0   12   12     29.35      0.00
   -1   12   11     22.45      0.00
   -2   12   10     10.90      0.00
   -3   12    9      5.28      0.00
   -4   12    8     14.92      0.00
    0   12    0      4.14      0.00
   -1   13    1      0.17      0.00
   -2   14    2      9.40      0.00
   -3   15    3     -2.87      0.00
   -4   16    4    -18.46      0.00
   -5   17    5      9.63      0.00
   -6   18    6      9.81      0.00
   -7   19    7     11.31      0.00
   -8   20    8     -2.39      0.00
   -9   21    9     12.59      0.00
  -10   22   10      3.69      0.00
  -11   23   11     -1.87      0.00
  -12   24   12     -5.05      0.00
  -13   25   13    -13.91      0.00
  -14   26   14     -0.27      0.00
  -15   27   15      4.00      0.00
  -16   28   16     -7.21      0.00
  -17   29   17      9.51      0.00
  -18   30   18      5.28      0.00
  -19   31   19     -6.40      0.00
  -20   32   20      7.87      0.00
  -21   33   21     11.63      0.00
  -22   34   22      7.66      0.00
  -23   35   23     14.18      0.00
  -24   36   24     -7.08      0.00
    0   11   10     13.37      0.00
   -1   11    9      1.51      0.00
   -2   11    8    -30.86      0.00
   -3   11    7     21.85      0.00
    0   11    1      7.10      0.00
   -1   12    2    -14.16      0.00
   -2   13    3     10.97      0.00
   -3   14    4      3.36      0.00
   -4   15    5      9.14      0.00
   -5   16    6     -9.35      0.00
   -6   17    7     -6.98      0.00
   -7   18    8     -4.73      0.00
   -8   19    9      3.90      0.00
   -9   20   10     -7.07      0.00
  -10   21   11      5.64      0.00
  -11   22   12      0.26      0.00
  -12   23   13     -0.91      0.00
  -13   24   14     -1.32      0.00
  -14   25   15      5.12      0.00
  -15   26   16     -9.16      0.00
  -16   27   17     -2.46      0.00
  -17   28   18     -4.79      0.00
  -18   29   19     -7.22      0.00
  -19   30   20     -0.93      0.00
  -20   31   21      6.30      0.00
  -21   32   22     -2.15      0.00
  -22   33   23     13.62      0.00
  -23   34   24      9.49      0.00
  -24   35   25     27.98      0.00
  -25   36   26     17.83      0.00
    0   10    8     28.93      0.00
   -1   10    7      5.06      0.00
   -2   10    6      3.08      0.00
    0   10    2     -4.41      0.00
   -1   11    3      2.74      0.00
   -2   12    4     17.85      0.00
   -3   13    5    -33.12      0.00
   -4   14    6    -12.55      0.00
   -5   15    7      2.11      0.00
   -6   16    8     32.59      0.00
   -7   17    9     -0.14      0.00
   -8   18   10     -0.87      0.00
   -9   19   11     -2.06      0.00
  -10   20   12     10.27      0.00
  -11   21   13      7.95      0.00
  -12   22   14      7.43      0.00
  -13   23   15     -5.23      0.00
  -14   24   16     -9.26      0.00
  -15   25   17      1.26      0.00
  -16   26   18      5.16      0.00
  -17   27   19     -7.28      0.00
  -18   28   20     -6.59      0.00
  -19   29   21      8.27      0.00
  -20   30   22     19.25      0.00
  -21   31   23      8.42      0.00
  -22   32   24      3.99      0.00
  -23   33   25     13.17      0.00
  -24   34   26     25.13      0.00
  -25   35   27     10.26      0.00
  -26   36   28      3.77      0.00
    0    9    6      0.45      0.00
   -1    9    5     20.78      0.00
    0    9    3      9.22      0.00
   -1   10    4    -32.31      0.00
   -2   11    5     20.08      0.00
   -3   12    6    -16.29      0.00
   -4   13    7     16.12      0.00
   -5   14    8      2.32      0.00
   -6   15    9     12.45      0.00
   -7   16   10     -3.92      0.00
   -8   17   11      8.87      0.00
   -9   18   12      2.65      0.00
  -10   19   13     -1.20      0.00
  -11   20   14     13.16      0.00
  -12   21   15      1.70      0.00
  -13   22   16     -0.37      0.00
  -14   23   17      7.52      0.00
  -15   24   18      0.34      0.00
  -16   25   19     -8.66      0.00
  -17   26   20     -4.84      0.00
  -18   27   21      3.62      0.00
  -19   28   22     -2.43      0.00
  -20   29   23     -2.10      0.00
  -21   30   24    -15.11      0.00
  -22   31   25     -4.93      0.00
  -23   32   26     14.05      0.00
  -24   33   27      9.85      0.00
  -25   34   28      7.67      0.00
  -26   35   29    -15.47      0.00
    0    8    4    -12.03      0.00
    0    0   12    233.43      0.00
   -1    1   13    177.42      0.00
   -2    2   14    -58.39      0.00
   -3    3   15   -174.33      0.00
   -4    4   16     77.25      0.00
   -5    5   17    -22.00      0.00
   -6    6   18    -10.00      0.00
   -7    7   19     38.70      0.00
   -8    8   20     33.42      0.00
   -9    9   21    -31.68      0.00
  -10   10   22     26.33      0.00
  -11   11   23     15.48      0.00
  -12   12   24     15.45      0.00
  -13   13   25    -16.22      0.00
  -14   14   26     -2.17      0.00
  -15   15   27      2.70      0.00
  -16   16   28     -4.46      0.00
  -17   17   29     -7.17      0.00
  -18   18   30     -4.74      0.00
  -19   19   31     11.18      0.00
  -20   20   32     14.47      0.00
  -21   21   33     -6.12      0.00
  -22   22   34     -4.05      0.00
  -23   23   35      3.60      0.00
  -24   24   36      9.80      0.00
  -25   25   37      0.32      0.00
  -26   26   38     -4.34      0.00
  -27   27   39    -17.03      0.00
  -28   28   40     13.38      0.00
  -29   29   41     12.26      0.00
    0    1   14      0.48      0.00
   -1    2   15     55.40      0.00
   -2    3   16     27.22      0.00
   -3    4   17    -63.56      0.00
   -4    5   18     45.12      0.00
   -5    6   19    -20.35      0.00
   -6    7   20    -23.08      0.00
   -7    8   21     19.84      0.00
   -8    9   22    -26.86      0.00
   -9   10   23     -9.60      0.00
  -10   11   24    -16.65      0.00
  -11   12   25      1.03      0.00
  -12   13   26     -8.22      0.00
  -13   14   27      3.97      0.00
  -14   15   28     -3.77      0.00
  -15   16   29      8.62      0.00
  -16   17   30     -9.45      0.00
  -17   18   31      0.00      0.00
  -18   19   32     11.62      0.00
  -19   20   33     -6.17      0.00
  -20   21   34      1.98      0.00
  -21   22   35      4.21      0.00
  -22   23   36     -2.11      0.00
  -23   24   37     -1.77      0.00
  -24   25   38      3.36      0.00
  -25   26   39      0.08      0.00
  -26   27   40      1.31      0.00
  -27   28   41      1.92      0.00
  -28   29   42      4.50      0.00
  -29   30   43      1.28      0.00
    0    2   16     53.94      0.00
   -1    3   17      4.97      0.00
   -2    4   18    -14.72      0.00
   -3    5   19    -42.89      0.00
   -4    6   20     74.27      0.00
   -5    7   21     32.09      0.00
   -6    8   22    -12.28      0.00
   -7    9   23     -7.62      0.00
   -8   10   24      8.67      0.00
   -9   11   25      2.23      0.00
  -10   12   26      7.46      0.00
  -11   13   27     16.42      0.00
  -12   14   28      2.29      0.00
  -13   15   29     -9.64      0.00
  -14   16   30     -0.09      0.00
  -15   17   31      9.39      0.00
  -16   18   32      4.96      0.00
  -17   19   33     -1.60      0.00
  -18   20   34     -6.82      0.00
  -19   21   35     -0.06      0.00
  -20   22   36      9.62      0.00
  -21   23   37    -10.80      0.00
  -22   24   38     -5.97      0.00
  -23   25   39     -7.50      0.00
  -24   26   40    -12.07      0.00
  -25   27   41      0.81      0.00
  -26   28   42     15.44      0.00
  -27   29   43     -3.81      0.00
  -28   30   44     -4.79      0.00
    0    3   18    179.63      0.00
   -1    4   19    -46.77      0.00
   -2    5   20      6.35      0.00
   -3    6   21    -15.86      0.00
   -4    7   22    -10.46      0.00
   -5    8   23     24.49      0.00
   -6    9   24     24.58      0.00
   -7   10   25      5.48      0.00
   -8   11   26     -2.15      0.00
   -9   12   27      1.02      0.00
  -10   13   28      1.39      0.00
  -11   14   29      4.32      0.00
  -12   15   30      7.67      0.00
  -13   16   31     -9.81      0.00
  -14   17   32      4.21      0.00
  -15   18   33     -9.81      0.00
  -16   19   34      3.41      0.00
  -17   20   35     -6.09      0.00
  -18   21   36      2.80      0.00
  -19   22   37      1.19      0.00
  -20   23   38     -4.65      0.00
  -21   24   39      2.09      0.00
  -22   25   40      5.15      0.00
  -23   26   41     -5.44      0.00
  -24   27   42     13.18      0.00
  -25   28   43      3.65      0.00
  -26   29   44     -1.20      0.00
  -27   30   45      7.06      0.00
    0    4   20     -1.76      0.00
   -1    5   21     19.35      0.00
   -2    6   22     15.13      0.00
   -3    7   23     13.62      0.00
   -4    8   24    -14.23      0.00
   -5    9   25      4.31      0.00
   -6   10   26    -20.11      0.00
   -7   11   27     25.44      0.00
   -8   12   28    -14.98      0.00
   -9   13   29      6.49      0.00
  -10   14   30     -6.12      0.00
  -11   15   31      2.13      0.00
  -12   16   32     -1.45      0.00
  -13   17   33     -1.30      0.00
  -14   18   34      0.89      0.00
  -15   19   35      2.88      0.00
  -16   20   36      6.39      0.00
  -17   21   37      4.04      0.00
  -18   22   38     20.36      0.00
  -19   23   39      0.47      0.00
  -20   24   40      0.07      0.00
  -21   25   41      8.57      0.00
  -22   26   42     11.13      0.00
  -23   27   43     -1.08      0.00
  -24   28   44      1.25      0.00
  -25   29   45    -13.55      0.00
  -26   30   46     27.28      0.00
    0    5   22     96.26      0.00
   -1    6   23     -2.71      0.00
   -2    7   24    -23.10      0.00
   -3    8   25     -0.57      0.00
   -4    9   26    -11.44      0.00
   -5   10   27     13.64      0.00
   -6   11   28      4.72      0.00
   -7   12   29     10.43      0.00
   -8   13   30     -5.84      0.00
   -9   14   31     12.40      0.00
  -10   15   32      3.83      0.00
  -11   16   33     -5.38      0.00
  -12   17   34      4.79      0.00
  -13   18   35     -1.35      0.00
  -14   19   36      2.79      0.00
  -15   20   37      0.19      0.00
  -16   21   38     14.11      0.00
  -17   22   39      6.80      0.00
  -18   23   40     -3.47      0.00
  -19   24   41     -2.15      0.00
  -20   25   42     -5.43      0.00
  -21   26   43      2.44      0.00
  -22   27   44      4.27      0.00
  -23   28   45    -16.21      0.00
  -24   29   46     -9.11      0.00
  -25   30   47      2.18      0.00
    0    6   24     63.03      0.00
   -1    7   25    -27.79      0.00
   -2    8   26    -16.49      0.00
   -3    9   27      1.26      0.00
   -4   10   28      8.82      0.00
   -5   11   29     11.71      0.00
   -6   12   30     28.26      0.00
   -7   13   31      3.42      0.00
   -8   14   32    -10.87      0.00
   -9   15   33     -8.92      0.00
  -10   16   34     11.70      0.00
  -11   17   35      0.18      0.00
  -12   18   36     12.87      0.00
  -13   19   37     -8.54      0.00
  -14   20   38      8.38      0.00
  -15   21   39      0.47      0.00
  -16   22   40      0.23      0.00
  -17   23   41     -5.13      0.00
  -18   24   42      4.48      0.00
  -19   25   43     10.87      0.00
  -20   26   44      1.11      0.00
  -21   27   45      9.74      0.00
  -22   28   46      4.07      0.00
  -23   29   47    -26.86      0.00
  -24   30   48     -3.39      0.00
    0    7   26     -8.37      0.00
   -1    8   27     23.72      0.00
   -2    9   28     12.44      0.00
   -3   10   29     16.91      0.00
   -4   11   30    -12.52      0.00
   -5   12   31    -14.92      0.00
   -6   13   32      1.12      0.00
   -7   14   33      7.41      0.00
   -8   15   34      1.71      0.00
   -9   16   35     -8.63      0.00
  -10   17   36     -3.94      0.00
  -11   18   37      0.07      0.00
  -12   19   38      3.59      0.00
  -13   20   39     -1.18      0.00
  -14   21   40      6.97      0.00
  -15   22   41    -10.13      0.00
  -16   23   42      9.43      0.00
  -17   24   43     25.52      0.00
  -18   25   44      9.22      0.00
  -19   26   45      4.30      0.00
  -20   27   46      8.70      0.00
  -21   28   47     17.02      0.00
  -22   29   48      7.95      0.00
  -23   30   49     -6.31      0.00
    0    8   28     11.56      0.00
   -1    9   29      3.46      0.00
   -2   10   30    -15.66      0.00
   -3   11   31      8.64      0.00
   -4   12   32     -8.54      0.00
   -5   13   33      1.35      0.00
   -6   14   34      0.97      0.00
   -7   15   35      1.61      0.00
   -8   16   36     -4.19      0.00
   -9   17   37     -2.25      0.00
  -10   18   38      2.75      0.00
  -11   19   39      4.17      0.00
  -12   20   40      0.54      0.00
  -13   21   41     -7.28      0.00
  -14   22   42     -2.42      0.00
  -15   23   43     -6.03      0.00
  -16   24   44     -3.33      0.00
  -17   25   45      5.92      0.00
  -18   26   46      3.21      0.00
  -19   27   47    -15.94      0.00
  -20   28   48     10.86      0.00
  -21   29   49    -16.01      0.00
  -22   30   50    -13.73      0.00
    0    9   30     22.24      0.00
   -1   10   31      6.27      0.00
   -2   11   32      4.89      0.00
   -3   12   33    -24.11      0.00
   -4   13   34     16.26      0.00
   -5   14   35      8.78      0.00
   -6   15   36     21.14      0.00
   -7   16   37     -8.36      0.00
   -8   17   38      8.42      0.00
   -9   18   39     -8.31      0.00
  -10   19   40      3.15      0.00
  -11   20   41      4.33      0.00
  -12   21   42     -1.22      0.00
  -13   22   43     -6.30      0.00
  -14   23   44     -0.49      0.00
  -15   24   45     -7.49      0.00
  -16   25   46     -1.67      0.00
  -17   26   47     -8.92      0.00
  -18   27   48     -2.18      0.00
  -19   28   49      3.30      0.00
  -20   29   50     -5.97      0.00
  -21   30   51    -19.23      0.00
    0   10   32      7.66      0.00
   -1   11   33      3.32      0.00
   -2   12   34      3.29      0.00
   -3   13   35     -2.32      0.00
   -4   14   36     -3.08      0.00
   -5   15   37    -12.26      0.00
   -6   16   38     -7.86      0.00
   -7   17   39     -9.00      0.00
   -8   18   40     12.24      0.00
   -9   19   41      0.54      0.00
  -10   20   42     -3.85      0.00
  -11   21   43      7.77      0.00
  -12   22   44     -3.86      0.00
  -13   23   45      7.40      0.00
  -14   24   46      7.36      0.00
  -15   25   47      0.23      0.00
  -16   26   48     -0.28      0.00
  -17   27   49     -6.53      0.00
  -18   28   50      9.43      0.00
  -19   29   51      3.48      0.00
  -20   30   52     -4.58      0.00
    0   11   34      4.81      0.00
   -1   12   35     -6.92      0.00
   -2   13   36     11.15      0.00
   -3   14   37    -10.74      0.00
   -4   15   38     -9.95      0.00
   -5   16   39      2.01      0.00
   -6   17   40      3.24      0.00
   -7   18   41     -3.06      0.00
   -8   19   42     12.46      0.00
   -9   20   43      8.25      0.00
  -10   21   44     -7.40      0.00
  -11   22   45      3.88      0.00
  -12   23   46     -2.43      0.00
  -13   24   47     10.17      0.00
  -14   25   48     -2.81      0.00
  -15   26   49     -5.89      0.00
  -16   27   50     -6.37      0.00
  -17   28   51    -13.47      0.00
  -18   29   52     10.74      0.00
  -19   30   53     20.63      0.00
    0   12   36     31.19      0.00
   -1   13   37    -12.34      0.00
   -2   14   38      4.43      0.00
   -3   15   39     -5.98      0.00
   -4   16   40      3.98      0.00
   -5   17   41     10.73      0.00
   -6   18   42      5.06      0.00
   -7   19   43     -2.04      0.00
   -8   20   44     10.57      0.00
   -9   21   45     -1.13      0.00
  -10   22   46     -7.44      0.00
  -11   23   47     10.06      0.00
  -12   24   48      8.18      0.00
  -13   25   49      3.94      0.00
  -14   26   50     -5.20      0.00
  -15   27   51    -15.89      0.00
  -16   28   52     12.69      0.00
  -17   29   53      0.18      0.00
  -18   30   54     -2.45      0.00
    0   13   38     16.75      0.00
   -1   14   39     -9.68      0.00
   -2   15   40      8.14      0.00
   -3   16   41     -4.21      0.00
   -4   17   42    -19.47      0.00
   -5   18   43      2.59      0.00
   -6   19   44     -0.81      0.00
   -7   20   45     -5.17      0.00
   -8   21   46     14.24      0.00
   -9   22   47      9.23      0.00
  -10   23   48    -13.38      0.00
  -11   24   49     15.70      0.00
  -12   25   50     -0.54      0.00
  -13   26   51      1.12      0.00
  -14   27   52     -4.76      0.00
  -15   28   53      5.64      0.00
  -16   29   54     12.58      0.00
  -17   30   55     -1.93      0.00
    0   14   40     10.20      0.00
   -1   15   41     -6.52      0.00
   -2   16   42     -0.40      0.00
   -3   17   43     -3.95      0.00
   -4   18   44      0.15      0.00
   -5   19   45     13.46      0.00
   -6   20   46      6.36      0.00
   -7   21   47      1.09      0.00
   -8   22   48     -4.50      0.00
   -9   23   49     -9.21      0.00
  -10   24   50      9.17      0.00
  -11   25   51     11.46      0.00
  -12   26   52     -2.92      0.00
  -13   27   53      9.24      0.00
  -14   28   54      5.94      0.00
  -15   29   55      0.73      0.00
  -16   30   56      7.35      0.00
    0   15   42      5.69      0.00
   -1   16   43    -16.09      0.00
   -2   17   44     -1.56      0.00
   -3   18   45     -8.17      0.00
   -4   19   46     -5.44      0.00
   -5   20   47      6.05      0.00
   -6   21   48      0.79      0.00
   -7   22   49     -2.64      0.00
   -8   23   50     13.34      0.00
   -9   24   51      7.68      0.00
  -10   25   52      1.24      0.00
  -11   26   53      6.70      0.00
  -12   27   54      1.89      0.00
  -13   28   55      7.26      0.00
  -14   29   56      7.11      0.00
  -15   30   57      6.09      0.00
    0   16   44      0.01      0.00
   -1   17   45     -3.46      0.00
   -2   18   46     -0.21      0.00
   -3   19   47     18.95      0.00
   -4   20   48     -4.48      0.00
   -5   21   49      9.95      0.00
   -6   22   50      3.53      0.00
   -7   23   51     12.23      0.00
   -8   24   52      5.14      0.00
   -9   25   53     -6.17      0.00
  -10   26   54      5.78      0.00
  -11   27   55     -4.94      0.00
  -12   28   56      6.35      0.00
  -13   29   57     -2.89      0.00
    0   17   46     -0.84      0.00
   -1   18   47      2.25      0.00
   -2   19   48      5.28      0.00
   -3   20   49      4.64      0.00
   -4   21   50     -4.97      0.00
   -5   22   51      3.43      0.00
   -6   23   52     -7.09      0.00
   -7   24   53     -1.09      0.00
   -8   25   54    -13.66      0.00
   -9   26   55      6.05      0.00
  -10   27   56      0.62      0.00
  -11   28   57      8.93      0.00
  -12   29   58     21.17      0.00
    0   18   48    -19.23      0.00
   -1   19   49     -9.22      0.00
   -2   20   50     -3.24      0.00
   -3   21   51      4.47      0.00
   -4   22   52      1.05      0.00
   -5   23   53      5.99      0.00
   -6   24   54     10.31      0.00
   -7   25   55     -1.71      0.00
   -8   26   56      3.44      0.00
   -9   27   57      6.05      0.00
  -10   28   58      9.49      0.00
  -11   29   59     10.55      0.00
    0   19   50    -28.14      0.00
   -1   20   51     15.70      0.00
   -2   21   52     -7.09      0.00
   -3   22   53     -3.12      0.00
   -4   23   54     -6.10      0.00
   -5   24   55     -9.92      0.00
   -6   25   56    -13.83      0.00
   -7   26   57      1.01      0.00
   -8   27   58      7.64      0.00
   -9   28   59     -6.16      0.00
    0   20   52      2.77      0.00
   -1   21   53     -7.14      0.00
   -2   22   54     -9.05      0.00
   -3   23   55     12.31      0.00
   -4   24   56     -2.22      0.00
   -5   25   57     13.31      0.00
   -6   26   58    -10.38      0.00
   -7   27   59    -12.02      0.00
   -8   28   60    -24.92      0.00
    0   21   54     -6.56      0.00
   -1   22   55     10.32      0.00
   -2   23   56     19.85      0.00
   -3   24   57     17.62      0.00
   -4   25   58      0.22      0.00
   -5   26   59      2.45      0.00
   -6   27   60    -15.34      0.00
    0   22   56    -18.64      0.00
   -1   23   57      3.32      0.00
   -2   24   58    -21.37      0.00
   -3   25   59    -23.39      0.00
   -4   26   60    -25.07      0.00
    0   23   58    -22.68      0.00
   -1   24   59     14.98      0.00
   -2   25   60      2.97      0.00
   -3   26   61     -6.59      0.00
    0   24   60    -16.74      0.00
   -1   25   61     17.13      0.00
  -23   31   51     -0.84      0.00
  -16   35   39    -10.17      0.00
  -17   35   38      3.31      0.00
  -18   35   37     -0.48      0.00
  -19   35   36    -10.94      0.00
  -20   35   35     11.94      0.00
  -21   35   34      9.31      0.00
  -22   35   33     11.84      0.00
  -23   35   32      1.89      0.00
  -24   35   31      4.35      0.00
  -25   35   30     -0.53      0.00
  -12   34   41    -10.78      0.00
  -13   34   40     -9.45      0.00
  -14   34   39    -17.69      0.00
  -15   34   38     25.76      0.00
  -16   34   37     12.10      0.00
  -17   34   36     -5.76      0.00
  -18   34   35    -14.62      0.00
  -19   34   34     13.19      0.00
  -20   34   33     12.57      0.00
  -21   34   32     12.66      0.00
  -22   34   31     10.52      0.00
  -23   34   30     -5.33      0.00
  -24   34   29      0.62      0.00
   -9   33   42     -7.02      0.00
  -10   33   41     10.05      0.00
  -11   33   40     13.13      0.00
  -12   33   39    -20.34      0.00
  -13   33   38    -13.45      0.00
  -14   33   37      8.04      0.00
  -15   33   36     15.31      0.00
  -16   33   35     -6.53      0.00
  -17   33   34    -20.56      0.00
  -18   33   33      1.06      0.00
  -19   33   32      8.00      0.00
  -20   33   31     -0.68      0.00
  -21   33   30      4.58      0.00
  -22   33   29     -2.26      0.00
  -23   33   28     -5.01      0.00
  -33   33   18     -1.35      0.00
   -6   32   43    -12.30      0.00
   -7   32   42     -4.74      0.00
   -8   32   41    -11.46      0.00
   -9   32   40      9.04      0.00
  -10   32   39     28.08      0.00
  -11   32   38     28.37      0.00
  -12   32   37    -23.37      0.00
  -13   32   36     29.65      0.00
  -14   32   35     29.85      0.00
  -15   32   34     26.38      0.00
  -16   32   33      5.58      0.00
  -17   32   32      7.30      0.00
  -18   32   31      1.93      0.00
  -19   32   30    -16.63      0.00
  -20   32   29      2.88      0.00
  -21   32   28      5.76      0.00
  -22   32   27     12.37      0.00
  -32   32   17     11.38      0.00
  -32   33   16    -11.64      0.00
  -32   34   15    -24.65      0.00
   -4   31   43    -11.98      0.00
   -5   31   42    -11.70      0.00
   -6   31   41     -3.77      0.00
   -7   31   40     -6.14      0.00
   -8   31   39     12.28      0.00
   -9   31   38     -6.51      0.00
  -10   31   37     -7.10      0.00
  -11   31   36    -16.01      0.00
  -12   31   35     -3.55      0.00
  -13   31   34      7.52      0.00
  -14   31   33    -13.28      0.00
  -15   31   32     -6.04      0.00
  -16   31   31      4.25      0.00
  -17   31   30      2.85      0.00
  -18   31   29    -11.39      0.00
  -19   31   28      7.59      0.00
  -20   31   27      1.90      0.00
  -21   31   26      6.31      0.00
  -31   31   16     -4.87      0.00
  -31   32   15     -3.75      0.00
  -31   33   14      0.81      0.00
  -31   34   13     -9.21      0.00
  -31   35   12     -3.76      0.00
   -1   30   44      7.84      0.00
   -2   30   43    -21.09      0.00
   -3   30   42     -2.42      0.00
   -4   30   41     -5.12      0.00
   -5   30   40      6.45      0.00
   -6   30   39     12.77      0.00
   -7   30   38     -9.76      0.00
   -8   30   37     10.13      0.00
   -9   30   36     -2.77      0.00
  -10   30   35    -13.48      0.00
  -11   30   34     28.62      0.00
  -12   30   33     -4.56      0.00
  -13   30   32     -6.13      0.00
  -14   30   31     -4.73      0.00
  -15   30   30     17.40      0.00
  -16   30   29     -0.14      0.00
  -17   30   28    -12.55      0.00
  -18   30   27     -0.86      0.00
  -19   30   26     -5.90      0.00
  -20   30   25     -0.26      0.00
  -30   30   15     -3.47      0.00
  -30   31   14      6.84      0.00
  -30   32   13     31.71      0.00
  -30   33   12      8.60      0.00
  -30   34   11    -14.48      0.00
  -30   35   10     -0.24      0.00
  -30   36    9     11.30      0.00
    0   29   43    -20.00      0.00
   -1   29   42    -18.48      0.00
   -2   29   41      9.39      0.00
   -3   29   40     17.27      0.00
   -4   29   39    -21.13      0.00
   -5   29   38     -8.20      0.00
   -6   29   37    -10.49      0.00
   -7   29   36    -14.50      0.00
   -8   29   35      8.80      0.00
   -9   29   34     -6.76      0.00
  -10   29   33     14.46      0.00
  -11   29   32      9.62      0.00
  -12   29   31     -1.82      0.00
  -13   29   30      5.14      0.00
  -14   29   29     -0.77      0.00
  -15   29   28     -0.47      0.00
  -16   29   27     -4.74      0.00
  -17   29   26     -1.03      0.00
  -18   29   25     -7.15      0.00
  -19   29   24    -11.87      0.00
  -29   29   14     -1.82      0.00
  -29   30   13      2.06      0.00
  -29   31   12     -9.38      0.00
  -29   32   11    -14.06      0.00
  -29   33   10      4.04      0.00
  -29   34    9     -5.94      0.00
  -29   35    8      7.09      0.00
  -29   36    7      4.37      0.00
  -29   37    6     -7.90      0.00
    0   28   41    -18.94      0.00
   -1   28   40     -8.66      0.00
   -2   28   39    -14.60      0.00
   -3   28   38    -20.02      0.00
   -4   28   37      6.29      0.00
   -5   28   36      6.39      0.00
   -6   28   35      6.23      0.00
   -7   28   34     -2.48      0.00
   -8   28   33     18.67      0.00
   -9   28   32     15.28      0.00
  -10   28   31     -4.42      0.00
  -11   28   30     21.65      0.00
  -12   28   29      4.32      0.00
  -13   28   28     -4.50      0.00
  -14   28   27     -5.25      0.00
  -15   28   26      2.32      0.00
  -16   28   25     -5.84      0.00
  -17   28   24      0.31      0.00
  -18   28   23     -7.25      0.00
  -28   28   13      5.96      0.00
  -28   29   12     -4.08      0.00
  -28   30   11    -11.89      0.00
  -28   31   10      4.58      0.00
  -28   32    9      1.55      0.00
  -28   33    8     20.04      0.00
  -28   34    7     16.06      0.00
  -28   35    6    -14.89      0.00
  -28   36    5     -0.89      0.00
  -28   37    4     -3.97      0.00
    0   27   39    -14.26      0.00
   -1   27   38     -9.54      0.00
   -2   27   37     -4.61      0.00
   -3   27   36     34.57      0.00
   -4   27   35     24.60      0.00
   -5   27   34      1.82      0.00
   -6   27   33     -3.34      0.00
   -7   27   32     -0.16      0.00
   -8   27   31      8.17      0.00
   -9   27   30      0.99      0.00
  -10   27   29    -14.15      0.00
  -11   27   28      6.58      0.00
  -12   27   27    -13.68      0.00
  -13   27   26    -13.12      0.00
  -14   27   25      6.86      0.00
  -15   27   24      1.76      0.00
  -16   27   23      0.77      0.00
  -17   27   22     -1.61      0.00
  -27   27   12    -35.69      0.00
  -27   28   11    -19.47      0.00
  -27   29   10     -2.64      0.00
  -27   30    9      2.78      0.00
  -27   31    8     -3.14      0.00
  -27   32    7      4.29      0.00
  -27   33    6     -9.49      0.00
  -27   34    5     -3.35      0.00
  -27   35    4     -4.25      0.00
  -27   36    3      4.33      0.00
  -27   37    2      8.18      0.00
  -27   38    1    -18.61      0.00
    0   26   37     50.85      0.00
   -1   26   36     13.58      0.00
   -2   26   35      5.43      0.00
   -3   26   34     11.44      0.00
   -4   26   33      7.57      0.00
   -5   26   32     -8.23      0.00
   -6   26   31    -17.73      0.00
   -7   26   30    -11.79      0.00
   -8   26   29    -14.68      0.00
   -9   26   28     13.43      0.00
  -10   26   27     -3.51      0.00
  -11   26   26      5.19      0.00
  -12   26   25    -11.01      0.00
  -13   26   24     -9.82      0.00
  -14   26   23      2.94      0.00
  -15   26   22      2.59      0.00
  -16   26   21      4.23      0.00
  -26   26   11      0.10      0.00
  -26   27   10    -11.43      0.00
  -26   28    9     12.41      0.00
  -26   29    8     -4.17      0.00
  -26   30    7     -1.95      0.00
  -26   31    6    -12.85      0.00
  -26   32    5      0.58      0.00
  -26   33    4     -2.79      0.00
  -26   34    3      0.16      0.00
  -26   35    2     -6.23      0.00
  -26   36    1     -2.06      0.00
  -11   37    0      2.63      0.00
  -12   38    1     -9.20      0.00
    0   25   35      0.37      0.00
   -1   25   34    -14.49      0.00
   -2   25   33      4.95      0.00
   -3   25   32      5.24      0.00
   -4   25   31     -0.28      0.00
   -5   25   30      0.47      0.00
   -6   25   29     -0.08      0.00
   -7   25   28     -6.30      0.00
   -8   25   27     11.92      0.00
   -9   25   26      6.85      0.00
  -10   25   25     -6.32      0.00
  -11   25   24     -2.99      0.00
  -12   25   23     -0.84      0.00
  -13   25   22      4.26      0.00
  -14   25   21      7.64      0.00
  -15   25   20      9.49      0.00
  -25   25   10      8.74      0.00
  -25   26    9     -2.64      0.00
  -25   27    8      6.15      0.00
  -25   28    7     14.75      0.00
  -25   29    6      6.55      0.00
  -25   30    5      8.79      0.00
  -25   31    4      1.67      0.00
  -25   32    3      3.25      0.00
  -25   33    2    -10.06      0.00
  -25   34    1    -10.73      0.00
  -10   35    0     -5.94      0.00
  -11   36    1     -5.60      0.00
  -12   37    2      1.57      0.00
  -13   38    3    -17.88      0.00
    0   24   33     18.75      0.00
   -1   24   32      6.58      0.00
   -2   24   31      4.37      0.00
   -3   24   30     14.35      0.00
   -4   24   29      7.84      0.00
   -5   24   28     -2.34      0.00
   -6   24   27      2.44      0.00
   -7   24   26      2.75      0.00
   -8   24   25     -0.97      0.00
   -9   24   24     -6.88      0.00
  -10   24   23     -2.62      0.00
  -11   24   22     -2.36      0.00
  -12   24   21     -0.06      0.00
  -13   24   20    -10.61      0.00
  -14   24   19      4.45      0.00
  -24   24    9      5.87      0.00
  -24   25    8     -1.14      0.00
  -24   26    7      8.22      0.00
  -24   27    6     -5.34      0.00
  -24   28    5     17.12      0.00
  -24   29    4      7.16      0.00
  -24   30    3     -2.22      0.00
  -24   31    2     -8.24      0.00
  -24   32    1      7.76      0.00
   -9   33    0     -4.69      0.00
  -10   34    1     11.68      0.00
  -11   35    2     -4.94      0.00
  -12   36    3      2.13      0.00
  -13   37    4     -8.57      0.00
  -14   38    5    -14.15      0.00
    0   23   31     21.25      0.00
   -1   23   30     -4.11      0.00
   -2   23   29     -1.21      0.00
   -3   23   28     -0.21      0.00
   -4   23   27     14.54      0.00
   -5   23   26     19.20      0.00
   -6   23   25      5.80      0.00
   -7   23   24     -4.89      0.00
   -8   23   23    -12.32      0.00
   -9   23   22      7.45      0.00
  -10   23   21      3.98      0.00
  -11   23   20      6.64      0.00
  -12   23   19      4.23      0.00
  -13   23   18      3.86      0.00
  -23   23    8     -5.41      0.00
  -23   24    7    -10.71      0.00
  -23   25    6     12.03      0.00
  -23   26    5     -6.77      0.00
  -23   27    4     -4.47      0.00
  -23   28    3     -5.68      0.00
  -23   29    2     -5.39      0.00
  -23   30    1      3.07      0.00
   -8   31    0      6.98      0.00
   -9   32    1      0.01      0.00
  -10   33    2     10.14      0.00
  -11   34    3     -9.57      0.00
  -12   35    4     -5.63      0.00
  -13   36    5    -16.49      0.00
  -14   37    6    -16.87      0.00
  -15   38    7     17.76      0.00
    0   22   29      6.18      0.00
   -1   22   28    -18.80      0.00
   -2   22   27    -11.55      0.00
   -3   22   26    -11.82      0.00
   -4   22   25     -1.32      0.00
   -5   22   24     -3.05      0.00
   -6   22   23      0.93      0.00
   -7   22   22     -2.24      0.00
   -8   22   21     11.75      0.00
   -9   22   20     -3.44      0.00
  -10   22   19    -10.76      0.00
  -11   22   18     -8.81      0.00
  -12   22   17     -1.32      0.00
  -22   22    7     -2.08      0.00
  -22   23    6      4.31      0.00
  -22   24    5     -1.55      0.00
  -22   25    4      1.66      0.00
  -22   26    3     -8.23      0.00
  -22   27    2    -10.13      0.00
  -22   28    1    -14.48      0.00
   -7   29    0     -0.59      0.00
   -8   30    1     -2.29      0.00
   -9   31    2     19.38      0.00
  -10   32    3      1.92      0.00
  -11   33    4     -6.45      0.00
  -12   34    5     -0.77      0.00
  -13   35    6      7.05      0.00
  -14   36    7      1.05      0.00
  -15   37    8     18.10      0.00
  -16   38    9     11.69      0.00
    0   21   27     -7.28      0.00
   -1   21   26     -2.44      0.00
   -2   21   25     16.00      0.00
   -3   21   24    -10.39      0.00
   -4   21   23    -19.71      0.00
   -5   21   22      5.92      0.00
   -6   21   21      3.03      0.00
   -7   21   20      1.33      0.00
   -8   21   19     -5.74      0.00
   -9   21   18      3.59      0.00
  -10   21   17      9.38      0.00
  -11   21   16      4.50      0.00
  -21   21    6    -11.58      0.00
  -21   22    5      3.73      0.00
  -21   23    4      2.61      0.00
  -21   24    3     13.96      0.00
  -21   25    2      0.58      0.00
  -21   26    1      4.46      0.00
   -6   27    0      8.65      0.00
   -7   28    1      0.03      0.00
   -8   29    2     -4.06      0.00
   -9   30    3     -6.86      0.00
  -10   31    4      8.80      0.00
  -11   32    5      4.34      0.00
  -12   33    6    -12.57      0.00
  -13   34    7     -9.70      0.00
  -14   35    8     -0.44      0.00
  -15   36    9    -17.19      0.00
  -16   37   10     -2.73      0.00
  -17   38   11     -5.45      0.00
    0   20   25      6.71      0.00
   -1   20   24      8.77      0.00
   -2   20   23    -12.08      0.00
   -3   20   22     -8.12      0.00
   -4   20   21     16.52      0.00
   -5   20   20     19.96      0.00
   -6   20   19     -5.68      0.00
   -7   20   18     -3.51      0.00
   -8   20   17     -0.49      0.00
   -9   20   16      3.65      0.00
  -10   20   15     -1.15      0.00
  -20   20    5      9.27      0.00
  -20   21    4      0.03      0.00
  -20   22    3      1.47      0.00
  -20   23    2     -4.70      0.00
  -20   24    1      8.49      0.00
   -5   25    0      4.21      0.00
   -6   26    1     -4.39      0.00
   -7   27    2      9.33      0.00
   -8   28    3     13.19      0.00
   -9   29    4     -9.84      0.00
  -10   30    5     -5.16      0.00
  -11   31    6    -15.65      0.00
  -12   32    7    -19.42      0.00
  -13   33    8     10.49      0.00
  -14   34    9     -5.55      0.00
  -15   35   10     11.62      0.00
  -16   36   11      3.35      0.00
  -17   37   12     -2.87      0.00
  -18   38   13     -0.22      0.00
    0   19   23     10.38      0.00
   -1   19   22     -9.42      0.00
   -2   19   21      7.50      0.00
   -3   19   20     -2.69      0.00
   -4   19   19     -7.74      0.00
   -5   19   18     -3.78      0.00
   -6   19   17      1.90      0.00
   -7   19   16     -1.88      0.00
   -8   19   15      9.42      0.00
   -9   19   14      2.81      0.00
  -19   19    4    -16.87      0.00
  -19   20    3     -1.34      0.00
  -19   21    2    -15.35      0.00
  -19   22    1      1.08      0.00
   -4   23    0      0.05      0.00
   -5   24    1      6.34      0.00
   -6   25    2     -8.79      0.00
   -7   26    3    -10.71      0.00
   -8   27    4      5.67      0.00
   -9   28    5      6.86      0.00
  -10   29    6      4.02      0.00
  -11   30    7     -8.54      0.00
  -12   31    8    -14.38      0.00
  -13   32    9     -5.09      0.00
  -14   33   10     -9.81      0.00
  -15   34   11      9.23      0.00
  -16   35   12     24.35      0.00
  -17   36   13     19.15      0.00
  -18   37   14      0.18      0.00
  -19   38   15     -8.55      0.00
    0   18   21      6.43      0.00
   -1   18   20      3.47      0.00
   -2   18   19     -4.15      0.00
   -3   18   18     -4.06      0.00
   -4   18   17     -6.10      0.00
   -5   18   16     -1.65      0.00
   -6   18   15     -7.92      0.00
   -7   18   14      7.12      0.00
   -8   18   13      6.33      0.00
  -18   18    3      4.66      0.00
  -18   19    2    -12.06      0.00
  -18   20    1      2.65      0.00
   -3   21    0     -7.00      0.00
   -4   22    1      1.15      0.00
   -5   23    2      0.27      0.00
   -6   24    3      4.34      0.00
   -7   25    4      5.93      0.00
   -8   26    5     12.04      0.00
   -9   27    6     -0.70      0.00
  -10   28    7     -2.85      0.00
  -11   29    8     11.45      0.00
  -12   30    9      0.56      0.00
  -13   31   10     14.31      0.00
  -14   32   11      5.12      0.00
  -15   33   12     16.02      0.00
  -16   34   13      4.37      0.00
  -17   35   14     -6.05      0.00
  -18   36   15    -24.54      0.00
  -19   37   16    -14.16      0.00
  -20   38   17      9.43      0.00
    0   17   19     -5.92      0.00
   -1   17   18     -5.37      0.00
   -2   17   17     -0.28      0.00
   -3   17   16     -9.79      0.00
   -4   17   15      8.52      0.00
   -5   17   14      3.05      0.00
   -6   17   13      1.15      0.00
   -7   17   12    -18.09      0.00
  -17   17    2     -5.31      0.00
  -17   18    1      8.50      0.00
   -2   19    0     -2.71      0.00
   -3   20    1     -9.08      0.00
   -4   21    2    -13.91      0.00
   -5   22    3      8.68      0.00
   -6   23    4     -9.17      0.00
   -7   24    5     -1.15      0.00
   -8   25    6     16.88      0.00
   -9   26    7     -8.69      0.00
  -10   27    8     -0.61      0.00
  -11   28    9      7.20      0.00
  -12   29   10     -4.49      0.00
  -13   30   11     -0.49      0.00
  -14   31   12      8.85      0.00
  -15   32   13    -10.47      0.00
  -16   33   14    -15.40      0.00
  -17   34   15     -9.00      0.00
  -18   35   16    -30.57      0.00
  -19   36   17      0.19      0.00
  -20   37   18     14.03      0.00
  -21   38   19      4.93      0.00
    0   16   17      1.01      0.00
   -1   16   16     -3.24      0.00
   -2   16   15     -2.98      0.00
   -3   16   14     -2.14      0.00
   -4   16   13      9.78      0.00
   -5   16   12    -11.32      0.00
   -6   16   11      1.05      0.00
  -16   16    1     -8.26      0.00
   -1   17    0     -1.95      0.00
   -2   18    1     11.64      0.00
   -3   19    2      8.14      0.00
   -4   20    3     -4.49      0.00
   -5   21    4     -6.41      0.00
   -6   22    5      8.10      0.00
   -7   23    6      2.86      0.00
   -8   24    7     -7.31      0.00
   -9   25    8     -9.16      0.00
  -10   26    9      5.09      0.00
  -11   27   10      1.61      0.00
  -12   28   11     -5.62      0.00
  -13   29   12      7.76      0.00
  -14   30   13     -4.27      0.00
  -15   31   14     -4.62      0.00
  -16   32   15    -10.11      0.00
  -17   33   16    -10.60      0.00
  -18   34   17      4.65      0.00
  -19   35   18      3.03      0.00
  -20   36   19     15.70      0.00
  -21   37   20      9.90      0.00
    0   15   15    -22.28      0.00
   -1   15   14     -5.69      0.00
   -2   15   13     -1.53      0.00
   -3   15   12      4.48      0.00
   -4   15   11     -0.18      0.00
   -5   15   10     16.81      0.00
    0   15    0     13.61      0.00
   -1   16    1     -4.59      0.00
   -2   17    2     -6.28      0.00
   -3   18    3      5.56      0.00
   -4   19    4      6.72      0.00
   -5   20    5     -4.48      0.00
   -6   21    6     -1.78      0.00
   -7   22    7      4.87      0.00
   -8   23    8    -10.79      0.00
   -9   24    9     -9.09      0.00
  -10   25   10      6.40      0.00
  -11   26   11      0.16      0.00
  -12   27   12     -0.31      0.00
  -13   28   13      2.48      0.00
  -14   29   14    -13.03      0.00
  -15   30   15      1.20      0.00
  -16   31   16      2.62      0.00
  -17   32   17     13.12      0.00
  -18   33   18      6.04      0.00
  -19   34   19     -1.94      0.00
  -20   35   20     -4.49      0.00
  -21   36   21     -0.03      0.00
  -22   37   22     16.06      0.00
    0   14   13      2.07      0.00
   -1   14   12     -7.82      0.00
   -2   14   11    -14.68      0.00
   -3   14   10    -16.21      0.00
   -4   14    9     18.42      0.00
    0   14    1      1.70      0.00
   -1   15    2      8.00      0.00
   -2   16    3     -7.13      0.00
   -3   17    4     -6.32      0.00
   -4   18    5      8.72      0.00
   -5   19    6     -7.68      0.00
   -6   20    7      3.76      0.00
   -7   21    8     -3.27      0.00
   -8   22    9      1.20      0.00
   -9   23   10    -11.56      0.00
  -10   24   11     -6.59      0.00
  -11   25   12     -0.05      0.00
  -12   26   13    -10.78      0.00
  -13   27   14      5.02      0.00
  -14   28   15     -3.80      0.00
  -15   29   16      1.55      0.00
  -16   30   17      3.12      0.00
  -17   31   18      6.21      0.00
  -18   32   19     -0.97      0.00
  -19   33   20    -12.66      0.00
  -20   34   21     -3.72      0.00
  -21   35   22     -8.65      0.00
  -22   36   23     15.08      0.00
  -23   37   24     -3.19      0.00
    0   13   11    -12.19      0.00
   -1   13   10    -10.72      0.00
   -2   13    9      8.16      0.00
   -3   13    8     10.66      0.00
    0   13    2     23.29      0.00
   -1   14    3     -5.72      0.00
   -2   15    4    -19.69      0.00
   -3   16    5      1.42      0.00
   -4   17    6    -11.45      0.00
   -5   18    7      7.17      0.00
   -6   19    8     -8.97      0.00
   -7   20    9      1.38      0.00
   -8   21   10     -4.71      0.00
   -9   22   11      2.35      0.00
  -10   23   12     -5.69      0.00
  -11   24   13     -6.17      0.00
  -12   25   14     -6.80      0.00
  -13   26   15     -1.73      0.00
  -14   27   16      0.31      0.00
  -15   28   17     12.95      0.00
  -16   29   18     26.81      0.00
  -17   30   19      9.77      0.00
  -18   31   20      1.55      0.00
  -19   32   21     -4.75      0.00
  -20   33   22    -20.97      0.00
  -21   34   23     -9.28      0.00
  -22   35   24    -16.59      0.00
  -23   36   25      0.71      0.00
    0   12    9    -19.02      0.00
   -1   12    8     19.10      0.00
   -2   12    7    -10.33      0.00
    0   12    3    -21.59      0.00
   -1   13    4     13.44      0.00
   -2   14    5      4.73      0.00
   -3   15    6     -0.88      0.00
   -4   16    7     -6.70      0.00
   -5   17    8    -15.85      0.00
   -6   18    9     13.94      0.00
   -7   19   10      6.98      0.00
   -8   20   11     -5.50      0.00
   -9   21   12    -11.13      0.00
  -10   22   13      1.29      0.00
  -11   23   14     -6.58      0.00
  -12   24   15     -0.68      0.00
  -13   25   16      0.51      0.00
  -14   26   17     -4.35      0.00
  -15   27   18     -3.12      0.00
  -16   28   19     11.61      0.00
  -17   29   20     10.35      0.00
  -18   30   21    -16.48      0.00
  -19   31   22      0.20      0.00
  -20   32   23     -1.21      0.00
  -21   33   24    -10.45      0.00
  -22   34   25      6.71      0.00
  -23   35   26     -6.67      0.00
  -24   36   27     14.21      0.00
    0   11    7     15.68      0.00
   -1   11    6    -32.81      0.00
    0   11    4    -28.06      0.00
   -1   12    5      8.16      0.00
   -2   13    6      2.27      0.00
   -3   14    7     14.78      0.00
   -4   15    8     -0.47      0.00
   -5   16    9      5.19      0.00
   -6   17   10     -2.79      0.00
   -7   18   11      1.80      0.00
   -8   19   12     -1.11      0.00
   -9   20   13      2.60      0.00
  -10   21   14     21.25      0.00
  -11   22   15     -0.48      0.00
  -12   23   16      3.25      0.00
  -13   24   17     -2.24      0.00
  -14   25   18     -1.77      0.00
  -15   26   19      1.15      0.00
  -16   27   20     -4.82      0.00
  -17   28   21     -7.40      0.00
  -18   29   22      5.85      0.00
  -19   30   23     -0.53      0.00
  -20   31   24      0.34      0.00
  -21   32   25     11.58      0.00
  -22   33   26     -8.89      0.00
  -23   34   27     22.55      0.00
  -24   35   28     17.16      0.00
  -25   36   29     19.55      0.00
    0   10    5    -38.98      0.00
    0    0   15    124.83      0.00
   -1    1   16   -152.24      0.00
   -2    2   17    -54.19      0.00
   -3    3   18     20.48      0.00
   -4    4   19    -35.80      0.00
   -5    5   20     30.19      0.00
   -6    6   21    -32.87      0.00
   -7    7   22    -44.92      0.00
   -8    8   23    -21.36      0.00
   -9    9   24     31.74      0.00
  -10   10   25      4.63      0.00
  -11   11   26    -24.22      0.00
  -12   12   27      5.12      0.00
  -13   13   28      9.77      0.00
  -14   14   29     12.17      0.00
  -15   15   30     -2.79      0.00
  -16   16   31      5.26      0.00
  -17   17   32     -7.42      0.00
  -18   18   33      8.70      0.00
  -19   19   34     -2.16      0.00
  -20   20   35      2.98      0.00
  -21   21   36    -15.90      0.00
  -22   22   37      2.75      0.00
  -23   23   38     -5.01      0.00
  -24   24   39     15.94      0.00
  -25   25   40     15.51      0.00
  -26   26   41     -4.73      0.00
  -27   27   42    -13.40      0.00
  -28   28   43     14.42      0.00
  -29   29   44     29.29      0.00
    0    1   17     27.94      0.00
   -1    2   18      8.91      0.00
   -2    3   19    -13.31      0.00
   -3    4   20     67.65      0.00
   -4    5   21     27.65      0.00
   -5    6   22    -31.58      0.00
   -6    7   23     -3.01      0.00
   -7    8   24     -2.86      0.00
   -8    9   25      2.91      0.00
   -9   10   26     27.38      0.00
  -10   11   27    -13.80      0.00
  -11   12   28    -25.12      0.00
  -12   13   29      2.39      0.00
  -13   14   30     -0.06      0.00
  -14   15   31      5.30      0.00
  -15   16   32      2.35      0.00
  -16   17   33      1.12      0.00
  -17   18   34     -7.87      0.00
  -18   19   35     -1.98      0.00
  -19   20   36     -0.69      0.00
  -20   21   37     -1.80      0.00
  -21   22   38      2.85      0.00
  -22   23   39      1.62      0.00
  -23   24   40      2.72      0.00
  -24   25   41     11.23      0.00
  -25   26   42      0.00      0.00
  -26   27   43     10.26      0.00
  -27   28   44      0.11      0.00
  -28   29   45      8.20      0.00
    0    2   19     33.95      0.00
   -1    3   20    -36.60      0.00
   -2    4   21    -15.77      0.00
   -3    5   22     27.17      0.00
   -4    6   23     38.32      0.00
   -5    7   24     10.08      0.00
   -6    8   25      8.57      0.00
   -7    9   26    -27.47      0.00
   -8   10   27      2.98      0.00
   -9   11   28    -16.19      0.00
  -10   12   29     13.87      0.00
  -11   13   30    -18.93      0.00
  -12   14   31      3.35      0.00
  -13   15   32      3.00      0.00
  -14   16   33      4.06      0.00
  -15   17   34    -10.02      0.00
  -16   18   35      1.99      0.00
  -17   19   36      4.93      0.00
  -18   20   37      5.27      0.00
  -19   21   38    -10.90      0.00
  -20   22   39      4.62      0.00
  -21   23   40      1.35      0.00
  -22   24   41     12.82      0.00
  -23   25   42     -4.27      0.00
  -24   26   43      0.19      0.00
  -25   27   44      6.73      0.00
  -26   28   45    -20.16      0.00
  -27   29   46     -7.50      0.00
    0    3   21    -30.92      0.00
   -1    4   22    -12.09      0.00
   -2    5   23     26.37      0.00
   -3    6   24    -16.73      0.00
   -4    7   25     17.17      0.00
   -5    8   26    -32.71      0.00
   -6    9   27     -4.86      0.00
   -7   10   28     -8.46      0.00
   -8   11   29     14.04      0.00
   -9   12   30     -2.92      0.00
  -10   13   31     10.67      0.00
  -11   14   32    -13.90      0.00
  -12   15   33     -2.97      0.00
  -13   16   34      5.29      0.00
  -14   17   35     -6.21      0.00
  -15   18   36     -6.25      0.00
  -16   19   37     -1.16      0.00
  -17   20   38     -2.90      0.00
  -18   21   39     12.85      0.00
  -19   22   40      5.96      0.00
  -20   23   41     -6.89      0.00
  -21   24   42      5.62      0.00
  -22   25   43      2.90      0.00
  -23   26   44     -3.87      0.00
  -24   27   45      4.76      0.00
  -25   28   46     -8.55      0.00
  -26   29   47     -3.77      0.00
  -27   30   48     -2.44      0.00
    0    4   23     30.71      0.00
   -1    5   24     31.75      0.00
   -2    6   25     22.82      0.00
   -3    7   26    -14.79      0.00
   -4    8   27     30.60      0.00
   -5    9   28    -10.78      0.00
   -6   10   29      2.99      0.00
   -7   11   30    -15.23      0.00
   -8   12   31     19.00      0.00
   -9   13   32     -7.58      0.00
  -10   14   33      5.13      0.00
  -11   15   34      2.43      0.00
  -12   16   35      1.97      0.00
  -13   17   36      3.57      0.00
  -14   18   37     -2.40      0.00
  -15   19   38      4.50      0.00
  -16   20   39      7.04      0.00
  -17   21   40      7.39      0.00
  -18   22   41     25.15      0.00
  -19   23   42    -10.48      0.00
  -20   24   43     -2.00      0.00
  -21   25   44     -4.26      0.00
  -22   26   45     22.93      0.00
  -23   27   46      7.11      0.00
  -24   28   47    -22.53      0.00
  -25   29   48      0.55      0.00
  -26   30   49     17.98      0.00
    0    5   25     34.08      0.00
   -1    6   26    -38.15      0.00
   -2    7   27     -6.00      0.00
   -3    8   28      5.29      0.00
   -4    9   29     16.96      0.00
   -5   10   30      1.87      0.00
   -6   11   31      0.91      0.00
   -7   12   32     -5.64      0.00
   -8   13   33     13.96      0.00
   -9   14   34      0.29      0.00
  -10   15   35     -2.24      0.00
  -11   16   36     -5.35      0.00
  -12   17   37     -3.96      0.00
  -13   18   38      1.74      0.00
  -14   19   39     -0.56      0.00
  -15   20   40      4.36      0.00
  -16   21   41     -0.89      0.00
  -17   22   42     -5.12      0.00
  -18   23   43      9.40      0.00
  -19   24   44     -8.92      0.00
  -20   25   45      1.74      0.00
  -21   26   46     11.29      0.00
  -22   27   47     20.42      0.00
  -23   28   48    -10.79      0.00
  -24   29   49     -7.75      0.00
  -25   30   50      4.53      0.00
    0    6   27     -4.21      0.00
   -1    7   28    -10.71      0.00
   -2    8   29     23.13      0.00
   -3    9   30     -2.93      0.00
   -4   10   31     -0.81      0.00
   -5   11   32    -17.11      0.00
   -6   12   33      0.11      0.00
   -7   13   34     -3.40      0.00
   -8   14   35     11.17      0.00
   -9   15   36      6.04      0.00
  -10   16   37     -7.71      0.00
  -11   17   38     -8.93      0.00
  -12   18   39      2.13      0.00
  -13   19   40     -8.66      0.00
  -14   20   41      5.26      0.00
  -15   21   42     -3.29      0.00
  -16   22   43      3.63      0.00
  -17   23   44      1.94      0.00
  -18   24   45     14.51      0.00
  -19   25   46     -4.23      0.00
  -20   26   47     -7.12      0.00
  -21   27   48     11.05      0.00
  -22   28   49     -8.54      0.00
  -23   29   50      4.41      0.00
  -24   30   51    -10.23      0.00
    0    7   29     -3.36      0.00
   -1    8   30    -14.95      0.00
   -2    9   31     -2.12      0.00
   -3   10   32      6.38      0.00
   -4   11   33      3.03      0.00
   -5   12   34      1.36      0.00
   -6   13   35      1.22      0.00
   -7   14   36      0.30      0.00
   -8   15   37      3.76      0.00
   -9   16   38      4.28      0.00
  -10   17   39    -20.80      0.00
  -11   18   40     -0.77      0.00
  -12   19   41     -3.76      0.00
  -13   20   42      2.89      0.00
  -14   21   43    -11.59      0.00
  -15   22   44     -4.94      0.00
  -16   23   45      7.26      0.00
  -17   24   46      7.46      0.00
  -18   25   47      6.29      0.00
  -19   26   48     -7.73      0.00
  -20   27   49      3.69      0.00
  -21   28   50      5.16      0.00
  -22   29   51     -6.92      0.00
  -23   30   52      7.37      0.00
    0    8   31      5.26      0.00
   -1    9   32    -19.41      0.00
   -2   10   33     11.51      0.00
   -3   11   34      5.91      0.00
   -4   12   35      9.55      0.00
   -5   13   36      0.94      0.00
   -6   14   37      7.51      0.00
   -7   15   38      3.81      0.00
   -8   16   39     -2.80      0.00
   -9   17   40     -1.97      0.00
  -10   18   41      2.92      0.00
  -11   19   42     -1.14      0.00
  -12   20   43      0.52      0.00
  -13   21   44    -13.30      0.00
  -14   22   45      1.95      0.00
  -15   23   46     -0.65      0.00
  -16   24   47      4.00      0.00
  -17   25   48     -7.31      0.00
  -18   26   49     -0.06      0.00
  -19   27   50      0.37      0.00
  -20   28   51    -13.68      0.00
  -21   29   52    -13.22      0.00
  -22   30   53      6.02      0.00
    0    9   33      3.00      0.00
   -1   10   34     -6.23      0.00
   -2   11   35     -7.55      0.00
   -3   12   36     -2.00      0.00
   -4   13   37      4.22      0.00
   -5   14   38     -1.58      0.00
   -6   15   39     -1.30      0.00
   -7   16   40      0.15      0.00
   -8   17   41     -2.27      0.00
   -9   18   42      5.10      0.00
  -10   19   43     -0.33      0.00
  -11   20   44     -9.32      0.00
  -12   21   45     -1.25      0.00
  -13   22   46      8.28      0.00
  -14   23   47      8.73      0.00
  -15   24   48    -13.45      0.00
  -16   25   49     -5.80      0.00
  -17   26   50      0.95      0.00
  -18   27   51     -5.50      0.00
  -19   28   52     -6.14      0.00
  -20   29   53     -8.04      0.00
  -21   30   54      5.40      0.00
    0   10   35    -13.20      0.00
   -1   11   36      1.54      0.00
   -2   12   37      1.72      0.00
   -3   13   38      3.40      0.00
   -4   14   39      6.15      0.00
   -5   15   40      4.45      0.00
   -6   16   41      2.65      0.00
   -7   17   42      6.32      0.00
   -8   18   43      4.58      0.00
   -9   19   44      0.26      0.00
  -10   20   45     -6.58      0.00
  -11   21   46     -7.37      0.00
  -12   22   47     -3.54      0.00
  -13   23   48     -5.43      0.00
  -14   24   49     -2.09      0.00
  -15   25   50      0.12      0.00
  -16   26   51    -12.01      0.00
  -17   27   52     -3.22      0.00
  -18   28   53     -2.41      0.00
  -19   29   54     10.42      0.00
  -20   30   55      9.82      0.00
    0   11   37      2.36      0.00
   -1   12   38      7.73      0.00
   -2   13   39     -4.22      0.00
   -3   14   40     -3.69      0.00
   -4   15   41     14.58      0.00
   -5   16   42      3.57      0.00
   -6   17   43      3.69      0.00
   -7   18   44     -5.13      0.00
   -8   19   45     -2.97      0.00
   -9   20   46     -0.54      0.00
  -10   21   47      8.28      0.00
  -11   22   48    -19.41      0.00
  -12   23   49     -0.14      0.00
  -13   24   50    -11.98      0.00
  -14   25   51      4.41      0.00
  -15   26   52    -10.93      0.00
  -16   27   53    -12.41      0.00
  -17   28   54     -0.22      0.00
  -18   29   55      7.58      0.00
  -19   30   56     -1.43      0.00
    0   12   39    -23.26      0.00
   -1   13   40     -0.91      0.00
   -2   14   41      4.95      0.00
   -3   15   42     -0.92      0.00
   -4   16   43     -5.52      0.00
   -5   17   44     -1.69      0.00
   -6   18   45     -8.22      0.00
   -7   19   46      1.61      0.00
   -8   20   47      2.01      0.00
   -9   21   48      1.76      0.00
  -10   22   49     -1.80      0.00
  -11   23   50     -2.21      0.00
  -12   24   51      4.85      0.00
  -13   25   52    -14.73      0.00
  -14   26   53      7.80      0.00
  -15   27   54    -26.94      0.00
  -16   28   55      0.28      0.00
  -17   29   56     -1.45      0.00
  -18   30   57    -16.13      0.00
    0   13   41     -8.96      0.00
   -1   14   42     13.14      0.00
   -2   15   43     -1.31      0.00
   -3   16   44     -3.29      0.00
   -4   17   45      9.54      0.00
   -5   18   46      8.60      0.00
   -6   19   47     10.15      0.00
   -7   20   48     -2.60      0.00
   -8   21   49      2.00      0.00
   -9   22   50     -9.30      0.00
  -10   23   51     -5.05      0.00
  -11   24   52    -11.85      0.00
  -12   25   53      2.26      0.00
  -13   26   54      7.77      0.00
  -14   27   55      8.59      0.00
  -15   28   56      1.72      0.00
  -16   29   57     12.10      0.00
    0   14   43    -13.88      0.00
   -1   15   44     -2.48      0.00
   -2   16   45      1.68      0.00
   -3   17   46      2.28      0.00
   -4   18   47     -0.95      0.00
   -5   19   48      3.90      0.00
   -6   20   49    -12.89      0.00
   -7   21   50      8.26      0.00
   -8   22   51     -6.19      0.00
   -9   23   52     -9.15      0.00
  -10   24   53      0.51      0.00
  -11   25   54     -6.04      0.00
  -12   26   55     -4.81      0.00
  -13   27   56     -6.73      0.00
  -14   28   57     14.10      0.00
  -15   29   58    -14.72      0.00
    0   15   45      2.30      0.00
   -1   16   46     -0.14      0.00
   -2   17   47     11.83      0.00
   -3   18   48      7.06      0.00
   -4   19   49      4.85      0.00
   -5   20   50    -14.32      0.00
   -6   21   51     11.08      0.00
   -7   22   52    -10.81      0.00
   -8   23   53     -6.67      0.00
   -9   24   54      2.66      0.00
  -10   25   55      9.72      0.00
  -11   26   56    -11.03      0.00
  -12   27   57     -7.79      0.00
  -13   28   58      3.03      0.00
  -14   29   59     -2.86      0.00
    0   16   47    -14.21      0.00
   -1   17   48     17.02      0.00
   -2   18   49      9.20      0.00
   -3   19   50     17.49      0.00
   -4   20   51      1.22      0.00
   -5   21   52     16.62      0.00
   -6   22   53     -9.86      0.00
   -7   23   54      1.72      0.00
   -8   24   55      2.35      0.00
   -9   25   56     14.88      0.00
  -10   26   57      3.25      0.00
  -11   27   58      4.21      0.00
  -12   28   59     -1.15      0.00
  -13   29   60     -6.45      0.00
    0   17   49      0.86      0.00
   -1   18   50     -5.93      0.00
   -2   19   51     16.06      0.00
   -3   20   52    -10.82      0.00
   -4   21   53      7.87      0.00
   -5   22   54      7.24      0.00
   -6   23   55      0.61      0.00
   -7   24   56     -3.06      0.00
   -8   25   57      6.65      0.00
   -9   26   58      3.18      0.00
  -10   27   59      7.61      0.00
  -11   28   60     15.14      0.00
    0   18   51    -16.61      0.00
   -1   19   52      7.29      0.00
   -2   20   53     -2.93      0.00
   -3   21   54      3.20      0.00
   -4   22   55      6.56      0.00
   -5   23   56      4.31      0.00
   -6   24   57     17.19      0.00
   -7   25   58      6.92      0.00
   -8   26   59     19.19      0.00
   -9   27   60     24.79      0.00
  -10   28   61      9.73      0.00
    0   19   53    -23.46      0.00
   -1   20   54     24.37      0.00
   -2   21   55    -19.89      0.00
   -3   22   56      8.03      0.00
   -4   23   57     -6.61      0.00
   -5   24   58      0.56      0.00
   -6   25   59     -4.58      0.00
   -7   26   60    -15.72      0.00
   -8   27   61     -5.69      0.00
    0   20   55     21.95      0.00
   -1   21   56      8.45      0.00
   -2   22   57      0.00      0.00
   -3   23   58      1.59      0.00
   -4   24   59     -3.40      0.00
   -5   25   60      5.72      0.00
   -6   26   61     14.82      0.00
   -7   27   62     -0.40      0.00
    0   21   57    -26.55      0.00
   -1   22   58     -6.52      0.00
   -2   23   59     -6.66      0.00
   -3   24   60     -1.55      0.00
   -4   25   61    -13.69      0.00
   -5   26   62    -10.83      0.00
    0   22   59     -5.07      0.00
   -1   23   60     -6.73      0.00
   -2   24   61      0.21      0.00
   -3   25   62    -24.55      0.00
    0   23   61     -1.71      0.00
   -1   24   62     -1.10      0.00
   -2   25   63     -4.41      0.00
    0   24   63      2.00      0.00
  -19   36   35     -6.32      0.00
  -20   36   34      2.79      0.00
  -21   36   33      6.79      0.00
  -22   36   32      6.35      0.00
  -23   36   31      1.39      0.00
  -24   36   30     -2.67      0.00
  -14   35   38      5.45      0.00
  -15   35   37    -15.23      0.00
  -16   35   36     -4.03      0.00
  -17   35   35     -0.95      0.00
  -18   35   34    -10.23      0.00
  -19   35   33     13.13      0.00
  -20   35   32     12.18      0.00
  -21   35   31      0.70      0.00
  -22   35   30    -13.53      0.00
  -23   35   29     11.69      0.00
  -10   34   40     -9.43      0.00
  -11   34   39     -4.09      0.00
  -12   34   38     -8.89      0.00
  -13   34   37    -11.97      0.00
  -14   34   36    -12.74      0.00
  -15   34   35    -14.39      0.00
  -16   34   34     11.84      0.00
  -17   34   33      3.36      0.00
  -18   34   32     -4.94      0.00
  -19   34   31      4.67      0.00
  -20   34   30     -1.13      0.00
  -21   34   29     -0.19      0.00
  -22   34   28     -2.77      0.00
   -7   33   41    -30.45      0.00
   -8   33   40      1.71      0.00
   -9   33   39    -15.72      0.00
  -10   33   38     -0.20      0.00
  -11   33   37     17.39      0.00
  -12   33   36     -6.69      0.00
  -13   33   35    -33.04      0.00
  -14   33   34     26.19      0.00
  -15   33   33      0.48      0.00
  -16   33   32     -1.50      0.00
  -17   33   31     -7.26      0.00
  -18   33   30      0.05      0.00
  -19   33   29      7.17      0.00
  -20   33   28     -5.32      0.00
  -21   33   27     -0.91      0.00
  -33   33   15    -12.40      0.00
   -5   32   41     -0.86      0.00
   -6   32   40    -20.11      0.00
   -7   32   39    -18.68      0.00
   -8   32   38    -27.08      0.00
   -9   32   37    -14.91      0.00
  -10   32   36     18.74      0.00
  -11   32   35      4.40      0.00
  -12   32   34     -6.66      0.00
  -13   32   33     23.59      0.00
  -14   32   32     33.40      0.00
  -15   32   31     -3.26      0.00
  -16   32   30     -6.87      0.00
  -17   32   29      3.20      0.00
  -18   32   28     -3.62      0.00
  -19   32   27     11.01      0.00
  -20   32   26      3.81      0.00
  -32   32   14      4.76      0.00
  -32   33   13     -3.11      0.00
  -32   34   12     -2.61      0.00
  -32   35   11     -5.95      0.00
   -3   31   41    -12.09      0.00
   -4   31   40     19.67      0.00
   -5   31   39      4.37      0.00
   -6   31   38    -17.31      0.00
   -7   31   37     -5.59      0.00
   -8   31   36     -6.49      0.00
   -9   31   35     -6.73      0.00
  -10   31   34     -4.62      0.00
  -11   31   33    -18.47      0.00
  -12   31   32      0.15      0.00
  -13   31   31    -15.66      0.00
  -14   31   30      7.75      0.00
  -15   31   29     -9.65      0.00
  -16   31   28     11.26      0.00
  -17   31   27     -4.13      0.00
  -18   31   26      4.90      0.00
  -19   31   25      3.58      0.00
  -31   31   13     20.12      0.00
  -31   32   12      7.61      0.00
  -31   33   11     -8.05      0.00
  -31   34   10     -3.87      0.00
  -31   35    9     -8.03      0.00
   -1   30   41      5.61      0.00
   -2   30   40     19.27      0.00
   -3   30   39     22.08      0.00
   -4   30   38     -2.08      0.00
   -5   30   37    -11.26      0.00
   -6   30   36      4.51      0.00
   -7   30   35     -7.06      0.00
   -8   30   34     -6.51      0.00
   -9   30   33     -1.16      0.00
  -10   30   32     28.02      0.00
  -11   30   31     12.01      0.00
  -12   30   30     -0.02      0.00
  -13   30   29     -0.24      0.00
  -14   30   28     -5.25      0.00
  -15   30   27     -7.35      0.00
  -16   30   26      2.97      0.00
  -17   30   25    -14.34      0.00
  -18   30   24      9.66      0.00
  -30   30   12    -10.66      0.00
  -30   31   11    -14.74      0.00
  -30   32   10     18.50      0.00
  -30   33    9     -8.46      0.00
  -30   34    8     12.00      0.00
  -30   35    7      3.56      0.00
  -30   36    6      1.46      0.00
    0   29   40     28.66      0.00
   -1   29   39     10.24      0.00
   -2   29   38    -15.02      0.00
   -3   29   37     -7.58      0.00
   -4   29   36    -24.81      0.00
   -5   29   35      8.87      0.00
   -6   29   34    -27.76      0.00
   -7   29   33     -7.46      0.00
   -8   29   32    -21.85      0.00
   -9   29   31     -0.66      0.00
  -10   29   30     11.04      0.00
  -11   29   29      6.90      0.00
  -12   29   28      6.21      0.00
  -13   29   27     -0.20      0.00
  -14   29   26      7.75      0.00
  -15   29   25     -5.25      0.00
  -16   29   24     -5.29      0.00
  -17   29   23     -2.97      0.00
  -29   29   11    -11.02      0.00
  -29   30   10     -9.42      0.00
  -29   31    9     -7.70      0.00
  -29   32    8     18.65      0.00
  -29   33    7     -5.64      0.00
  -29   34    6      8.81      0.00
  -29   35    5      4.01      0.00
  -29   36    4      4.44      0.00
  -29   37    3     18.12      0.00
    0   28   38    -19.26      0.00
   -1   28   37    -25.18      0.00
   -2   28   36    -28.43      0.00
   -3   28   35    -22.76      0.00
   -4   28   34      1.23      0.00
   -5   28   33    -15.51      0.00
   -6   28   32    -18.65      0.00
   -7   28   31     -0.61      0.00
   -8   28   30      6.64      0.00
   -9   28   29     -8.76      0.00
  -10   28   28      7.28      0.00
  -11   28   27     -3.41      0.00
  -12   28   26     -9.33      0.00
  -13   28   25     -8.35      0.00
  -14   28   24      0.77      0.00
  -15   28   23      1.44      0.00
  -16   28   22      3.31      0.00
  -28   28   10    -15.20      0.00
  -28   29    9      6.00      0.00
  -28   30    8      7.83      0.00
  -28   31    7     -1.46      0.00
  -28   32    6     23.18      0.00
  -28   33    5      0.75      0.00
  -28   34    4      0.05      0.00
  -28   35    3     19.83      0.00
  -28   36    2     13.91      0.00
  -28   37    1    -11.83      0.00
    0   27   36     -8.74      0.00
   -1   27   35    -22.01      0.00
   -2   27   34    -11.39      0.00
   -3   27   33     13.83      0.00
   -4   27   32      9.08      0.00
   -5   27   31    -14.55      0.00
   -6   27   30     -8.99      0.00
   -7   27   29     -0.76      0.00
   -8   27   28     -2.61      0.00
   -9   27   27    -16.07      0.00
  -10   27   26     -2.53      0.00
  -11   27   25      4.82      0.00
  -12   27   24     -3.65      0.00
  -13   27   23     -8.95      0.00
  -14   27   22      1.77      0.00
  -15   27   21      1.42      0.00
  -27   27    9     -3.68      0.00
  -27   28    8     -9.89      0.00
  -27   29    7     -3.03      0.00
  -27   30    6     14.11      0.00
  -27   31    5    -17.91      0.00
  -27   32    4    -12.10      0.00
  -27   33    3     -8.51      0.00
  -27   34    2      3.40      0.00
  -27   35    1     24.24      0.00
   -9   36    0    -11.66      0.00
    0   26   34     -2.31      0.00
   -1   26   33     38.99      0.00
   -2   26   32      6.62      0.00
   -3   26   31     -7.97      0.00
   -4   26   30    -17.15      0.00
   -5   26   29     -9.93      0.00
   -6   26   28    -16.36      0.00
   -7   26   27     -5.44      0.00
   -8   26   26      0.69      0.00
   -9   26   25      0.34      0.00
  -10   26   24      7.32      0.00
  -11   26   23      0.87      0.00
  -12   26   22     -0.10      0.00
  -13   26   21     -4.61      0.00
  -14   26   20     -2.39      0.00
  -26   26    8     -4.63      0.00
  -26   27    7     18.95      0.00
  -26   28    6     -4.55      0.00
  -26   29    5     18.02      0.00
  -26   30    4    -12.49      0.00
  -26   31    3    -21.91      0.00
  -26   32    2     -1.32      0.00
  -26   33    1     13.54      0.00
   -8   34    0     17.32      0.00
   -9   35    1     10.41      0.00
  -10   36    2     10.16      0.00
    0   25   32     21.55      0.00
   -1   25   31      9.94      0.00
   -2   25   30    -15.86      0.00
   -3   25   29      7.01      0.00
   -4   25   28     -7.31      0.00
   -5   25   27     -0.46      0.00
   -6   25   26      3.94      0.00
   -7   25   25     18.15      0.00
   -8   25   24     26.24      0.00
   -9   25   23     -1.17      0.00
  -10   25   22     -8.76      0.00
  -11   25   21      3.69      0.00
  -12   25   20     -2.08      0.00
  -13   25   19     -6.09      0.00
  -25   25    7    -30.22      0.00
  -25   26    6      2.42      0.00
  -25   27    5      5.75      0.00
  -25   28    4     -3.69      0.00
  -25   29    3     -2.57      0.00
  -25   30    2    -19.09      0.00
  -25   31    1      0.89      0.00
   -7   32    0     17.25      0.00
   -8   33    1      0.21      0.00
   -9   34    2     -9.55      0.00
  -10   35    3      3.07      0.00
    0   24   30    -21.04      0.00
   -1   24   29     -0.57      0.00
   -2   24   28      4.24      0.00
   -3   24   27     18.51      0.00
   -4   24   26      2.68      0.00
   -5   24   25     18.18      0.00
   -6   24   24     12.86      0.00
   -7   24   23      3.19      0.00
   -8   24   22     -4.72      0.00
   -9   24   21    -18.36      0.00
  -10   24   20     -1.69      0.00
  -11   24   19      8.02      0.00
  -12   24   18      3.02      0.00
  -24   24    6      4.29      0.00
  -24   25    5     -4.48      0.00
  -24   26    4      0.02      0.00
  -24   27    3      0.81      0.00
  -24   28    2     -7.49      0.00
  -24   29    1      9.32      0.00
   -6   30    0     11.51      0.00
   -7   31    1     -2.07      0.00
   -8   32    2     14.44      0.00
   -9   33    3     -6.99      0.00
  -10   34    4    -16.47      0.00
  -11   35    5     -4.05      0.00
    0   23   28     -2.84      0.00
   -1   23   27     11.71      0.00
   -2   23   26     -8.05      0.00
   -3   23   25      3.66      0.00
   -4   23   24     -5.05      0.00
   -5   23   23      9.00      0.00
   -6   23   22      1.67      0.00
   -7   23   21     -4.25      0.00
   -8   23   20      8.58      0.00
   -9   23   19     -2.40      0.00
  -10   23   18     -1.06      0.00
  -11   23   17     -0.47      0.00
  -23   23    5    -30.27      0.00
  -23   24    4      6.96      0.00
  -23   25    3      5.21      0.00
  -23   26    2    -12.54      0.00
  -23   27    1      1.80      0.00
   -5   28    0    -16.04      0.00
   -6   29    1      6.59      0.00
   -7   30    2     -9.42      0.00
   -8   31    3      7.65      0.00
   -9   32    4    -12.78      0.00
  -10   33    5     -2.15      0.00
  -11   34    6     -4.85      0.00
  -12   35    7     24.11      0.00
    0   22   26      4.55      0.00
   -1   22   25      5.14      0.00
   -2   22   24     -2.18      0.00
   -3   22   23     -4.76      0.00
   -4   22   22     -6.65      0.00
   -5   22   21      6.28      0.00
   -6   22   20     18.72      0.00
   -7   22   19     -5.18      0.00
   -8   22   18      8.34      0.00
   -9   22   17    -12.60      0.00
  -10   22   16      5.21      0.00
  -22   22    4     11.43      0.00
  -22   23    3      8.90      0.00
  -22   24    2      4.75      0.00
  -22   25    1    -20.26      0.00
   -4   26    0     -1.03      0.00
   -5   27    1      5.23      0.00
   -6   28    2      4.84      0.00
   -7   29    3     -1.39      0.00
   -8   30    4     15.91      0.00
   -9   31    5    -11.00      0.00
  -10   32    6      7.59      0.00
  -11   33    7     -1.15      0.00
  -12   34    8      7.20      0.00
  -13   35    9     -3.23      0.00
    0   21   24      8.99      0.00
   -1   21   23     -0.91      0.00
   -2   21   22      6.72      0.00
   -3   21   21     -8.34      0.00
   -4   21   20      8.82      0.00
   -5   21   19     21.79      0.00
   -6   21   18      3.39      0.00
   -7   21   17    -13.35      0.00
   -8   21   16      2.10      0.00
   -9   21   15      2.24      0.00
  -21   21    3      0.52      0.00
  -21   22    2     -1.40      0.00
  -21   23    1     -7.50      0.00
   -3   24    0     -0.42      0.00
   -4   25    1     -1.23      0.00
   -5   26    2     -0.70      0.00
   -6   27    3     11.22      0.00
   -7   28    4     -4.05      0.00
   -8   29    5     10.62      0.00
   -9   30    6     -9.74      0.00
  -10   31    7     -4.81      0.00
  -11   32    8     -1.59      0.00
  -12   33    9     -6.36      0.00
  -13   34   10    -30.09      0.00
  -14   35   11      0.55      0.00
  -15   36   12     -2.31      0.00
    0   20   22     -6.25      0.00
   -1   20   21     -7.31      0.00
   -2   20   20    -10.60      0.00
   -3   20   19      7.67      0.00
   -4   20   18      4.77      0.00
   -5   20   17     -1.88      0.00
   -6   20   16     -0.78      0.00
   -7   20   15     -1.15      0.00
   -8   20   14     13.68      0.00
  -20   20    2     10.18      0.00
  -20   21    1      4.09      0.00
   -2   22    0    -13.53      0.00
   -3   23    1      2.55      0.00
   -4   24    2     -2.49      0.00
   -5   25    3      2.62      0.00
   -6   26    4    -20.23      0.00
   -7   27    5     12.58      0.00
   -8   28    6      2.84      0.00
   -9   29    7     -0.85      0.00
  -10   30    8    -14.17      0.00
  -11   31    9    -19.01      0.00
  -12   32   10    -12.36      0.00
  -13   33   11    -13.54      0.00
  -14   34   12     17.21      0.00
  -15   35   13     16.32      0.00
  -16   36   14      3.55      0.00
  -17   37   15      3.02      0.00
    0   19   20     14.84      0.00
   -1   19   19      5.04      0.00
   -2   19   18     10.48      0.00
   -3   19   17    -10.08      0.00
   -4   19   16      6.69      0.00
   -5   19   15      5.98      0.00
   -6   19   14     11.63      0.00
   -7   19   13     -1.07      0.00
  -19   19    1    -13.95      0.00
   -1   20    0      8.39      0.00
   -2   21    1     -8.07      0.00
   -3   22    2      2.32      0.00
   -4   23    3     -2.95      0.00
   -5   24    4     11.44      0.00
   -6   25    5      2.78      0.00
   -7   26    6     -2.92      0.00
   -8   27    7      0.52      0.00
   -9   28    8     -9.52      0.00
  -10   29    9      9.28      0.00
  -11   30   10      9.49      0.00
  -12   31   11      9.07      0.00
  -13   32   12     10.88      0.00
  -14   33   13    -21.38      0.00
  -15   34   14     -2.36      0.00
  -16   35   15      9.77      0.00
  -17   36   16     -3.04      0.00
  -18   37   17     -4.63      0.00
  -19   38   18     -9.95      0.00
    0   18   18      6.08      0.00
   -1   18   17      2.25      0.00
   -2   18   16     -2.55      0.00
   -3   18   15     -3.54      0.00
   -4   18   14     -1.99      0.00
   -5   18   13     -0.22      0.00
   -6   18   12      2.63      0.00
    0   18    0     11.12      0.00
   -1   19    1     -9.96      0.00
   -2   20    2      5.73      0.00
   -3   21    3    -10.79      0.00
   -4   22    4     -3.05      0.00
   -5   23    5     -7.18      0.00
   -6   24    6      4.29      0.00
   -7   25    7      5.90      0.00
   -8   26    8     -6.61      0.00
   -9   27    9      6.92      0.00
  -10   28   10    -16.00      0.00
  -11   29   11     19.80      0.00
  -12   30   12     12.01      0.00
  -13   31   13     11.91      0.00
  -14   32   14    -10.24      0.00
  -15   33   15     -8.10      0.00
  -16   34   16      6.11      0.00
  -17   35   17      8.19      0.00
  -18   36   18    -13.78      0.00
  -19   37   19    -21.63      0.00
  -20   38   20      1.35      0.00
    0   17   16      3.25      0.00
   -1   17   15      0.09      0.00
   -2   17   14      1.28      0.00
   -3   17   13      3.14      0.00
   -4   17   12    -10.14      0.00
   -5   17   11      3.82      0.00
    0   17    1     -7.92      0.00
   -1   18    2     -8.61      0.00
   -2   19    3      1.94      0.00
   -3   20    4      2.24      0.00
   -4   21    5     -4.12      0.00
   -5   22    6     -4.69      0.00
   -6   23    7     -5.74      0.00
   -7   24    8     13.21      0.00
   -8   25    9     17.96      0.00
   -9   26   10     15.16      0.00
  -10   27   11     -6.79      0.00
  -11   28   12     -0.07      0.00
  -12   29   13      6.01      0.00
  -13   30   14     -2.37      0.00
  -14   31   15      9.54      0.00
  -15   32   16      8.84      0.00
  -16   33   17      1.01      0.00
  -17   34   18     11.94      0.00
  -18   35   19     -4.78      0.00
  -19   36   20     11.14      0.00
  -20   37   21      1.52      0.00
    0   16   14      4.67      0.00
   -1   16   13     -1.47      0.00
   -2   16   12     -2.51      0.00
   -3   16   11     -6.89      0.00
   -4   16   10     11.11      0.00
    0   16    2     10.67      0.00
   -1   17    3     -4.20      0.00
   -2   18    4      6.64      0.00
   -3   19    5     -8.99      0.00
   -4   20    6     10.36      0.00
   -5   21    7      3.91      0.00
   -6   22    8     -3.28      0.00
   -7   23    9      1.83      0.00
   -8   24   10      2.20      0.00
   -9   25   11      1.16      0.00
  -10   26   12     -0.07      0.00
  -11   27   13     -4.81      0.00
  -12   28   14     -4.65      0.00
  -13   29   15     -2.24      0.00
  -14   30   16      7.29      0.00
  -15   31   17     -9.24      0.00
  -16   32   18     -6.64      0.00
  -17   33   19     -9.99      0.00
  -18   34   20     -1.29      0.00
  -19   35   21      4.14      0.00
  -20   36   22      4.33      0.00
  -21   37   23     -8.36      0.00
    0   15   12     17.39      0.00
   -1   15   11     26.27      0.00
   -2   15   10      5.18      0.00
   -3   15    9     -1.93      0.00
    0   15    3    -20.64      0.00
   -1   16    4     16.83      0.00
   -2   17    5      8.09      0.00
   -3   18    6      9.12      0.00
   -4   19    7     -6.02      0.00
   -5   20    8      7.54      0.00
   -6   21    9      8.79      0.00
   -7   22   10      2.71      0.00
   -8   23   11     -4.78      0.00
   -9   24   12     -6.28      0.00
  -10   25   13      2.89      0.00
  -11   26   14    -10.92      0.00
  -12   27   15     -3.97      0.00
  -13   28   16    -19.22      0.00
  -14   29   17     -7.75      0.00
  -15   30   18     -5.79      0.00
  -16   31   19     -8.21      0.00
  -17   32   20     -4.55      0.00
  -18   33   21      0.42      0.00
  -19   34   22      7.73      0.00
  -20   35   23    -14.05      0.00
  -21   36   24     12.66      0.00
  -22   37   25      5.67      0.00
    0   14   10      9.56      0.00
   -1   14    9     -4.11      0.00
   -2   14    8     -2.03      0.00
    0   14    4      4.85      0.00
   -1   15    5      0.13      0.00
   -2   16    6     -7.99      0.00
   -3   17    7      4.57      0.00
   -4   18    8     -5.80      0.00
   -5   19    9      6.46      0.00
   -6   20   10     -6.63      0.00
   -7   21   11     12.98      0.00
   -8   22   12    -10.84      0.00
   -9   23   13      5.01      0.00
  -10   24   14      0.77      0.00
  -11   25   15     10.02      0.00
  -12   26   16      9.99      0.00
  -13   27   17     -8.34      0.00
  -14   28   18     -1.97      0.00
  -15   29   19     19.71      0.00
  -16   30   20     12.99      0.00
  -17   31   21     -7.34      0.00
  -18   32   22      0.39      0.00
  -19   33   23     -0.71      0.00
  -20   34   24     -4.24      0.00
  -21   35   25      1.42      0.00
  -22   36   26      0.74      0.00
    0   13    8     14.95      0.00
   -1   13    7     -8.54      0.00
    0   13    5    -43.87      0.00
   -1   14    6      3.91      0.00
   -2   15    7     -2.68      0.00
   -3   16    8      5.57      0.00
   -4   17    9      7.34      0.00
   -5   18   10     -0.44      0.00
   -6   19   11     -9.34      0.00
   -7   20   12     -2.66      0.00
   -8   21   13      5.84      0.00
   -9   22   14      0.94      0.00
  -10   23   15     -0.21      0.00
  -11   24   16     -0.90      0.00
  -12   25   17      1.12      0.00
  -13   26   18     -6.59      0.00
  -14   27   19     -2.07      0.00
  -15   28   20      6.47      0.00
  -16   29   21      6.67      0.00
  -17   30   22      5.38      0.00
  -18   31   23    -17.58      0.00
  -19   32   24     -0.30      0.00
  -20   33   25     -1.24      0.00
  -21   34   26    -26.69      0.00
  -22   35   27     -9.45      0.00
  -23   36   28    -18.54      0.00
    0   12    6     50.95      0.00
    0    0   18    -34.60      0.00
   -1    1   19    -26.16      0.00
   -2    2   20     93.30      0.00
   -3    3   21    -85.37      0.00
   -4    4   22     15.73      0.00
   -5    5   23    -58.81      0.00
   -6    6   24     68.37      0.00
   -7    7   25    -43.06      0.00
   -8    8   26     21.50      0.00
   -9    9   27     -6.57      0.00
  -10   10   28     18.32      0.00
  -11   11   29     -5.62      0.00
  -12   12   30     15.03      0.00
  -13   13   31     -8.57      0.00
  -14   14   32      1.44      0.00
  -15   15   33     15.10      0.00
  -16   16   34     -4.44      0.00
  -17   17   35     -8.75      0.00
  -18   18   36      1.32      0.00
  -19   19   37      5.83      0.00
  -20   20   38    -13.67      0.00
  -21   21   39     -5.39      0.00
  -22   22   40      9.31      0.00
  -23   23   41     -8.37      0.00
  -24   24   42    -12.48      0.00
  -25   25   43      7.39      0.00
  -26   26   44     10.47      0.00
  -27   27   45     -9.28      0.00
  -28   28   46     13.10      0.00
    0    1   20    -88.21      0.00
   -1    2   21     43.49      0.00
   -2    3   22     89.80      0.00
   -3    4   23     -3.79      0.00
   -4    5   24    -22.72      0.00
   -5    6   25     12.08      0.00
   -6    7   26     24.18      0.00
   -7    8   27      3.51      0.00
   -8    9   28      2.98      0.00
   -9   10   29    -22.28      0.00
  -10   11   30     -7.33      0.00
  -11   12   31     -2.46      0.00
  -12   13   32      2.15      0.00
  -13   14   33      1.96      0.00
  -14   15   34      2.61      0.00
  -15   16   35     -8.88      0.00
  -16   17   36     -2.72      0.00
  -17   18   37     -2.20      0.00
  -18   19   38      2.03      0.00
  -19   20   39     -8.43      0.00
  -20   21   40     -4.91      0.00
  -21   22   41      3.90      0.00
  -22   23   42      2.76      0.00
  -23   24   43    -12.45      0.00
  -24   25   44      1.31      0.00
  -25   26   45      0.55      0.00
  -26   27   46    -14.61      0.00
  -27   28   47    -10.06      0.00
  -28   29   48      0.71      0.00
    0    2   22    -54.30      0.00
   -1    3   23    -30.20      0.00
   -2    4   24      6.12      0.00
   -3    5   25     27.65      0.00
   -4    6   26    -41.22      0.00
   -5    7   27     30.20      0.00
   -6    8   28     -8.45      0.00
   -7    9   29    -19.51      0.00
   -8   10   30     -3.52      0.00
   -9   11   31     23.06      0.00
  -10   12   32    -16.00      0.00
  -11   13   33     -5.25      0.00
  -12   14   34     10.02      0.00
  -13   15   35      9.83      0.00
  -14   16   36     -7.60      0.00
  -15   17   37     -4.28      0.00
  -16   18   38      0.65      0.00
  -17   19   39      2.97      0.00
  -18   20   40      0.23      0.00
  -19   21   41      0.88      0.00
  -20   22   42     -9.41      0.00
  -21   23   43      2.98      0.00
  -22   24   44     15.21      0.00
  -23   25   45      0.37      0.00
  -24   26   46      1.40      0.00
  -25   27   47      2.45      0.00
  -26   28   48     -8.21      0.00
  -27   29   49      7.52      0.00
    0    3   24     67.77      0.00
   -1    4   25    -19.46      0.00
   -2    5   26     -8.56      0.00
   -3    6   27    -34.68      0.00
   -4    7   28      6.38      0.00
   -5    8   29     -0.92      0.00
   -6    9   30     18.43      0.00
   -7   10   31    -14.93      0.00
   -8   11   32     -1.89      0.00
   -9   12   33     -9.60      0.00
  -10   13   34      6.85      0.00
  -11   14   35      6.81      0.00
  -12   15   36      4.75      0.00
  -13   16   37    -22.93      0.00
  -14   17   38      0.50      0.00
  -15   18   39     -4.17      0.00
  -16   19   40     -2.15      0.00
  -17   20   41    -11.02      0.00
  -18   21   42     -1.69      0.00
  -19   22   43      2.37      0.00
  -20   23   44    -21.23      0.00
  -21   24   45      9.15      0.00
  -22   25   46     -5.53      0.00
  -23   26   47      2.39      0.00
  -24   27   48    -13.48      0.00
  -25   28   49     -7.32      0.00
  -26   29   50     -1.98      0.00
    0    4   26    -19.25      0.00
   -1    5   27     15.46      0.00
   -2    6   28      3.22      0.00
   -3    7   29    -10.00      0.00
   -4    8   30    -22.63      0.00
   -5    9   31      8.84      0.00
   -6   10   32     22.94      0.00
   -7   11   33     -1.72      0.00
   -8   12   34      0.24      0.00
   -9   13   35     -3.18      0.00
  -10   14   36      0.35      0.00
  -11   15   37     -5.09      0.00
  -12   16   38      9.66      0.00
  -13   17   39     -3.91      0.00
  -14   18   40     11.72      0.00
  -15   19   41     -8.16      0.00
  -16   20   42    -13.53      0.00
  -17   21   43    -16.11      0.00
  -18   22   44     13.44      0.00
  -19   23   45     -6.75      0.00
  -20   24   46     -4.13      0.00
  -21   25   47      9.60      0.00
  -22   26   48      6.25      0.00
  -23   27   49      0.31      0.00
  -24   28   50     -6.98      0.00
  -25   29   51     -0.50      0.00
    0    5   28    -40.69      0.00
   -1    6   29      9.50      0.00
   -2    7   30     -9.31      0.00
   -3    8   31     10.10      0.00
   -4    9   32      9.08      0.00
   -5   10   33     -1.61      0.00
   -6   11   34      1.23      0.00
   -7   12   35     10.92      0.00
   -8   13   36     -0.26      0.00
   -9   14   37     -3.49      0.00
  -10   15   38      4.73      0.00
  -11   16   39     -4.86      0.00
  -12   17   40      7.66      0.00
  -13   18   41      3.95      0.00
  -14   19   42      2.73      0.00
  -15   20   43    -13.99      0.00
  -16   21   44      1.64      0.00
  -17   22   45     -2.80      0.00
  -18   23   46     -9.95      0.00
  -19   24   47      0.09      0.00
  -20   25   48     -5.62      0.00
  -21   26   49      4.95      0.00
  -22   27   50      1.15      0.00
  -23   28   51     11.62      0.00
  -24   29   52     10.27      0.00
    0    6   30     20.09      0.00
   -1    7   31     18.69      0.00
   -2    8   32     -2.94      0.00
   -3    9   33     -3.40      0.00
   -4   10   34     17.58      0.00
   -5   11   35      8.97      0.00
   -6   12   36     16.36      0.00
   -7   13   37     -7.53      0.00
   -8   14   38      9.65      0.00
   -9   15   39     -9.27      0.00
  -10   16   40      7.44      0.00
  -11   17   41     -6.30      0.00
  -12   18   42      4.79      0.00
  -13   19   43     -4.65      0.00
  -14   20   44      5.98      0.00
  -15   21   45     -9.59      0.00
  -16   22   46      0.31      0.00
  -17   23   47     -3.57      0.00
  -18   24   48    -12.55      0.00
  -19   25   49     -0.30      0.00
  -20   26   50    -12.16      0.00
  -21   27   51     -9.24      0.00
  -22   28   52    -11.30      0.00
  -23   29   53     11.02      0.00
    0    7   32     26.20      0.00
   -1    8   33      2.45      0.00
   -2    9   34      3.49      0.00
   -3   10   35    -17.41      0.00
   -4   11   36      1.93      0.00
   -5   12   37     -2.53      0.00
   -6   13   38     12.21      0.00
   -7   14   39     -1.45      0.00
   -8   15   40      6.25      0.00
   -9   16   41     -9.61      0.00
  -10   17   42      4.62      0.00
  -11   18   43      1.24      0.00
  -12   19   44      1.92      0.00
  -13   20   45     -5.02      0.00
  -14   21   46      4.49      0.00
  -15   22   47    -12.70      0.00
  -16   23   48    -13.71      0.00
  -17   24   49     -9.44      0.00
  -18   25   50     14.47      0.00
  -19   26   51      5.65      0.00
  -20   27   52     20.35      0.00
  -21   28   53      3.66      0.00
  -22   29   54      6.81      0.00
    0    8   34    -19.27      0.00
   -1    9   35      6.43      0.00
   -2   10   36      3.37      0.00
   -3   11   37     -8.21      0.00
   -4   12   38      6.95      0.00
   -5   13   39      7.15      0.00
   -6   14   40      4.88      0.00
   -7   15   41     -7.26      0.00
   -8   16   42     -1.09      0.00
   -9   17   43     -3.81      0.00
  -10   18   44      1.39      0.00
  -11   19   45      8.69      0.00
  -12   20   46      3.05      0.00
  -13   21   47      1.12      0.00
  -14   22   48     10.49      0.00
  -15   23   49    -11.27      0.00
  -16   24   50      0.98      0.00
  -17   25   51     -6.92      0.00
  -18   26   52     -0.44      0.00
  -19   27   53     -0.14      0.00
  -20   28   54      8.70      0.00
  -21   29   55     -1.21      0.00
    0    9   36     26.69      0.00
   -1   10   37      2.74      0.00
   -2   11   38     -3.06      0.00
   -3   12   39     -7.89      0.00
   -4   13   40      8.57      0.00
   -5   14   41     -2.65      0.00
   -6   15   42      6.65      0.00
   -7   16   43     -8.57      0.00
   -8   17   44      8.78      0.00
   -9   18   45     -4.92      0.00
  -10   19   46      8.80      0.00
  -11   20   47     10.25      0.00
  -12   21   48      0.88      0.00
  -13   22   49     -8.38      0.00
  -14   23   50     -4.14      0.00
  -15   24   51      1.80      0.00
  -16   25   52      0.90      0.00
  -17   26   53      9.59      0.00
  -18   27   54     12.14      0.00
  -19   28   55     11.35      0.00
  -20   29   56     -5.56      0.00
  -10   37    1      4.50      0.00
    0   10   38     30.43      0.00
   -1   11   39     -3.91      0.00
   -2   12   40      7.81      0.00
   -3   13   41    -14.73      0.00
   -4   14   42     -2.23      0.00
   -5   15   43      9.72      0.00
   -6   16   44     13.54      0.00
   -7   17   45     -1.72      0.00
   -8   18   46      2.60      0.00
   -9   19   47      5.54      0.00
  -10   20   48      3.42      0.00
  -11   21   49     -1.62      0.00
  -12   22   50     -9.49      0.00
  -13   23   51      5.37      0.00
  -14   24   52      8.12      0.00
  -15   25   53     -0.59      0.00
  -16   26   54     -2.95      0.00
  -17   27   55    -17.19      0.00
  -18   28   56      1.96      0.00
  -19   29   57     -2.27      0.00
  -11   38    2     -6.70      0.00
  -11   37    3      0.71      0.00
  -11   36    4      0.71      0.00
    0   11   40      5.61      0.00
   -1   12   41    -17.00      0.00
   -2   13   42     -4.76      0.00
   -3   14   43      6.32      0.00
   -4   15   44     -1.54      0.00
   -5   16   45      5.18      0.00
   -6   17   46     -1.58      0.00
   -7   18   47     -5.49      0.00
   -8   19   48      2.16      0.00
   -9   20   49      1.66      0.00
  -10   21   50     10.39      0.00
  -11   22   51      9.20      0.00
  -12   23   52    -11.47      0.00
  -13   24   53      5.09      0.00
  -14   25   54    -10.06      0.00
  -15   26   55     -9.47      0.00
  -16   27   56     -2.11      0.00
  -17   28   57      4.03      0.00
  -18   29   58     -2.84      0.00
  -12   38    4     16.76      0.00
  -12   37    5    -10.28      0.00
  -12   36    6    -16.68      0.00
    0   12   42     14.00      0.00
   -1   13   43    -11.14      0.00
   -2   14   44      1.29      0.00
   -3   15   45     -7.99      0.00
   -4   16   46     -0.66      0.00
   -5   17   47      2.61      0.00
   -6   18   48     -3.81      0.00
   -7   19   49     -1.87      0.00
   -8   20   50      5.68      0.00
   -9   21   51      7.40      0.00
  -10   22   52     -2.61      0.00
  -11   23   53      5.33      0.00
  -12   24   54     -4.67      0.00
  -13   25   55     18.19      0.00
  -14   26   56      2.87      0.00
  -15   27   57      0.52      0.00
  -16   28   58      8.43      0.00
  -17   29   59      4.91      0.00
  -13   38    6      9.18      0.00
  -13   37    7     -6.24      0.00
  -13   36    8     -1.67      0.00
    0   13   44     18.21      0.00
   -1   14   45      4.50      0.00
   -2   15   46      8.68      0.00
   -3   16   47      2.92      0.00
   -4   17   48     -1.91      0.00
   -5   18   49     -5.44      0.00
   -6   19   50     -3.39      0.00
   -7   20   51     13.36      0.00
   -8   21   52      2.92      0.00
   -9   22   53     -8.19      0.00
  -10   23   54      2.59      0.00
  -11   24   55      0.74      0.00
  -12   25   56     -9.33      0.00
  -13   26   57     29.20      0.00
  -14   27   58      3.54      0.00
  -15   28   59     -1.42      0.00
  -16   29   60     -4.77      0.00
  -14   38    8      6.64      0.00
  -14   37    9    -16.19      0.00
  -14   36   10    -12.44      0.00
    0   14   46     10.84      0.00
   -1   15   47     -5.40      0.00
   -2   16   48      1.97      0.00
   -3   17   49     -6.08      0.00
   -4   18   50    -12.10      0.00
   -5   19   51     -3.95      0.00
   -6   20   52     -1.90      0.00
   -7   21   53     11.27      0.00
   -8   22   54     -4.89      0.00
   -9   23   55     -2.02      0.00
  -10   24   56      7.65      0.00
  -11   25   57    -16.44      0.00
  -12   26   58    -14.31      0.00
  -13   27   59     11.57      0.00
  -14   28   60     -0.93      0.00
  -15   38   10     -1.62      0.00
  -15   37   11      3.79      0.00
    0   15   48      2.32      0.00
   -1   16   49     -1.27      0.00
   -2   17   50      2.39      0.00
   -3   18   51     -1.14      0.00
   -4   19   52     -3.22      0.00
   -5   20   53      5.89      0.00
   -6   21   54    -11.18      0.00
   -7   22   55     -9.43      0.00
   -8   23   56     -5.43      0.00
   -9   24   57     11.13      0.00
  -10   25   58     20.52      0.00
  -11   26   59      0.53      0.00
  -12   27   60      7.74      0.00
  -13   28   61      5.13      0.00
  -16   38   12     -0.86      0.00
  -16   37   13     -4.65      0.00
    0   16   50      6.27      0.00
   -1   17   51      6.07      0.00
   -2   18   52      7.34      0.00
   -3   19   53      8.81      0.00
   -4   20   54      4.18      0.00
   -5   21   55     11.85      0.00
   -6   22   56    -13.23      0.00
   -7   23   57     12.15      0.00
   -8   24   58     10.86      0.00
   -9   25   59     15.71      0.00
  -10   26   60     -5.41      0.00
  -11   27   61     -5.99      0.00
  -12   28   62     -7.94      0.00
  -17   38   14    -16.73      0.00
    0   17   52      9.76      0.00
   -1   18   53     -2.08      0.00
   -2   19   54     -1.07      0.00
   -3   20   55    -12.70      0.00
   -4   21   56     10.59      0.00
   -5   22   57      9.00      0.00
   -6   23   58     -4.23      0.00
   -7   24   59     12.03      0.00
   -8   25   60     -6.29      0.00
   -9   26   61      2.94      0.00
  -10   27   62     18.48      0.00
  -18   38   16     -3.79      0.00
    0   18   54      7.76      0.00
   -1   19   55     22.21      0.00
   -2   20   56     12.26      0.00
   -3   21   57     -8.32      0.00
   -4   22   58     21.70      0.00
   -5   23   59      9.49      0.00
   -6   24   60     -7.64      0.00
   -7   25   61     -5.73      0.00
   -8   26   62      2.10      0.00
   -9   27   63      8.68      0.00
    0   19   56     37.57      0.00
   -1   20   57      6.49      0.00
   -2   21   58    -27.51      0.00
   -3   22   59    -10.84      0.00
   -4   23   60    -13.53      0.00
   -5   24   61      0.78      0.00
   -6   25   62     -4.62      0.00
   -7   26   63      7.62      0.00
    0   20   58     -8.69      0.00
   -1   21   59    -11.54      0.00
   -2   22   60     -6.96      0.00
   -3   23   61      3.12      0.00
   -4   24   62    -10.23      0.00
   -5   25   63      6.75      0.00
   -6   26   64     -8.88      0.00
    0   21   60     -1.47      0.00
   -1   22   61      7.05      0.00
   -2   23   62      8.61      0.00
   -3   24   63     -7.40      0.00
   -4   25   64      0.07      0.00
    0   22   62    -25.07      0.00
   -1   23   63     20.52      0.00
   -2   24   64     11.02      0.00
    0   23   64    -13.46      0.00
  -17   36   34     12.64      0.00
  -18   36   33     10.62      0.00
  -19   36   32      5.71      0.00
  -20   36   31     -7.82      0.00
  -21   36   30     11.06      0.00
  -22   36   29      5.43      0.00
  -12   35   37      7.12      0.00
  -13   35   36     -0.16      0.00
  -14   35   35     -8.48      0.00
  -15   35   34    -26.35      0.00
  -16   35   33     -2.61      0.00
  -17   35   32      9.91      0.00
  -18   35   31     -4.93      0.00
  -19   35   30      7.76      0.00
  -20   35   29      9.06      0.00
  -21   35   28    -22.01      0.00
   -9   34   38      5.83      0.00
  -10   34   37    -16.93      0.00
  -11   34   36    -11.41      0.00
  -12   34   35     19.35      0.00
  -13   34   34     -9.18      0.00
  -14   34   33    -25.49      0.00
  -15   34   32    -13.88      0.00
  -16   34   31     -9.82      0.00
  -17   34   30      4.29      0.00
  -18   34   29     -5.91      0.00
  -19   34   28     -6.04      0.00
  -20   34   27    -13.19      0.00
   -6   33   39    -20.31      0.00
   -7   33   38    -20.90      0.00
   -8   33   37    -15.57      0.00
   -9   33   36    -33.20      0.00
  -10   33   35     -3.72      0.00
  -11   33   34     14.70      0.00
  -12   33   33    -25.76      0.00
  -13   33   32    -19.63      0.00
  -14   33   31      8.79      0.00
  -15   33   30      4.61      0.00
  -16   33   29    -14.77      0.00
  -17   33   28    -10.62      0.00
  -18   33   27    -16.67      0.00
  -19   33   26     -1.29      0.00
  -33   33   12    -11.17      0.00
  -33   34   11    -11.51      0.00
   -4   32   39      8.65      0.00
   -5   32   38     12.45      0.00
   -6   32   37    -21.54      0.00
   -7   32   36      6.23      0.00
   -8   32   35      0.77      0.00
   -9   32   34     -6.36      0.00
  -10   32   33     27.75      0.00
  -11   32   32      1.10      0.00
  -12   32   31    -14.90      0.00
  -13   32   30     23.36      0.00
  -14   32   29     11.73      0.00
  -15   32   28    -19.77      0.00
  -16   32   27     -0.12      0.00
  -17   32   26      2.13      0.00
  -18   32   25     10.96      0.00
  -32   32   11     -9.26      0.00
  -32   33   10     -7.70      0.00
  -32   34    9      4.81      0.00
  -32   35    8      2.88      0.00
   -2   31   39     -9.93      0.00
   -3   31   38      4.63      0.00
   -4   31   37     27.63      0.00
   -5   31   36     19.52      0.00
   -6   31   35     28.26      0.00
   -7   31   34      8.55      0.00
   -8   31   33      3.27      0.00
   -9   31   32     16.44      0.00
  -10   31   31      1.73      0.00
  -11   31   30      3.83      0.00
  -12   31   29    -19.98      0.00
  -13   31   28     -8.64      0.00
  -14   31   27     -8.69      0.00
  -15   31   26     -3.57      0.00
  -16   31   25     10.33      0.00
  -17   31   24     -1.70      0.00
  -31   31   10    -13.04      0.00
  -31   32    9     -0.50      0.00
  -31   33    8     -0.24      0.00
  -31   34    7     -7.71      0.00
  -31   35    6    -13.76      0.00
  -31   36    5     -8.41      0.00
    0   30   39      3.01      0.00
   -1   30   38     20.19      0.00
   -2   30   37     -0.41      0.00
   -3   30   36     19.93      0.00
   -4   30   35      8.09      0.00
   -5   30   34      6.05      0.00
   -6   30   33     -3.68      0.00
   -7   30   32     -0.08      0.00
   -8   30   31      3.89      0.00
   -9   30   30     19.69      0.00
  -10   30   29      8.32      0.00
  -11   30   28      2.92      0.00
  -12   30   27    -30.02      0.00
  -13   30   26     -1.98      0.00
  -14   30   25     -3.26      0.00
  -15   30   24     -1.38      0.00
  -16   30   23      3.11      0.00
  -30   30    9      7.48      0.00
  -30   31    8      7.90      0.00
  -30   32    7    -12.51      0.00
  -30   33    6      1.52      0.00
  -30   34    5    -14.32      0.00
  -30   35    4     -5.87      0.00
  -30   36    3     15.07      0.00
    0   29   37     53.72      0.00
   -1   29   36     17.41      0.00
   -2   29   35    -12.33      0.00
   -3   29   34      7.34      0.00
   -4   29   33     -1.60      0.00
   -5   29   32     13.02      0.00
   -6   29   31      7.44      0.00
   -7   29   30     -8.78      0.00
   -8   29   29    -24.79      0.00
   -9   29   28     -6.42      0.00
  -10   29   27     -6.43      0.00
  -11   29   26     -8.56      0.00
  -12   29   25    -12.16      0.00
  -13   29   24    -10.57      0.00
  -14   29   23     12.77      0.00
  -15   29   22      9.15      0.00
  -29   29    8     -2.31      0.00
  -29   30    7     13.56      0.00
  -29   31    6      1.62      0.00
  -29   32    5      1.89      0.00
  -29   33    4     -4.52      0.00
  -29   34    3      9.22      0.00
  -29   35    2     -1.65      0.00
    0   28   35     -8.14      0.00
   -1   28   34    -32.64      0.00
   -2   28   33    -11.56      0.00
   -3   28   32      2.79      0.00
   -4   28   31    -16.03      0.00
   -5   28   30     -1.63      0.00
   -6   28   29     -8.07      0.00
   -7   28   28     -3.09      0.00
   -8   28   27     -9.49      0.00
   -9   28   26      8.73      0.00
  -10   28   25      3.49      0.00
  -11   28   24      7.72      0.00
  -12   28   23    -18.46      0.00
  -13   28   22      2.96      0.00
  -14   28   21      4.80      0.00
  -28   28    7     -6.03      0.00
  -28   29    6     -9.42      0.00
  -28   30    5     -3.18      0.00
  -28   31    4     14.37      0.00
  -28   32    3     -7.58      0.00
  -28   33    2    -14.00      0.00
  -28   34    1     -3.33      0.00
    0   27   33     -4.13      0.00
   -1   27   32     12.17      0.00
   -2   27   31    -22.42      0.00
   -3   27   30     -7.53      0.00
   -4   27   29     -7.24      0.00
   -5   27   28      2.29      0.00
   -6   27   27      4.03      0.00
   -7   27   26      5.20      0.00
   -8   27   25     -5.63      0.00
   -9   27   24      2.97      0.00
  -10   27   23     -4.64      0.00
  -11   27   22     11.46      0.00
  -12   27   21      4.59      0.00
  -13   27   20     -3.92      0.00
  -27   27    6     23.05      0.00
  -27   28    5      5.71      0.00
  -27   29    4     -5.29      0.00
  -27   30    3      3.16      0.00
  -27   31    2      2.18      0.00
  -27   32    1     11.22      0.00
   -6   33    0      1.04      0.00
   -7   34    1     13.38      0.00
    0   26   31     22.93      0.00
   -1   26   30     -3.40      0.00
   -2   26   29      3.61      0.00
   -3   26   28     18.29      0.00
   -4   26   27    -15.15      0.00
   -5   26   26     -5.30      0.00
   -6   26   25      9.36      0.00
   -7   26   24     -0.20      0.00
   -8   26   23    -14.02      0.00
   -9   26   22     -3.74      0.00
  -10   26   21     -3.84      0.00
  -11   26   20     -1.72      0.00
  -12   26   19     -3.18      0.00
  -26   26    5     24.21      0.00
  -26   27    4      6.16      0.00
  -26   28    3     -0.06      0.00
  -26   29    2    -11.55      0.00
  -26   30    1      3.79      0.00
   -5   31    0      1.22      0.00
   -6   32    1      9.09      0.00
   -7   33    2     -7.69      0.00
    0   25   29      4.74      0.00
   -1   25   28     -1.48      0.00
   -2   25   27      2.59      0.00
   -3   25   26      9.00      0.00
   -4   25   25     -5.53      0.00
   -5   25   24     -6.94      0.00
   -6   25   23      2.25      0.00
   -7   25   22      4.60      0.00
   -8   25   21      7.25      0.00
   -9   25   20      7.68      0.00
  -10   25   19     -3.64      0.00
  -11   25   18      1.86      0.00
  -25   25    4      7.05      0.00
  -25   26    3     -3.48      0.00
  -25   27    2    -17.17      0.00
  -25   28    1      8.38      0.00
   -4   29    0     -7.72      0.00
   -5   30    1    -15.37      0.00
   -6   31    2    -10.76      0.00
   -7   32    3      3.56      0.00
   -8   33    4     -7.69      0.00
    0   24   27     -9.81      0.00
   -1   24   26    -28.82      0.00
   -2   24   25     10.81      0.00
   -3   24   24     16.49      0.00
   -4   24   23     -7.23      0.00
   -5   24   22    -22.73      0.00
   -6   24   21    -10.35      0.00
   -7   24   20      9.14      0.00
   -8   24   19     -3.61      0.00
   -9   24   18    -17.95      0.00
  -10   24   17     -1.06      0.00
  -24   24    3    -13.59      0.00
  -24   25    2      4.77      0.00
  -24   26    1     -4.61      0.00
   -3   27    0      1.37      0.00
   -4   28    1      2.42      0.00
   -5   29    2     -4.34      0.00
   -6   30    3      4.53      0.00
   -7   31    4     13.32      0.00
   -8   32    5      5.36      0.00
    0   23   25     -4.98      0.00
   -1   23   24     10.82      0.00
   -2   23   23     11.93      0.00
   -3   23   22     -2.46      0.00
   -4   23   21    -12.55      0.00
   -5   23   20      0.31      0.00
   -6   23   19      3.02      0.00
   -7   23   18      3.64      0.00
   -8   23   17     -5.13      0.00
   -9   23   16     -7.13      0.00
  -23   23    2    -11.36      0.00
  -23   24    1     -9.30      0.00
   -2   25    0     -7.41      0.00
   -3   26    1     11.54      0.00
   -4   27    2     -7.84      0.00
   -5   28    3      7.41      0.00
   -6   29    4      5.72      0.00
   -7   30    5      7.10      0.00
   -8   31    6      8.27      0.00
    0   22   23     13.98      0.00
   -1   22   22     -0.11      0.00
   -2   22   21     -5.04      0.00
   -3   22   20     -8.48      0.00
   -4   22   19     -4.01      0.00
   -5   22   18     -7.03      0.00
   -6   22   17     -2.68      0.00
   -7   22   16      1.05      0.00
   -8   22   15      5.23      0.00
  -22   22    1      3.20      0.00
   -1   23    0      2.94      0.00
   -2   24    1     -2.09      0.00
   -3   25    2     -9.23      0.00
   -4   26    3      0.91      0.00
   -5   27    4     -3.54      0.00
   -6   28    5      8.62      0.00
   -7   29    6     -4.35      0.00
   -8   30    7     11.69      0.00
   -9   31    8      8.45      0.00
    0   21   21    -14.61      0.00
   -1   21   20      3.73      0.00
   -2   21   19      0.71      0.00
   -3   21   18      2.48      0.00
   -4   21   17      4.59      0.00
   -5   21   16     -0.81      0.00
   -6   21   15      2.08      0.00
   -7   21   14     -3.45      0.00
    0   21    0      7.58      0.00
   -1   22    1      3.02      0.00
   -2   23    2     -1.28      0.00
   -3   24    3     -1.81      0.00
   -4   25    4    -11.20      0.00
   -5   26    5     -8.69      0.00
   -6   27    6     -3.38      0.00
   -7   28    7     12.02      0.00
   -8   29    8      0.89      0.00
   -9   30    9    -13.84      0.00
  -10   31   10     -0.80      0.00
    0   20   19     -2.01      0.00
   -1   20   18      3.91      0.00
   -2   20   17      8.58      0.00
   -3   20   16     -4.88      0.00
   -4   20   15     -6.26      0.00
   -5   20   14     -7.75      0.00
   -6   20   13      3.76      0.00
    0   20    1      7.44      0.00
   -1   21    2     -2.52      0.00
   -2   22    3     -0.83      0.00
   -3   23    4      2.03      0.00
   -4   24    5     10.53      0.00
   -5   25    6     -7.95      0.00
   -6   26    7     -8.94      0.00
   -7   27    8    -14.40      0.00
   -8   28    9     15.42      0.00
   -9   29   10     -2.20      0.00
  -10   30   11    -12.37      0.00
  -11   31   12      7.98      0.00
  -12   32   13      8.84      0.00
    0   19   17      8.62      0.00
   -1   19   16     -5.46      0.00
   -2   19   15      0.14      0.00
   -3   19   14     -4.00      0.00
   -4   19   13     -4.60      0.00
   -5   19   12    -11.68      0.00
    0   19    2     -1.92      0.00
   -1   20    3     -0.34      0.00
   -2   21    4      5.89      0.00
   -3   22    5    -11.37      0.00
   -4   23    6     -6.04      0.00
   -5   24    7     -0.62      0.00
   -6   25    8    -11.76      0.00
   -7   26    9    -13.80      0.00
   -8   27   10     -3.43      0.00
   -9   28   11      4.04      0.00
  -10   29   12      3.20      0.00
  -11   30   13      3.11      0.00
  -12   31   14      3.50      0.00
  -13   32   15    -14.26      0.00
  -14   33   16    -11.95      0.00
  -15   34   17      3.44      0.00
    0   18   15    -14.91      0.00
   -1   18   14    -10.95      0.00
   -2   18   13      5.35      0.00
   -3   18   12      3.99      0.00
   -4   18   11      9.38      0.00
    0   18    3      6.58      0.00
   -1   19    4     -2.69      0.00
   -2   20    5      2.44      0.00
   -3   21    6     -0.64      0.00
   -4   22    7      3.76      0.00
   -5   23    8    -13.08      0.00
   -6   24    9     -0.72      0.00
   -7   25   10     -4.45      0.00
   -8   26   11      2.60      0.00
   -9   27   12     -3.76      0.00
  -10   28   13      1.12      0.00
  -11   29   14      1.39      0.00
  -12   30   15      0.42      0.00
  -13   31   16      1.10      0.00
  -14   32   17      5.31      0.00
  -15   33   18      3.18      0.00
  -16   34   19     15.88      0.00
  -17   35   20     10.25      0.00
  -18   36   21     11.27      0.00
    0   17   13      6.55      0.00
   -1   17   12      8.19      0.00
   -2   17   11      1.81      0.00
   -3   17   10    -19.95      0.00
    0   17    4     -8.58      0.00
   -1   18    5     -2.36      0.00
   -2   19    6      9.68      0.00
   -3   20    7      2.10      0.00
   -4   21    8      4.11      0.00
   -5   22    9    -10.75      0.00
   -6   23   10      1.80      0.00
   -7   24   11     -3.56      0.00
   -8   25   12     -4.60      0.00
   -9   26   13     -2.82      0.00
  -10   27   14    -13.51      0.00
  -11   28   15      4.15      0.00
  -12   29   16     -3.51      0.00
  -13   30   17     15.51      0.00
  -14   31   18     10.52      0.00
  -15   32   19     15.58      0.00
  -16   33   20     14.16      0.00
  -17   34   21     16.33      0.00
  -18   35   22      3.27      0.00
  -19   36   23    -12.83      0.00
  -20   37   24      6.41      0.00
    0   16   11    -14.91      0.00
   -1   16   10      2.79      0.00
   -2   16    9      6.47      0.00
    0   16    5    -18.20      0.00
   -1   17    6     -3.70      0.00
   -2   18    7     -5.78      0.00
   -3   19    8     16.24      0.00
   -4   20    9     -5.56      0.00
   -5   21   10     -7.51      0.00
   -6   22   11     -8.28      0.00
   -7   23   12     -0.94      0.00
   -8   24   13      6.12      0.00
   -9   25   14      5.61      0.00
  -10   26   15    -18.77      0.00
  -11   27   16      4.96      0.00
  -12   28   17     -4.20      0.00
  -13   29   18    -12.02      0.00
  -14   30   19     -6.42      0.00
  -15   31   20    -15.33      0.00
  -16   32   21     -2.21      0.00
  -17   33   22     -4.04      0.00
  -18   34   23     -9.08      0.00
  -19   35   24     -8.88      0.00
  -20   36   25     -3.14      0.00
  -21   37   26     -3.29      0.00
    0   15    9     -0.35      0.00
   -1   15    8      1.23      0.00
    0   15    6     15.39      0.00
   -1   16    7     15.93      0.00
   -2   17    8     -4.87      0.00
   -3   18    9     -6.97      0.00
   -4   19   10     -8.28      0.00
   -5   20   11      2.15      0.00
   -6   21   12      8.72      0.00
   -7   22   13      8.49      0.00
   -8   23   14      8.16      0.00
   -9   24   15      0.93      0.00
  -10   25   16    -14.21      0.00
  -11   26   17     -2.47      0.00
  -12   27   18      5.95      0.00
  -13   28   19     -6.04      0.00
  -14   29   20      4.63      0.00
  -15   30   21     -0.90      0.00
  -16   31   22     -5.03      0.00
  -17   32   23     -3.09      0.00
  -18   33   24      5.84      0.00
  -19   34   25     13.72      0.00
  -20   35   26      1.93      0.00
  -21   36   27     -1.01      0.00
    0   14    7      0.16      0.00
    0    0   21   -121.72      0.00
   -1    1   22     55.74      0.00
   -2    2   23     54.54      0.00
   -3    3   24     67.46      0.00
   -4    4   25    -42.79      0.00
   -5    5   26    -51.97      0.00
   -6    6   27    -13.76      0.00
   -7    7   28      8.00      0.00
   -8    8   29     14.29      0.00
   -9    9   30     12.91      0.00
  -10   10   31    -15.97      0.00
  -11   11   32    -14.21      0.00
  -12   12   33    -10.72      0.00
  -13   13   34      2.53      0.00
  -14   14   35     -3.36      0.00
  -15   15   36    -11.79      0.00
  -16   16   37      4.14      0.00
  -17   17   38     -1.65      0.00
  -18   18   39      7.06      0.00
  -19   19   40      0.65      0.00
  -20   20   41      8.97      0.00
  -21   21   42    -20.03      0.00
  -22   22   43    -11.94      0.00
  -23   23   44     -9.06      0.00
  -24   24   45     -7.37      0.00
  -25   25   46    -18.79      0.00
  -26   26   47     -5.97      0.00
  -27   27   48      4.83      0.00
  -28   28   49      2.99      0.00
    0    1   23     10.55      0.00
   -1    2   24    -21.64      0.00
   -2    3   25    -18.59      0.00
   -3    4   26    -31.25      0.00
   -4    5   27     13.62      0.00
   -5    6   28     13.88      0.00
   -6    7   29     19.12      0.00
   -7    8   30     -8.56      0.00
   -8    9   31    -13.73      0.00
   -9   10   32     -5.27      0.00
  -10   11   33      7.74      0.00
  -11   12   34      4.39      0.00
  -12   13   35      2.05      0.00
  -13   14   36     -7.19      0.00
  -14   15   37     -1.61      0.00
  -15   16   38      3.59      0.00
  -16   17   39     11.84      0.00
  -17   18   40     -7.03      0.00
  -18   19   41      2.32      0.00
  -19   20   42     -6.09      0.00
  -20   21   43     -6.25      0.00
  -21   22   44      7.06      0.00
  -22   23   45      0.32      0.00
  -23   24   46     -1.54      0.00
  -24   25   47     -2.00      0.00
  -25   26   48     -3.69      0.00
  -26   27   49      4.66      0.00
  -27   28   50     -8.62      0.00
    0    2   25    -71.55      0.00
   -1    3   26     -9.43      0.00
   -2    4   27     33.14      0.00
   -3    5   28     24.79      0.00
   -4    6   29     14.81      0.00
   -5    7   30    -27.66      0.00
   -6    8   31      1.86      0.00
   -7    9   32      6.17      0.00
   -8   10   33     10.57      0.00
   -9   11   34     -5.18      0.00
  -10   12   35     -7.53      0.00
  -11   13   36      2.37      0.00
  -12   14   37     -2.97      0.00
  -13   15   38     -0.07      0.00
  -14   16   39      0.02      0.00
  -15   17   40      7.59      0.00
  -16   18   41    -11.95      0.00
  -17   19   42    -12.06      0.00
  -18   20   43      2.68      0.00
  -19   21   44      3.69      0.00
  -20   22   45     -6.34      0.00
  -21   23   46      2.27      0.00
  -22   24   47     -0.60      0.00
  -23   25   48     -4.09      0.00
  -24   26   49      9.85      0.00
  -25   27   50     18.19      0.00
  -26   28   51      1.79      0.00
    0    3   27    -48.55      0.00
   -1    4   28      1.46      0.00
   -2    5   29     17.14      0.00
   -3    6   30     22.17      0.00
   -4    7   31    -29.16      0.00
   -5    8   32     -4.06      0.00
   -6    9   33    -12.79      0.00
   -7   10   34     22.48      0.00
   -8   11   35     21.46      0.00
   -9   12   36      1.62      0.00
  -10   13   37     -8.92      0.00
  -11   14   38     -2.40      0.00
  -12   15   39     -9.89      0.00
  -13   16   40     -4.73      0.00
  -14   17   41      0.00      0.00
  -15   18   42     -2.63      0.00
  -16   19   43    -15.90      0.00
  -17   20   44      5.02      0.00
  -18   21   45     15.51      0.00
  -19   22   46    -13.64      0.00
  -20   23   47    -13.89      0.00
  -21   24   48      1.85      0.00
  -22   25   49      4.83      0.00
  -23   26   50      5.16      0.00
  -24   27   51     20.47      0.00
  -25   28   52     -5.10      0.00
    0    4   29     -8.28      0.00
   -1    5   30    -34.47      0.00
   -2    6   31     -2.57      0.00
   -3    7   32      4.44      0.00
   -4    8   33      8.66      0.00
   -5    9   34     17.90      0.00
   -6   10   35    -16.42      0.00
   -7   11   36     -4.43      0.00
   -8   12   37     -6.68      0.00
   -9   13   38     -2.44      0.00
  -10   14   39      4.14      0.00
  -11   15   40      3.15      0.00
  -12   16   41     -1.90      0.00
  -13   17   42     -0.16      0.00
  -14   18   43     18.22      0.00
  -15   19   44      6.35      0.00
  -16   20   45     -4.05      0.00
  -17   21   46     -9.12      0.00
  -18   22   47     -7.49      0.00
  -19   23   48     -8.96      0.00
  -20   24   49     19.58      0.00
  -21   25   50     -1.86      0.00
  -22   26   51      1.56      0.00
  -23   27   52     14.79      0.00
  -24   28   53      6.23      0.00
    0    5   31     -2.25      0.00
   -1    6   32      0.06      0.00
   -2    7   33     14.64      0.00
   -3    8   34     24.49      0.00
   -4    9   35     -1.56      0.00
   -5   10   36     -1.31      0.00
   -6   11   37      0.87      0.00
   -7   12   38      7.62      0.00
   -8   13   39     -5.11      0.00
   -9   14   40      1.48      0.00
  -10   15   41     -5.71      0.00
  -11   16   42      6.26      0.00
  -12   17   43      4.57      0.00
  -13   18   44     11.96      0.00
  -14   19   45      5.05      0.00
  -15   20   46      1.39      0.00
  -16   21   47     -9.56      0.00
  -17   22   48     -4.72      0.00
  -18   23   49     -2.08      0.00
  -19   24   50     -0.14      0.00
  -20   25   51     -5.68      0.00
  -21   26   52    -23.10      0.00
  -22   27   53    -13.08      0.00
  -23   28   54      1.78      0.00
    0    6   33    -15.87      0.00
   -1    7   34     -2.43      0.00
   -2    8   35     -2.56      0.00
   -3    9   36     32.16      0.00
   -4   10   37    -20.75      0.00
   -5   11   38     -5.74      0.00
   -6   12   39    -10.26      0.00
   -7   13   40     14.92      0.00
   -8   14   41     -0.07      0.00
   -9   15   42      7.25      0.00
  -10   16   43     -4.50      0.00
  -11   17   44    -10.87      0.00
  -12   18   45     -0.35      0.00
  -13   19   46     -7.78      0.00
  -14   20   47     -5.17      0.00
  -15   21   48      3.76      0.00
  -16   22   49     -5.47      0.00
  -17   23   50      5.85      0.00
  -18   24   51      8.25      0.00
  -19   25   52      7.30      0.00
  -20   26   53      0.25      0.00
  -21   27   54      4.50      0.00
  -22   28   55    -10.18      0.00
  -29   36    1     18.62      0.00
   -7   35    0      9.98      0.00
    0    7   35     -7.74      0.00
   -1    8   36    -25.02      0.00
   -2    9   37     -1.03      0.00
   -3   10   38     -1.63      0.00
   -4   11   39      1.72      0.00
   -5   12   40      4.85      0.00
   -6   13   41     -9.49      0.00
   -7   14   42     -2.30      0.00
   -8   15   43    -16.80      0.00
   -9   16   44     -1.75      0.00
  -10   17   45     -2.83      0.00
  -11   18   46     -2.35      0.00
  -12   19   47      3.95      0.00
  -13   20   48      5.09      0.00
  -14   21   49     -1.17      0.00
  -15   22   50      4.26      0.00
  -16   23   51      8.67      0.00
  -17   24   52     -3.34      0.00
  -18   25   53     -1.86      0.00
  -19   26   54      9.17      0.00
  -20   27   55     16.89      0.00
  -21   28   56      1.35      0.00
   -8   37    0      1.90      0.00
   -8   36    1      6.78      0.00
   -8   35    2     12.78      0.00
   -8   34    3     16.13      0.00
    0    8   37      5.33      0.00
   -1    9   38     -7.68      0.00
   -2   10   39     -4.66      0.00
   -3   11   40     -2.44      0.00
   -4   12   41      6.80      0.00
   -5   13   42     -6.18      0.00
   -6   14   43     -7.61      0.00
   -7   15   44      0.45      0.00
   -8   16   45      2.90      0.00
   -9   17   46      0.86      0.00
  -10   18   47      1.48      0.00
  -11   19   48      8.73      0.00
  -12   20   49    -10.38      0.00
  -13   21   50     -7.90      0.00
  -14   22   51     -7.09      0.00
  -15   23   52     14.93      0.00
  -16   24   53      1.87      0.00
  -17   25   54     12.37      0.00
  -18   26   55     -9.81      0.00
  -19   27   56      3.62      0.00
  -20   28   57     -5.25      0.00
   -9   37    2    -11.03      0.00
   -9   36    3    -14.38      0.00
   -9   35    4     -3.61      0.00
   -9   34    5    -12.91      0.00
   -9   33    6    -12.62      0.00
   -9   32    7     -9.65      0.00
    0    9   39    -17.32      0.00
   -1   10   40      2.47      0.00
   -2   11   41      2.49      0.00
   -3   12   42     11.61      0.00
   -4   13   43     -6.10      0.00
   -5   14   44     -8.09      0.00
   -6   15   45     -2.30      0.00
   -7   16   46      4.36      0.00
   -8   17   47      4.78      0.00
   -9   18   48     -1.44      0.00
  -10   19   49      2.81      0.00
  -11   20   50    -12.13      0.00
  -12   21   51    -12.90      0.00
  -13   22   52     -4.07      0.00
  -14   23   53      1.91      0.00
  -15   24   54     -1.88      0.00
  -16   25   55      8.17      0.00
  -17   26   56      9.27      0.00
  -18   27   57     -3.56      0.00
  -19   28   58     10.10      0.00
  -10   37    4      8.96      0.00
  -10   36    5     23.53      0.00
  -10   35    6      4.48      0.00
  -10   34    7     -1.06      0.00
  -10   33    8      8.42      0.00
  -10   32    9     -5.10      0.00
    0   10   41     -9.04      0.00
   -1   11   42     -5.28      0.00
   -2   12   43     -6.41      0.00
   -3   13   44     -3.48      0.00
   -4   14   45      4.90      0.00
   -5   15   46      7.32      0.00
   -6   16   47     -4.12      0.00
   -7   17   48     -3.10      0.00
   -8   18   49     -6.96      0.00
   -9   19   50     12.37      0.00
  -10   20   51     -7.33      0.00
  -11   21   52    -10.64      0.00
  -12   22   53      3.33      0.00
  -13   23   54      2.01      0.00
  -14   24   55     12.57      0.00
  -15   25   56     12.80      0.00
  -16   26   57      0.10      0.00
  -17   27   58    -12.86      0.00
  -18   28   59    -21.99      0.00
  -11   37    6     19.26      0.00
  -11   36    7      6.61      0.00
  -11   35    8      6.89      0.00
  -11   34    9     17.20      0.00
  -11   33   10      6.78      0.00
  -11   32   11      9.75      0.00
    0   11   43    -15.60      0.00
   -1   12   44    -10.29      0.00
   -2   13   45      6.88      0.00
   -3   14   46      0.49      0.00
   -4   15   47     -1.19      0.00
   -5   16   48    -14.62      0.00
   -6   17   49     -0.39      0.00
   -7   18   50      2.74      0.00
   -8   19   51     20.00      0.00
   -9   20   52     -5.62      0.00
  -10   21   53     -4.50      0.00
  -11   22   54     -2.24      0.00
  -12   23   55      1.69      0.00
  -13   24   56    -15.14      0.00
  -14   25   57     -0.52      0.00
  -15   26   58     -7.84      0.00
  -16   27   59      1.45      0.00
  -17   28   60     14.93      0.00
  -12   38    7      5.00      0.00
  -12   37    8      0.20      0.00
  -12   36    9    -18.31      0.00
  -12   35   10      4.52      0.00
  -12   34   11      1.79      0.00
  -12   33   12      6.94      0.00
    0   12   45     -5.53      0.00
   -1   13   46     13.94      0.00
   -2   14   47     -6.30      0.00
   -3   15   48     -0.06      0.00
   -4   16   49    -15.70      0.00
   -5   17   50      4.31      0.00
   -6   18   51     -0.21      0.00
   -7   19   52      5.66      0.00
   -8   20   53     -6.46      0.00
   -9   21   54     -5.44      0.00
  -10   22   55     -7.63      0.00
  -11   23   56    -10.50      0.00
  -12   24   57      2.13      0.00
  -13   25   58     -9.13      0.00
  -14   26   59     -0.66      0.00
  -15   27   60    -16.27      0.00
  -16   28   61     15.47      0.00
  -13   38    9     -3.20      0.00
  -13   37   10      8.53      0.00
  -13   36   11     10.64      0.00
  -13   35   12     23.77      0.00
  -13   34   13     -9.53      0.00
  -13   33   14     -0.93      0.00
    0   13   47     -9.02      0.00
   -1   14   48    -11.38      0.00
   -2   15   49     -8.14      0.00
   -3   16   50      3.21      0.00
   -4   17   51     -0.41      0.00
   -5   18   52      2.21      0.00
   -6   19   53     13.13      0.00
   -7   20   54     -3.44      0.00
   -8   21   55      8.52      0.00
   -9   22   56      1.77      0.00
  -10   23   57    -11.68      0.00
  -11   24   58     -1.04      0.00
  -12   25   59     -5.03      0.00
  -13   26   60      6.84      0.00
  -14   27   61     15.60      0.00
  -15   28   62      1.20      0.00
  -14   38   11      6.06      0.00
  -14   37   12     -4.32      0.00
  -14   36   13    -11.79      0.00
  -14   35   14     -4.91      0.00
  -14   34   15     20.00      0.00
    0   14   49      0.42      0.00
   -1   15   50     -9.04      0.00
   -2   16   51    -12.02      0.00
   -3   17   52      5.37      0.00
   -4   18   53     -3.42      0.00
   -5   19   54    -11.89      0.00
   -6   20   55     -3.46      0.00
   -7   21   56     -8.19      0.00
   -8   22   57     -1.06      0.00
   -9   23   58      5.15      0.00
  -10   24   59     -2.92      0.00
  -11   25   60    -11.72      0.00
  -12   26   61      0.58      0.00
  -13   27   62      1.47      0.00
  -15   38   13    -21.75      0.00
  -15   37   14    -11.11      0.00
  -15   36   15     -5.29      0.00
  -15   35   16     21.33      0.00
    0   15   51    -10.11      0.00
   -1   16   52     -7.65      0.00
   -2   17   53     -7.94      0.00
   -3   18   54      3.02      0.00
   -4   19   55     -1.17      0.00
   -5   20   56      1.60      0.00
   -6   21   57      2.57      0.00
   -7   22   58     -3.51      0.00
   -8   23   59     -4.33      0.00
   -9   24   60     -5.51      0.00
  -10   25   61    -13.60      0.00
  -11   26   62      2.85      0.00
  -12   27   63     -6.45      0.00
  -16   38   15      4.91      0.00
  -16   37   16    -18.06      0.00
  -16   36   17     19.30      0.00
  -16   35   18      2.57      0.00
    0   16   53      3.70      0.00
   -1   17   54      1.12      0.00
   -2   18   55      4.34      0.00
   -3   19   56      4.47      0.00
   -4   20   57      7.70      0.00
   -5   21   58      9.25      0.00
   -6   22   59    -12.39      0.00
   -7   23   60    -10.33      0.00
   -8   24   61    -10.57      0.00
   -9   25   62     -6.89      0.00
  -10   26   63    -13.54      0.00
  -11   27   64    -13.08      0.00
  -17   38   17     -1.35      0.00
  -17   37   18      5.88      0.00
  -17   36   19     -1.35      0.00
    0   17   55     19.87      0.00
   -1   18   56      8.52      0.00
   -2   19   57      1.86      0.00
   -3   20   58     -0.22      0.00
   -4   21   59     18.41      0.00
   -5   22   60      2.70      0.00
   -6   23   61     -0.73      0.00
   -7   24   62    -11.05      0.00
   -8   25   63     -0.91      0.00
   -9   26   64      3.90      0.00
  -18   38   19     -1.07      0.00
  -18   37   20     -6.87      0.00
    0   18   57     -2.11      0.00
   -1   19   58      6.61      0.00
   -2   20   59     -8.26      0.00
   -3   21   60      5.16      0.00
   -4   22   61     29.74      0.00
   -5   23   62     26.39      0.00
   -6   24   63      6.41      0.00
   -7   25   64     -1.69      0.00
   -8   26   65      2.78      0.00
  -19   38   21    -17.15      0.00
  -19   37   22     -4.15      0.00
    0   19   59     13.75      0.00
   -1   20   60      9.38      0.00
   -2   21   61     -2.88      0.00
   -3   22   62      8.37      0.00
   -4   23   63     -7.36      0.00
   -5   24   64      1.43      0.00
   -6   25   65      2.79      0.00
    0   20   61     10.13      0.00
   -1   21   62    -14.24      0.00
   -2   22   63     12.65      0.00
   -3   23   64     12.00      0.00
   -4   24   65      5.31      0.00
   -5   25   66      7.51      0.00
    0   21   63      3.40      0.00
   -1   22   64     14.54      0.00
   -2   23   65     37.57      0.00
   -3   24   66     -0.62      0.00
    0   22   65     12.46      0.00
   -1   23   66     11.60      0.00
  -15   36   33     13.34      0.00
  -16   36   32     -2.83      0.00
  -17   36   31     11.42      0.00
  -18   36   30     18.29      0.00
  -19   36   29      0.38      0.00
  -20   36   28     -8.69      0.00
  -11   35   35      8.02      0.00
  -12   35   34     -2.21      0.00
  -13   35   33     17.20      0.00
  -14   35   32    -11.24      0.00
  -15   35   31    -22.54      0.00
  -16   35   30      9.09      0.00
  -17   35   29     13.64      0.00
  -18   35   28      3.54      0.00
  -19   35   27    -21.32      0.00
   -8   34   36     17.99      0.00
   -9   34   35      8.25      0.00
  -10   34   34    -23.65      0.00
  -11   34   33      8.05      0.00
  -12   34   32    -13.34      0.00
  -13   34   31      5.16      0.00
  -14   34   30     -2.75      0.00
  -15   34   29     26.39      0.00
  -16   34   28    -12.67      0.00
  -17   34   27    -25.10      0.00
  -18   34   26     -7.19      0.00
   -5   33   37    -11.23      0.00
   -6   33   36      2.90      0.00
   -7   33   35      3.61      0.00
   -8   33   34      8.89      0.00
   -9   33   33    -47.75      0.00
  -10   33   32    -16.40      0.00
  -11   33   31     -6.13      0.00
  -12   33   30    -30.48      0.00
  -13   33   29    -12.79      0.00
  -14   33   28     25.99      0.00
  -15   33   27     -9.20      0.00
  -16   33   26      1.68      0.00
  -17   33   25     18.43      0.00
  -33   33    9     -3.74      0.00
  -33   34    8      1.00      0.00
   -3   32   37     -2.75      0.00
   -4   32   36      4.84      0.00
   -5   32   35     16.92      0.00
   -6   32   34     -0.97      0.00
   -7   32   33      5.01      0.00
   -8   32   32     -1.38      0.00
   -9   32   31     -1.59      0.00
  -10   32   30     23.66      0.00
  -11   32   29     -3.80      0.00
  -12   32   28     15.73      0.00
  -13   32   27     14.61      0.00
  -14   32   26      0.39      0.00
  -15   32   25     -1.54      0.00
  -16   32   24      9.06      0.00
  -32   32    8     -1.43      0.00
  -32   33    7     -2.62      0.00
  -32   34    6      1.71      0.00
  -32   35    5     -6.61      0.00
   -1   31   37     -3.93      0.00
   -2   31   36    -18.38      0.00
   -3   31   35    -13.26      0.00
   -4   31   34      3.84      0.00
   -5   31   33     -3.93      0.00
   -6   31   32    -22.34      0.00
   -7   31   31      5.50      0.00
   -8   31   30      8.51      0.00
   -9   31   29     13.68      0.00
  -10   31   28     -2.53      0.00
  -11   31   27     -7.36      0.00
  -12   31   26    -18.41      0.00
  -13   31   25      6.79      0.00
  -14   31   24      2.26      0.00
  -15   31   23      7.98      0.00
  -31   31    7      5.78      0.00
  -31   32    6     -4.61      0.00
  -31   33    5    -14.20      0.00
  -31   34    4    -18.22      0.00
    0   30   36     25.57      0.00
   -1   30   35     23.86      0.00
   -2   30   34     -8.96      0.00
   -3   30   33     -2.06      0.00
   -4   30   32    -15.03      0.00
   -5   30   31    -10.03      0.00
   -6   30   30      0.71      0.00
   -7   30   29      0.38      0.00
   -8   30   28     19.20      0.00
   -9   30   27     -4.57      0.00
  -10   30   26      7.09      0.00
  -11   30   25    -19.35      0.00
  -12   30   24    -12.50      0.00
  -13   30   23     -9.12      0.00
  -14   30   22     -6.44      0.00
  -30   30    6     14.27      0.00
  -30   31    5     -3.27      0.00
  -30   32    4    -11.43      0.00
  -30   33    3     -2.84      0.00
  -30   34    2     -8.03      0.00
    0   29   34     32.15      0.00
   -1   29   33     19.60      0.00
   -2   29   32     20.46      0.00
   -3   29   31      8.30      0.00
   -4   29   30      5.61      0.00
   -5   29   29     16.47      0.00
   -6   29   28     21.73      0.00
   -7   29   27     23.40      0.00
   -8   29   26      5.86      0.00
   -9   29   25      3.14      0.00
  -10   29   24     17.13      0.00
  -11   29   23      6.59      0.00
  -12   29   22    -14.12      0.00
  -13   29   21     -7.23      0.00
  -29   29    5      4.47      0.00
  -29   30    4      2.13      0.00
  -29   31    3    -13.51      0.00
  -29   32    2      4.21      0.00
  -29   33    1    -14.20      0.00
    0   28   32     -9.41      0.00
   -1   28   31     -7.90      0.00
   -2   28   30    -22.42      0.00
   -3   28   29    -25.72      0.00
   -4   28   28     -3.45      0.00
   -5   28   27      9.26      0.00
   -6   28   26      0.82      0.00
   -7   28   25     -1.52      0.00
   -8   28   24      7.78      0.00
   -9   28   23      1.69      0.00
  -10   28   22     -5.55      0.00
  -11   28   21     -5.10      0.00
  -12   28   20     -0.59      0.00
  -28   28    4    -27.48      0.00
  -28   29    3    -10.84      0.00
  -28   30    2     -8.55      0.00
  -28   31    1      1.52      0.00
   -4   32    0     -4.41      0.00
    0   27   30     26.84      0.00
   -1   27   29     19.93      0.00
   -2   27   28     15.26      0.00
   -3   27   27      0.50      0.00
   -4   27   26     14.07      0.00
   -5   27   25     13.02      0.00
   -6   27   24      7.83      0.00
   -7   27   23      3.93      0.00
   -8   27   22    -13.61      0.00
   -9   27   21    -14.65      0.00
  -10   27   20     -6.15      0.00
  -11   27   19      1.48      0.00
  -27   27    3     12.70      0.00
  -27   28    2    -10.69      0.00
  -27   29    1     11.78      0.00
   -3   30    0      3.70      0.00
   -4   31    1     -9.08      0.00
   -5   32    2     -1.59      0.00
    0   26   28     24.64      0.00
   -1   26   27     24.88      0.00
   -2   26   26     10.16      0.00
   -3   26   25     12.48      0.00
   -4   26   24      3.94      0.00
   -5   26   23     11.95      0.00
   -6   26   22     14.26      0.00
   -7   26   21     -8.44      0.00
   -8   26   20      4.94      0.00
   -9   26   19     -2.43      0.00
  -10   26   18     -2.94      0.00
  -26   26    2     -3.67      0.00
  -26   27    1      0.91      0.00
   -2   28    0     -7.82      0.00
   -3   29    1      6.07      0.00
   -4   30    2     -4.28      0.00
   -5   31    3     -9.52      0.00
    0   25   26     -5.54      0.00
   -1   25   25      3.70      0.00
   -2   25   24     19.10      0.00
   -3   25   23     26.45      0.00
   -4   25   22    -16.44      0.00
   -5   25   21     -8.58      0.00
   -6   25   20     -6.18      0.00
   -7   25   19      3.82      0.00
   -8   25   18      2.92      0.00
   -9   25   17      0.03      0.00
  -25   25    1     -9.07      0.00
   -1   26    0     -1.10      0.00
   -2   27    1      8.77      0.00
   -3   28    2     -4.00      0.00
   -4   29    3      6.71      0.00
   -5   30    4    -18.29      0.00
    0   24   24      8.10      0.00
   -1   24   23      3.93      0.00
   -2   24   22      6.96      0.00
   -3   24   21      2.68      0.00
   -4   24   20    -19.91      0.00
   -5   24   19     -1.14      0.00
   -6   24   18      7.60      0.00
   -7   24   17     -6.94      0.00
   -8   24   16      0.94      0.00
    0   24    0    -17.78      0.00
   -1   25    1     -3.37      0.00
   -2   26    2     -0.41      0.00
   -3   27    3     13.29      0.00
   -4   28    4      2.55      0.00
   -5   29    5      5.96      0.00
    0   23   22     -3.07      0.00
   -1   23   21     -5.47      0.00
   -2   23   20      5.22      0.00
   -3   23   19    -10.36      0.00
   -4   23   18     10.20      0.00
   -5   23   17     -7.27      0.00
   -6   23   16      1.15      0.00
   -7   23   15      5.47      0.00
    0   23    1     -5.85      0.00
   -1   24    2     -9.20      0.00
   -2   25    3    -12.48      0.00
   -3   26    4     10.47      0.00
   -4   27    5    -10.91      0.00
   -5   28    6    -10.71      0.00
    0   22   20     10.55      0.00
   -1   22   19      7.85      0.00
   -2   22   18     -0.07      0.00
   -3   22   17     -6.39      0.00
   -4   22   16    -27.50      0.00
   -5   22   15     -4.50      0.00
   -6   22   14      5.02      0.00
    0   22    2     -9.05      0.00
   -1   23    3      8.89      0.00
   -2   24    4    -14.04      0.00
   -3   25    5     10.62      0.00
   -4   26    6     -9.28      0.00
   -5   27    7      4.03      0.00
    0   21   18     21.01      0.00
   -1   21   17      1.58      0.00
   -2   21   16     -4.97      0.00
   -3   21   15      4.96      0.00
   -4   21   14      5.20      0.00
   -5   21   13      8.92      0.00
    0   21    3     -4.90      0.00
   -1   22    4      9.48      0.00
   -2   23    5      9.35      0.00
   -3   24    6      5.70      0.00
   -4   25    7      0.87      0.00
   -5   26    8    -11.43      0.00
    0   20   16      0.42      0.00
   -1   20   15     16.22      0.00
   -2   20   14     -5.08      0.00
   -3   20   13     -3.57      0.00
   -4   20   12     -7.41      0.00
    0   20    4     -0.67      0.00
   -1   21    5     -8.51      0.00
   -2   22    6      3.84      0.00
   -3   23    7      6.95      0.00
   -4   24    8    -12.08      0.00
   -5   25    9     -3.84      0.00
    0   19   14     -0.86      0.00
   -1   19   13     -2.81      0.00
   -2   19   12      4.79      0.00
   -3   19   11      2.63      0.00
    0   19    5    -12.71      0.00
   -1   20    6      8.41      0.00
   -2   21    7     -5.20      0.00
   -3   22    8     -3.67      0.00
   -4   23    9     -5.26      0.00
    0   18   12    -29.22      0.00
   -1   18   11     14.30      0.00
   -2   18   10     -8.77      0.00
    0   18    6     -7.56      0.00
   -1   19    7     11.22      0.00
   -2   20    8     -1.69      0.00
   -3   21    9     -2.61      0.00
    0   17   10     -2.18      0.00
   -1   17    9      2.55      0.00
    0   17    7      5.85      0.00
   -1   18    8      2.30      0.00
   -2   19    9      3.73      0.00
  -11   28   18      4.64      0.00
  -12   29   19     -7.57      0.00
  -13   30   20    -17.10      0.00
  -14   31   21      6.36      0.00
  -15   32   22      3.26      0.00
  -16   33   23      3.99      0.00
  -17   34   24     10.05      0.00
  -18   35   25      2.64      0.00
    0   16    8     -0.44      0.00
    0    0   24     19.87      0.00
   -1    1   25     58.40      0.00
   -2    2   26    -58.44      0.00
   -3    3   27    -14.40      0.00
   -4    4   28    -23.54      0.00
   -5    5   29     24.52      0.00
   -6    6   30    -28.41      0.00
   -7    7   31      5.07      0.00
   -8    8   32     10.79      0.00
   -9    9   33     -9.56      0.00
  -10   10   34      1.87      0.00
  -11   11   35     10.41      0.00
  -12   12   36      4.83      0.00
  -13   13   37     -6.49      0.00
  -14   14   38     -9.32      0.00
  -15   15   39      3.71      0.00
  -16   16   40     11.71      0.00
  -17   17   41     -3.37      0.00
  -18   18   42    -20.14      0.00
  -19   19   43     12.72      0.00
  -20   20   44     10.29      0.00
  -21   21   45      7.17      0.00
  -22   22   46     23.47      0.00
  -23   23   47     -2.95      0.00
  -24   24   48     -0.11      0.00
  -25   25   49    -15.01      0.00
  -26   26   50      0.54      0.00
  -27   27   51      1.38      0.00
    0    1   26     48.66      0.00
   -1    2   27     -7.92      0.00
   -2    3   28    -60.86      0.00
   -3    4   29     48.91      0.00
   -4    5   30    -28.70      0.00
   -5    6   31     25.74      0.00
   -6    7   32     -6.18      0.00
   -7    8   33     15.08      0.00
   -8    9   34    -12.50      0.00
   -9   10   35     -6.51      0.00
  -10   11   36     -6.69      0.00
  -11   12   37      7.67      0.00
  -12   13   38     -6.49      0.00
  -13   14   39      6.02      0.00
  -14   15   40     -1.29      0.00
  -15   16   41      4.15      0.00
  -16   17   42     -1.47      0.00
  -17   18   43    -14.43      0.00
  -18   19   44      2.30      0.00
  -19   20   45     13.37      0.00
  -20   21   46     -0.14      0.00
  -21   22   47     -1.64      0.00
  -22   23   48     12.41      0.00
  -23   24   49     12.61      0.00
  -24   25   50     -6.45      0.00
  -25   26   51     15.71      0.00
  -26   27   52    -11.44      0.00
    0    2   28     21.61      0.00
   -1    3   29     29.72      0.00
   -2    4   30    -26.71      0.00
   -3    5   31    -11.92      0.00
   -4    6   32    -15.62      0.00
   -5    7   33     -0.54      0.00
   -6    8   34      9.98      0.00
   -7    9   35     -1.46      0.00
   -8   10   36      3.85      0.00
   -9   11   37     -5.65      0.00
  -10   12   38      3.70      0.00
  -11   13   39     10.59      0.00
  -12   14   40     -3.05      0.00
  -13   15   41     -5.61      0.00
  -14   16   42      1.72      0.00
  -15   17   43      2.93      0.00
  -16   18   44     -7.80      0.00
  -17   19   45     -2.56      0.00
  -18   20   46     -7.41      0.00
  -19   21   47      8.81      0.00
  -20   22   48     -3.24      0.00
  -21   23   49      1.54      0.00
  -22   24   50     -5.71      0.00
  -23   25   51     11.39      0.00
  -24   26   52      4.28      0.00
  -25   27   53      6.31      0.00
   -3   20   10     -2.36      0.00
    0    3   30     18.99      0.00
   -1    4   31     47.10      0.00
   -2    5   32    -36.07      0.00
   -3    6   33      1.82      0.00
   -4    7   34      2.56      0.00
   -5    8   35     -6.88      0.00
   -6    9   36     14.54      0.00
   -7   10   37     -1.70      0.00
   -8   11   38      3.82      0.00
   -9   12   39      1.93      0.00
  -10   13   40     -1.05      0.00
  -11   14   41      6.93      0.00
  -12   15   42     -3.18      0.00
  -13   16   43     -1.14      0.00
  -14   17   44     -6.40      0.00
  -15   18   45    -13.94      0.00
  -16   19   46     -7.73      0.00
  -17   20   47    -13.58      0.00
  -18   21   48     -2.68      0.00
  -19   22   49      4.58      0.00
  -20   23   50     -4.22      0.00
  -21   24   51     10.59      0.00
  -22   25   52     -0.84      0.00
  -23   26   53      5.33      0.00
  -24   27   54    -11.16      0.00
  -25   28   55      5.14      0.00
  -31   35    3      0.97      0.00
   -4   22   10     12.50      0.00
   -4   21   11      1.63      0.00
    0    4   32     -2.56      0.00
   -1    5   33     20.01      0.00
   -2    6   34    -19.74      0.00
   -3    7   35      0.59      0.00
   -4    8   36      1.88      0.00
   -5    9   37    -14.63      0.00
   -6   10   38     -7.86      0.00
   -7   11   39      5.35      0.00
   -8   12   40     -4.39      0.00
   -9   13   41     -6.86      0.00
  -10   14   42     -3.68      0.00
  -11   15   43      8.18      0.00
  -12   16   44     -4.68      0.00
  -13   17   45      1.84      0.00
  -14   18   46    -13.34      0.00
  -15   19   47    -14.63      0.00
  -16   20   48      1.81      0.00
  -17   21   49     -8.57      0.00
  -18   22   50    -21.61      0.00
  -19   23   51     -1.68      0.00
  -20   24   52    -15.64      0.00
  -21   25   53    -11.54      0.00
  -22   26   54    -22.10      0.00
  -23   27   55      3.29      0.00
  -24   28   56    -10.01      0.00
  -31   36    2     -2.03      0.00
  -30   35    1     14.11      0.00
   -5   34    0    -17.51      0.00
   -5   33    1    -13.99      0.00
   -5   24   10     -2.11      0.00
   -5   23   11      2.11      0.00
   -5   22   12      1.88      0.00
    0    5   34      5.55      0.00
   -1    6   35      9.45      0.00
   -2    7   36     -9.29      0.00
   -3    8   37     -6.64      0.00
   -4    9   38     -3.51      0.00
   -5   10   39      2.18      0.00
   -6   11   40     15.94      0.00
   -7   12   41      1.82      0.00
   -8   13   42      0.93      0.00
   -9   14   43     -3.47      0.00
  -10   15   44      3.01      0.00
  -11   16   45      5.89      0.00
  -12   17   46     -2.08      0.00
  -13   18   47      2.16      0.00
  -14   19   48     -1.45      0.00
  -15   20   49     -8.37      0.00
  -16   21   50     -0.58      0.00
  -17   22   51      3.93      0.00
  -18   23   52     -3.19      0.00
  -19   24   53     16.19      0.00
  -20   25   54      2.63      0.00
  -21   26   55     -0.51      0.00
  -22   27   56     -9.30      0.00
  -23   28   57     -0.11      0.00
   -6   36    0      7.72      0.00
   -6   35    1      9.73      0.00
   -6   34    2    -23.20      0.00
   -6   33    3    -21.25      0.00
   -6   32    4     -0.26      0.00
   -6   31    5    -18.96      0.00
   -6   30    6      7.87      0.00
   -6   29    7      9.61      0.00
   -6   28    8     -0.43      0.00
   -6   27    9     18.04      0.00
   -6   26   10    -17.22      0.00
   -6   25   11     -1.05      0.00
   -6   24   12     -4.35      0.00
   -6   23   13      9.07      0.00
    0    6   36      5.23      0.00
   -1    7   37      7.40      0.00
   -2    8   38    -15.25      0.00
   -3    9   39      0.76      0.00
   -4   10   40     -5.72      0.00
   -5   11   41      1.80      0.00
   -6   12   42      1.45      0.00
   -7   13   43      2.75      0.00
   -8   14   44     -6.41      0.00
   -9   15   45      5.87      0.00
  -10   16   46     -8.99      0.00
  -11   17   47     -2.86      0.00
  -12   18   48     -4.27      0.00
  -13   19   49     -8.73      0.00
  -14   20   50    -14.23      0.00
  -15   21   51     -3.25      0.00
  -16   22   52     13.45      0.00
  -17   23   53      4.96      0.00
  -18   24   54     -3.14      0.00
  -19   25   55      0.05      0.00
  -20   26   56      8.83      0.00
  -21   27   57     -2.65      0.00
  -22   28   58    -10.51      0.00
   -7   36    2    -11.68      0.00
   -7   35    3     -7.36      0.00
   -7   34    4      2.47      0.00
   -7   33    5    -15.18      0.00
   -7   32    6    -24.06      0.00
   -7   31    7      5.86      0.00
   -7   30    8     13.27      0.00
   -7   29    9    -14.00      0.00
   -7   28   10     -4.97      0.00
   -7   27   11     -6.83      0.00
   -7   26   12     -1.52      0.00
   -7   25   13     -5.01      0.00
   -7   24   14      4.93      0.00
    0    7   38     -5.80      0.00
   -1    8   39      8.43      0.00
   -2    9   40     -9.02      0.00
   -3   10   41     -3.17      0.00
   -4   11   42     -5.78      0.00
   -5   12   43     11.10      0.00
   -6   13   44      7.59      0.00
   -7   14   45      4.88      0.00
   -8   15   46     -2.76      0.00
   -9   16   47      4.11      0.00
  -10   17   48      0.47      0.00
  -11   18   49     -0.09      0.00
  -12   19   50      5.53      0.00
  -13   20   51     -6.42      0.00
  -14   21   52      9.54      0.00
  -15   22   53     13.46      0.00
  -16   23   54      2.43      0.00
  -17   24   55      5.37      0.00
  -18   25   56     -0.49      0.00
  -19   26   57     -5.87      0.00
  -20   27   58      3.50      0.00
  -21   28   59     -9.76      0.00
   -8   37    3    -16.63      0.00
   -8   36    4    -19.48      0.00
   -8   35    5     14.97      0.00
   -8   34    6     19.21      0.00
   -8   33    7     -7.40      0.00
   -8   32    8      3.77      0.00
   -8   31    9      6.62      0.00
   -8   30   10     18.86      0.00
   -8   29   11      9.67      0.00
   -8   28   12     18.58      0.00
   -8   27   13     11.99      0.00
   -8   26   14     -6.13      0.00
   -8   25   15     -6.55      0.00
    0    8   40      2.78      0.00
   -1    9   41      3.22      0.00
   -2   10   42    -13.70      0.00
   -3   11   43     12.01      0.00
   -4   12   44      0.24      0.00
   -5   13   45      4.16      0.00
   -6   14   46     -2.56      0.00
   -7   15   47      2.33      0.00
   -8   16   48     -7.78      0.00
   -9   17   49      1.68      0.00
  -10   18   50      0.68      0.00
  -11   19   51     -4.06      0.00
  -12   20   52      5.02      0.00
  -13   21   53      2.49      0.00
  -14   22   54     -0.50      0.00
  -15   23   55     -8.90      0.00
  -16   24   56      1.70      0.00
  -17   25   57      1.52      0.00
  -18   26   58     -6.35      0.00
  -19   27   59     -6.83      0.00
  -20   28   60      2.58      0.00
   -9   37    5     -8.96      0.00
   -9   36    6     -3.65      0.00
   -9   35    7     11.39      0.00
   -9   34    8    -17.94      0.00
   -9   33    9    -18.47      0.00
   -9   32   10     -9.26      0.00
   -9   31   11     -2.07      0.00
   -9   30   12     -1.59      0.00
   -9   29   13     -7.02      0.00
   -9   28   14      5.76      0.00
   -9   27   15     -9.16      0.00
   -9   26   16     -8.83      0.00
    0    9   42     -2.09      0.00
   -1   10   43     11.99      0.00
   -2   11   44     -0.40      0.00
   -3   12   45      8.16      0.00
   -4   13   46    -16.55      0.00
   -5   14   47      7.66      0.00
   -6   15   48      2.87      0.00
   -7   16   49     -1.20      0.00
   -8   17   50     -1.92      0.00
   -9   18   51      2.25      0.00
  -10   19   52      9.35      0.00
  -11   20   53    -13.48      0.00
  -12   21   54      6.46      0.00
  -13   22   55     11.01      0.00
  -14   23   56    -14.21      0.00
  -15   24   57     -2.88      0.00
  -16   25   58     -2.06      0.00
  -17   26   59    -23.81      0.00
  -18   27   60     -1.22      0.00
  -19   28   61     -5.60      0.00
  -10   37    7      2.67      0.00
  -10   36    8     10.92      0.00
  -10   35    9      8.14      0.00
  -10   34   10    -13.88      0.00
  -10   33   11     -4.42      0.00
  -10   32   12     -6.11      0.00
  -10   31   13     -3.10      0.00
  -10   30   14     -9.59      0.00
  -10   29   15     -6.58      0.00
  -10   28   16     -1.83      0.00
  -10   27   17      2.09      0.00
    0   10   44      4.36      0.00
   -1   11   45      2.21      0.00
   -2   12   46    -11.72      0.00
   -3   13   47      7.63      0.00
   -4   14   48     -8.67      0.00
   -5   15   49     -3.04      0.00
   -6   16   50     -2.83      0.00
   -7   17   51      1.45      0.00
   -8   18   52      1.70      0.00
   -9   19   53     -5.64      0.00
  -10   20   54    -12.09      0.00
  -11   21   55      3.24      0.00
  -12   22   56      3.15      0.00
  -13   23   57     12.77      0.00
  -14   24   58      2.61      0.00
  -15   25   59      8.59      0.00
  -16   26   60      6.73      0.00
  -17   27   61     -3.59      0.00
  -11   37    9    -14.13      0.00
  -11   36   10     -3.74      0.00
  -11   35   11      6.10      0.00
  -11   34   12     17.23      0.00
  -11   33   13     -1.24      0.00
  -11   32   14      3.23      0.00
  -11   31   15      0.82      0.00
  -11   30   16      7.57      0.00
  -11   29   17      2.34      0.00
    0   11   46    -12.94      0.00
   -1   12   47      8.47      0.00
   -2   13   48      1.66      0.00
   -3   14   49      3.30      0.00
   -4   15   50      1.49      0.00
   -5   16   51      3.05      0.00
   -6   17   52      4.33      0.00
   -7   18   53      1.15      0.00
   -8   19   54     -1.51      0.00
   -9   20   55     -8.83      0.00
  -10   21   56     -0.02      0.00
  -11   22   57     -5.80      0.00
  -12   23   58     -7.14      0.00
  -13   24   59      6.79      0.00
  -14   25   60    -14.06      0.00
  -15   26   61    -12.49      0.00
  -16   27   62      4.14      0.00
  -12   38   10      2.18      0.00
  -12   37   11      8.41      0.00
  -12   36   12    -12.40      0.00
  -12   35   13     -4.19      0.00
  -12   34   14    -15.36      0.00
  -12   33   15     -4.01      0.00
  -12   32   16    -10.41      0.00
  -12   31   17     12.88      0.00
  -12   30   18     14.29      0.00
    0   12   48      0.29      0.00
   -1   13   49      7.91      0.00
   -2   14   50     -1.04      0.00
   -3   15   51    -10.00      0.00
   -4   16   52      4.79      0.00
   -5   17   53     10.55      0.00
   -6   18   54      5.40      0.00
   -7   19   55     10.18      0.00
   -8   20   56     -7.81      0.00
   -9   21   57      7.66      0.00
  -10   22   58     -0.05      0.00
  -11   23   59      6.49      0.00
  -12   24   60     -2.97      0.00
  -13   25   61     11.67      0.00
  -14   26   62    -22.38      0.00
  -15   27   63     -1.36      0.00
  -13   38   12      7.65      0.00
  -13   37   13     -6.74      0.00
  -13   36   14     -3.94      0.00
  -13   35   15      0.47      0.00
  -13   34   16      4.72      0.00
  -13   33   17     -8.96      0.00
  -13   32   18    -22.76      0.00
  -13   31   19     28.79      0.00
    0   13   50      2.86      0.00
   -1   14   51      1.75      0.00
   -2   15   52     -1.26      0.00
   -3   16   53     -1.75      0.00
   -4   17   54      7.19      0.00
   -5   18   55     -4.52      0.00
   -6   19   56     -4.85      0.00
   -7   20   57     -4.38      0.00
   -8   21   58      2.74      0.00
   -9   22   59     -5.65      0.00
  -10   23   60     10.00      0.00
  -11   24   61     -5.57      0.00
  -12   25   62     12.21      0.00
  -13   26   63     10.26      0.00
  -14   27   64      9.12      0.00
  -14   38   14    -10.76      0.00
  -14   37   15      6.00      0.00
  -14   36   16    -13.97      0.00
  -14   35   17      8.28      0.00
  -14   34   18     19.16      0.00
  -14   33   19     -0.50      0.00
  -14   32   20      3.49      0.00
    0   14   52      2.19      0.00
   -1   15   53     -2.12      0.00
   -2   16   54      8.84      0.00
   -3   17   55      3.39      0.00
   -4   18   56      0.44      0.00
   -5   19   57      1.15      0.00
   -6   20   58     -4.27      0.00
   -7   21   59      6.08      0.00
   -8   22   60     -3.23      0.00
   -9   23   61      0.33      0.00
  -10   24   62      4.05      0.00
  -11   25   63      8.29      0.00
  -12   26   64    -11.12      0.00
  -15   38   16     -5.91      0.00
  -15   37   17      9.60      0.00
  -15   36   18    -19.96      0.00
  -15   35   19     23.28      0.00
  -15   34   20    -18.73      0.00
  -15   33   21    -20.17      0.00
    0   15   54      6.06      0.00
   -1   16   55      1.65      0.00
   -2   17   56      4.10      0.00
   -3   18   57     11.16      0.00
   -4   19   58    -12.47      0.00
   -5   20   59      0.86      0.00
   -6   21   60     -8.00      0.00
   -7   22   61     -5.54      0.00
   -8   23   62    -10.79      0.00
   -9   24   63     -9.59      0.00
  -10   25   64     -7.08      0.00
  -11   26   65    -12.63      0.00
  -16   38   18     -7.27      0.00
  -16   37   19     -3.57      0.00
  -16   36   20     -2.94      0.00
  -16   35   21      3.79      0.00
  -16   34   22    -12.57      0.00
    0   16   56     23.03      0.00
   -1   17   57     -7.65      0.00
   -2   18   58      9.06      0.00
   -3   19   59     -8.37      0.00
   -4   20   60      9.33      0.00
   -5   21   61     -0.16      0.00
   -6   22   62      2.79      0.00
   -7   23   63     -5.51      0.00
   -8   24   64    -15.65      0.00
   -9   25   65     -4.27      0.00
  -10   26   66     -6.99      0.00
  -17   38   20     -5.50      0.00
  -17   37   21     14.18      0.00
  -17   36   22     -6.05      0.00
  -17   35   23    -11.14      0.00
    0   17   58    -13.79      0.00
   -1   18   59    -13.57      0.00
   -2   19   60      6.04      0.00
   -3   20   61     10.66      0.00
   -4   21   62     13.13      0.00
   -5   22   63      0.25      0.00
   -6   23   64     -5.98      0.00
   -7   24   65     -6.33      0.00
   -8   25   66      7.17      0.00
  -18   37   23     -4.26      0.00
  -18   36   24     13.14      0.00
    0   18   60      4.51      0.00
   -1   19   61      5.61      0.00
   -2   20   62      7.74      0.00
   -3   21   63      9.88      0.00
   -4   22   64     17.71      0.00
   -5   23   65     12.08      0.00
   -6   24   66     25.87      0.00
   -7   25   67      0.84      0.00
  -19   37   25      1.41      0.00
  -19   36   26      9.57      0.00
    0   19   62     19.54      0.00
   -1   20   63     -6.84      0.00
   -2   21   64      5.19      0.00
   -3   22   65      9.10      0.00
   -4   23   66     -1.69      0.00
   -5   24   67    -11.01      0.00
  -20   37   27    -18.40      0.00
    0   20   64     -0.55      0.00
   -1   21   65     -6.95      0.00
   -2   22   66     18.56      0.00
   -3   23   67     -4.42      0.00
    0   21   66      3.48      0.00
   -1   22   67     -3.40      0.00
   -2   23   68     11.85      0.00
    0   22   68     -1.98      0.00
  -26   28   54     -1.15      0.00
  -18   37   29     14.34      0.00
  -19   37   28     13.27      0.00
  -13   36   32    -12.64      0.00
  -14   36   31     10.44      0.00
  -15   36   30    -13.25      0.00
  -16   36   29      0.42      0.00
  -17   36   28     17.94      0.00
  -18   36   27     -6.27      0.00
  -10   35   33      7.52      0.00
  -11   35   32    -10.13      0.00
  -12   35   31     20.63      0.00
  -13   35   30    -10.05      0.00
  -14   35   29      8.07      0.00
  -15   35   28      2.17      0.00
  -16   35   27     -1.40      0.00
  -17   35   26     -7.02      0.00
   -7   34   34     25.81      0.00
   -8   34   33    -10.59      0.00
   -9   34   32     -4.70      0.00
  -10   34   31    -10.68      0.00
  -11   34   30     -0.80      0.00
  -12   34   29     -7.24      0.00
  -13   34   28    -19.32      0.00
  -14   34   27     17.88      0.00
  -15   34   26      7.04      0.00
  -16   34   25    -17.38      0.00
   -4   33   35     -7.46      0.00
   -5   33   34     12.54      0.00
   -6   33   33     12.91      0.00
   -7   33   32      2.05      0.00
   -8   33   31    -22.42      0.00
   -9   33   30    -21.13      0.00
  -10   33   29    -13.47      0.00
  -11   33   28     -0.04      0.00
  -12   33   27     -5.35      0.00
  -13   33   26     -5.77      0.00
  -14   33   25     -0.63      0.00
  -15   33   24    -16.56      0.00
  -33   33    6    -14.05      0.00
  -33   34    5     -7.01      0.00
   -2   32   35      1.86      0.00
   -3   32   34      5.18      0.00
   -4   32   33      5.46      0.00
   -5   32   32     -2.46      0.00
   -6   32   31    -10.08      0.00
   -7   32   30     -4.72      0.00
   -8   32   29    -10.01      0.00
   -9   32   28      4.93      0.00
  -10   32   27      3.41      0.00
  -11   32   26     -4.22      0.00
  -12   32   25      7.15      0.00
  -13   32   24     -1.71      0.00
  -14   32   23     13.91      0.00
  -32   32    5     -1.62      0.00
  -32   33    4     -8.36      0.00
    0   31   35      5.47      0.00
   -1   31   34     13.28      0.00
   -2   31   33      5.83      0.00
   -3   31   32    -28.06      0.00
   -4   31   31     -4.04      0.00
   -5   31   30    -21.20      0.00
   -6   31   29    -22.74      0.00
   -7   31   28    -10.29      0.00
   -8   31   27    -12.02      0.00
   -9   31   26     -4.09      0.00
  -10   31   25    -24.25      0.00
  -11   31   24      9.15      0.00
  -12   31   23      7.62      0.00
  -13   31   22      8.96      0.00
  -31   31    4    -16.59      0.00
  -31   32    3    -10.92      0.00
  -31   33    2    -18.67      0.00
    0   30   33     38.14      0.00
   -1   30   32     -1.04      0.00
   -2   30   31    -29.26      0.00
   -3   30   30      0.01      0.00
   -4   30   29    -21.56      0.00
   -5   30   28      4.80      0.00
   -6   30   27     16.53      0.00
   -7   30   26      9.85      0.00
   -8   30   25     -3.95      0.00
   -9   30   24      8.30      0.00
  -10   30   23      9.14      0.00
  -11   30   22     15.31      0.00
  -12   30   21      4.52      0.00
  -30   30    3      1.68      0.00
  -30   31    2      1.56      0.00
  -30   32    1      9.19      0.00
    0   29   31    -17.14      0.00
   -1   29   30    -29.27      0.00
   -2   29   29     -3.24      0.00
   -3   29   28    -11.55      0.00
   -4   29   27      5.96      0.00
   -5   29   26     -1.58      0.00
   -6   29   25     -3.80      0.00
   -7   29   24     -0.22      0.00
   -8   29   23     12.23      0.00
   -9   29   22      5.11      0.00
  -10   29   21      6.06      0.00
  -11   29   20      2.49      0.00
  -29   29    2    -15.07      0.00
  -29   30    1      3.08      0.00
   -2   31    0      5.19      0.00
    0   28   29    -13.68      0.00
   -1   28   28      1.73      0.00
   -2   28   27    -20.67      0.00
   -3   28   26    -22.25      0.00
   -4   28   25    -17.37      0.00
   -5   28   24     -3.23      0.00
   -6   28   23    -15.53      0.00
   -7   28   22    -15.45      0.00
   -8   28   21    -28.44      0.00
   -9   28   20     -4.07      0.00
  -10   28   19    -10.44      0.00
  -28   28    1      5.78      0.00
   -1   29    0      2.50      0.00
   -2   30    1    -10.70      0.00
    0   27   27     19.69      0.00
   -1   27   26    -20.55      0.00
   -2   27   25     -5.93      0.00
   -3   27   24     11.98      0.00
   -4   27   23     11.06      0.00
   -5   27   22     10.94      0.00
   -6   27   21      7.07      0.00
   -7   27   20     -4.04      0.00
   -8   27   19      3.10      0.00
   -9   27   18     12.56      0.00
    0   27    0      9.25      0.00
   -1   28    1     -1.94      0.00
   -2   29    2     -5.96      0.00
    0   26   25     -6.30      0.00
   -1   26   24     -1.42      0.00
   -2   26   23     11.70      0.00
   -3   26   22      2.47      0.00
   -4   26   21     -7.35      0.00
   -5   26   20     -4.01      0.00
   -6   26   19     14.31      0.00
   -7   26   18     11.78      0.00
   -8   26   17     -1.91      0.00
    0   26    1      7.16      0.00
   -1   27    2      0.90      0.00
   -2   28    3     12.14      0.00
    0   25   23     13.40      0.00
   -1   25   22    -23.30      0.00
   -2   25   21      1.90      0.00
   -3   25   20      5.38      0.00
   -4   25   19     -6.43      0.00
   -5   25   18     16.34      0.00
   -6   25   17      1.76      0.00
   -7   25   16     -2.36      0.00
    0   25    2     -4.66      0.00
   -1   26    3     -8.27      0.00
   -2   27    4     -3.20      0.00
    0   24   21     -9.36      0.00
   -1   24   20    -18.07      0.00
   -2   24   19     -4.93      0.00
   -3   24   18     -2.44      0.00
   -4   24   17     -1.87      0.00
   -5   24   16     -2.14      0.00
   -6   24   15     -8.53      0.00
    0   24    3    -14.88      0.00
   -1   25    4     -3.98      0.00
   -2   26    5      3.07      0.00
    0   23   19     -3.00      0.00
   -1   23   18      4.46      0.00
   -2   23   17     -5.10      0.00
   -3   23   16    -17.36      0.00
   -4   23   15      1.93      0.00
   -5   23   14      4.95      0.00
    0   23    4      4.08      0.00
   -1   24    5      4.91      0.00
   -2   25    6     -2.10      0.00
    0   22   17     12.22      0.00
   -1   22   16     12.62      0.00
   -2   22   15    -10.96      0.00
   -3   22   14     -0.14      0.00
   -4   22   13     -1.80      0.00
    0   22    5     -3.96      0.00
   -1   23    6      2.33      0.00
   -2   24    7     -1.71      0.00
    0   21   15     -1.57      0.00
   -1   21   14     -0.56      0.00
   -2   21   13     -7.54      0.00
   -3   21   12     -0.14      0.00
    0   21    6     14.86      0.00
   -1   22    7      3.51      0.00
    0   20   13      6.44      0.00
   -1   20   12      1.29      0.00
   -2   20   11     -1.85      0.00
    0   20    7      3.69      0.00
   -1   21    8     -7.05      0.00
    0   19   11     10.79      0.00
   -1   19   10      8.51      0.00
    0   19    8     11.89      0.00
    0   18    9    -12.92      0.00
    0    0   27    -72.80      0.00
   -1    1   28     13.58      0.00
   -2    2   29    -40.65      0.00
   -3    3   30     53.32      0.00
   -4    4   31     -0.55      0.00
   -5    5   32     -9.06      0.00
   -6    6   33      6.46      0.00
   -7    7   34     14.99      0.00
   -8    8   35     -4.16      0.00
   -9    9   36     20.31      0.00
  -10   10   37    -15.83      0.00
  -11   11   38     -1.52      0.00
  -12   12   39    -15.70      0.00
  -13   13   40     18.00      0.00
  -14   14   41      7.28      0.00
  -15   15   42     10.98      0.00
  -16   16   43      4.42      0.00
  -17   17   44     11.18      0.00
  -18   18   45      8.31      0.00
  -19   19   46     -1.06      0.00
  -20   20   47      1.00      0.00
  -21   21   48     13.67      0.00
  -22   22   49     25.34      0.00
  -23   23   50     23.68      0.00
  -24   24   51     30.33      0.00
  -25   25   52     -9.69      0.00
  -26   26   53    -15.66      0.00
  -27   27   54    -18.71      0.00
   -1   20    9     -2.43      0.00
    0    1   29    -12.45      0.00
   -1    2   30     -5.75      0.00
   -2    3   31      0.25      0.00
   -3    4   32    -24.15      0.00
   -4    5   33     27.98      0.00
   -5    6   34      9.72      0.00
   -6    7   35    -11.35      0.00
   -7    8   36    -12.61      0.00
   -8    9   37      2.47      0.00
   -9   10   38      7.42      0.00
  -10   11   39     -1.37      0.00
  -11   12   40     -2.80      0.00
  -12   13   41      1.53      0.00
  -13   14   42      1.74      0.00
  -14   15   43     -3.22      0.00
  -15   16   44     12.98      0.00
  -16   17   45      1.25      0.00
  -17   18   46     -5.81      0.00
  -18   19   47    -22.89      0.00
  -19   20   48     -4.07      0.00
  -20   21   49      6.77      0.00
  -21   22   50     11.70      0.00
  -22   23   51     -6.57      0.00
  -23   24   52     23.01      0.00
  -24   25   53     -0.84      0.00
  -25   26   54    -18.75      0.00
  -26   27   55     -6.59      0.00
  -32   34    3    -14.15      0.00
   -2   23    8      4.47      0.00
   -2   22    9     -7.83      0.00
   -2   21   10     -0.89      0.00
    0    2   31     33.32      0.00
   -1    3   32    -19.72      0.00
   -2    4   33     -3.57      0.00
   -3    5   34    -30.20      0.00
   -4    6   35      3.05      0.00
   -5    7   36     -4.05      0.00
   -6    8   37      8.16      0.00
   -7    9   38      8.22      0.00
   -8   10   39     -0.70      0.00
   -9   11   40      0.26      0.00
  -10   12   41     11.42      0.00
  -11   13   42     -6.26      0.00
  -12   14   43      1.35      0.00
  -13   15   44     -3.54      0.00
  -14   16   45     10.53      0.00
  -15   17   46      2.21      0.00
  -16   18   47    -11.00      0.00
  -17   19   48     -0.30      0.00
  -18   20   49      8.39      0.00
  -19   21   50     24.59      0.00
  -20   22   51      9.95      0.00
  -21   23   52    -10.41      0.00
  -22   24   53     10.09      0.00
  -23   25   54     -0.93      0.00
  -24   26   55     -7.94      0.00
  -25   27   56      8.30      0.00
  -32   35    2    -29.67      0.00
  -31   34    1      6.68      0.00
   -3   33    0     12.83      0.00
   -3   32    1      2.58      0.00
   -3   31    2    -17.65      0.00
   -3   30    3    -21.71      0.00
   -3   29    4      8.42      0.00
   -3   28    5     -3.71      0.00
   -3   27    6      2.18      0.00
   -3   26    7      7.40      0.00
   -3   25    8      0.59      0.00
   -3   24    9      6.64      0.00
   -3   23   10     -0.41      0.00
   -3   22   11      3.88      0.00
    0    3   33    -45.77      0.00
   -1    4   34      9.14      0.00
   -2    5   35     -2.32      0.00
   -3    6   36     37.95      0.00
   -4    7   37    -14.53      0.00
   -5    8   38      6.10      0.00
   -6    9   39    -24.78      0.00
   -7   10   40     12.57      0.00
   -8   11   41     -4.00      0.00
   -9   12   42     15.76      0.00
  -10   13   43    -14.65      0.00
  -11   14   44    -13.03      0.00
  -12   15   45      2.10      0.00
  -13   16   46      8.02      0.00
  -14   17   47    -10.79      0.00
  -15   18   48    -12.42      0.00
  -16   19   49      0.25      0.00
  -17   20   50     11.91      0.00
  -18   21   51      8.46      0.00
  -19   22   52    -25.34      0.00
  -20   23   53     -0.05      0.00
  -21   24   54     -9.21      0.00
  -22   25   55      7.97      0.00
  -23   26   56     -8.92      0.00
  -24   27   57      4.98      0.00
   -4   35    0     -3.72      0.00
   -4   34    1     15.15      0.00
   -4   33    2    -26.28      0.00
   -4   32    3    -15.66      0.00
   -4   31    4      4.49      0.00
   -4   30    5    -15.73      0.00
   -4   29    6      2.93      0.00
   -4   28    7     -1.16      0.00
   -4   27    8    -25.69      0.00
   -4   26    9      0.35      0.00
   -4   25   10     -2.71      0.00
   -4   24   11     11.56      0.00
   -4   23   12     -3.78      0.00
    0    4   35     -1.43      0.00
   -1    5   36     -2.91      0.00
   -2    6   37     -1.71      0.00
   -3    7   38     16.72      0.00
   -4    8   39     -2.27      0.00
   -5    9   40      5.75      0.00
   -6   10   41    -14.95      0.00
   -7   11   42      5.17      0.00
   -8   12   43     -2.06      0.00
   -9   13   44     -0.04      0.00
  -10   14   45      5.42      0.00
  -11   15   46     -2.71      0.00
  -12   16   47     19.15      0.00
  -13   17   48     -1.33      0.00
  -14   18   49      5.07      0.00
  -15   19   50      7.56      0.00
  -16   20   51      3.34      0.00
  -17   21   52      2.29      0.00
  -18   22   53    -13.63      0.00
  -19   23   54    -35.19      0.00
  -20   24   55     -7.31      0.00
  -21   25   56     -9.82      0.00
  -22   26   57     -1.63      0.00
  -23   27   58     15.66      0.00
   -5   36    1     26.02      0.00
   -5   35    2     -7.01      0.00
   -5   34    3    -36.05      0.00
   -5   33    4    -15.26      0.00
   -5   32    5     -0.53      0.00
   -5   31    6     -4.36      0.00
   -5   30    7     -7.57      0.00
   -5   29    8     13.69      0.00
   -5   28    9      2.26      0.00
   -5   27   10     22.92      0.00
   -5   26   11      3.90      0.00
   -5   25   12    -14.54      0.00
   -5   24   13      1.04      0.00
    0    5   37     12.60      0.00
   -1    6   38      0.71      0.00
   -2    7   39     -6.72      0.00
   -3    8   40     -5.10      0.00
   -4    9   41      6.35      0.00
   -5   10   42      9.60      0.00
   -6   11   43      4.40      0.00
   -7   12   44     15.49      0.00
   -8   13   45      1.61      0.00
   -9   14   46     -2.44      0.00
  -10   15   47      4.68      0.00
  -11   16   48     -2.31      0.00
  -12   17   49      3.67      0.00
  -13   18   50      5.29      0.00
  -14   19   51      2.75      0.00
  -15   20   52     13.16      0.00
  -16   21   53     19.61      0.00
  -17   22   54     -1.86      0.00
  -18   23   55     -2.18      0.00
  -19   24   56     -9.05      0.00
  -20   25   57     10.35      0.00
  -21   26   58     13.32      0.00
  -22   27   59     10.73      0.00
   -6   36    3      2.19      0.00
   -6   35    4    -11.22      0.00
   -6   34    5    -25.49      0.00
   -6   33    6     -5.11      0.00
   -6   32    7    -10.39      0.00
   -6   31    8      8.91      0.00
   -6   30    9      7.26      0.00
   -6   29   10    -19.35      0.00
   -6   28   11     -2.38      0.00
   -6   27   12     -6.48      0.00
   -6   26   13     -8.73      0.00
   -6   25   14      5.66      0.00
    0    6   39    -13.30      0.00
   -1    7   40      7.66      0.00
   -2    8   41     12.97      0.00
   -3    9   42     14.49      0.00
   -4   10   43      2.35      0.00
   -5   11   44     -2.56      0.00
   -6   12   45     -8.50      0.00
   -7   13   46      3.85      0.00
   -8   14   47      0.56      0.00
   -9   15   48     -5.64      0.00
  -10   16   49      3.13      0.00
  -11   17   50     -5.31      0.00
  -12   18   51     -4.79      0.00
  -13   19   52     14.08      0.00
  -14   20   53     -3.94      0.00
  -15   21   54     11.73      0.00
  -16   22   55      1.76      0.00
  -17   23   56    -10.38      0.00
  -18   24   57      3.40      0.00
  -19   25   58     -5.90      0.00
  -20   26   59     10.82      0.00
  -21   27   60      7.50      0.00
   -7   36    5      7.23      0.00
   -7   35    6     12.68      0.00
   -7   34    7      5.08      0.00
   -7   33    8     -0.77      0.00
   -7   32    9    -17.02      0.00
   -7   31   10    -11.92      0.00
   -7   30   11     13.49      0.00
   -7   29   12    -11.97      0.00
   -7   28   13      3.64      0.00
   -7   27   14     -3.17      0.00
   -7   26   15     -1.97      0.00
    0    7   41    -17.10      0.00
   -1    8   42     -0.53      0.00
   -2    9   43     -9.74      0.00
   -3   10   44      8.29      0.00
   -4   11   45     -2.44      0.00
   -5   12   46     -1.84      0.00
   -6   13   47    -11.59      0.00
   -7   14   48     -6.77      0.00
   -8   15   49     10.13      0.00
   -9   16   50      6.23      0.00
  -10   17   51     -2.69      0.00
  -11   18   52     -0.22      0.00
  -12   19   53      7.37      0.00
  -13   20   54     10.10      0.00
  -14   21   55     10.70      0.00
  -15   22   56      8.92      0.00
  -16   23   57     12.62      0.00
  -17   24   58     21.71      0.00
  -18   25   59      6.89      0.00
  -19   26   60    -11.35      0.00
  -20   27   61     -8.06      0.00
   -8   37    6     14.18      0.00
   -8   36    7      2.77      0.00
   -8   35    8     15.53      0.00
   -8   34    9     10.00      0.00
   -8   33   10      3.90      0.00
   -8   32   11     -8.02      0.00
   -8   31   12     10.92      0.00
   -8   30   13      1.02      0.00
   -8   29   14     15.07      0.00
   -8   28   15      9.17      0.00
   -8   27   16      3.42      0.00
    0    8   43      0.55      0.00
   -1    9   44      6.81      0.00
   -2   10   45      2.24      0.00
   -3   11   46     -5.19      0.00
   -4   12   47      3.86      0.00
   -5   13   48    -10.61      0.00
   -6   14   49      3.59      0.00
   -7   15   50     -2.01      0.00
   -8   16   51      2.00      0.00
   -9   17   52      4.56      0.00
  -10   18   53    -13.51      0.00
  -11   19   54      8.33      0.00
  -12   20   55     -1.19      0.00
  -13   21   56     13.57      0.00
  -14   22   57     -3.97      0.00
  -15   23   58     -1.84      0.00
  -16   24   59     -5.01      0.00
  -17   25   60     -1.11      0.00
  -18   26   61    -11.47      0.00
  -19   27   62     -3.06      0.00
   -9   37    8      6.81      0.00
   -9   36    9     -5.09      0.00
   -9   35   10     -2.65      0.00
   -9   34   11    -23.20      0.00
   -9   33   12    -12.91      0.00
   -9   32   13     -0.26      0.00
   -9   31   14     -8.98      0.00
   -9   30   15     -6.10      0.00
   -9   29   16     -4.20      0.00
   -9   28   17     -5.99      0.00
    0    9   45      6.60      0.00
   -1   10   46     11.27      0.00
   -2   11   47      5.65      0.00
   -3   12   48     -3.12      0.00
   -4   13   49    -11.92      0.00
   -5   14   50     -6.61      0.00
   -6   15   51      1.95      0.00
   -7   16   52     -2.70      0.00
   -8   17   53     -3.00      0.00
   -9   18   54      1.72      0.00
  -10   19   55     -8.02      0.00
  -11   20   56      7.19      0.00
  -12   21   57     12.54      0.00
  -13   22   58     -0.44      0.00
  -14   23   59     16.23      0.00
  -15   24   60     20.49      0.00
  -16   25   61     -9.74      0.00
  -17   26   62      7.37      0.00
  -18   27   63     -0.83      0.00
  -10   37   10      0.28      0.00
  -10   36   11      8.54      0.00
  -10   35   12      7.11      0.00
  -10   34   13      5.02      0.00
  -10   33   14      4.85      0.00
  -10   32   15    -15.63      0.00
  -10   31   16    -13.64      0.00
  -10   30   17     -4.57      0.00
  -10   29   18      0.43      0.00
    0   10   47    -21.46      0.00
   -1   11   48    -11.86      0.00
   -2   12   49      7.80      0.00
   -3   13   50     -4.30      0.00
   -4   14   51     -1.18      0.00
   -5   15   52      8.79      0.00
   -6   16   53     -2.21      0.00
   -7   17   54      1.44      0.00
   -8   18   55     -7.27      0.00
   -9   19   56     -9.87      0.00
  -10   20   57     -3.69      0.00
  -11   21   58      0.97      0.00
  -12   22   59      2.09      0.00
  -13   23   60     -2.07      0.00
  -14   24   61     15.82      0.00
  -15   25   62      2.85      0.00
  -16   26   63      0.71      0.00
  -17   27   64     21.44      0.00
  -11   37   12     24.74      0.00
  -11   36   13      9.28      0.00
  -11   35   14      5.44      0.00
  -11   34   15     15.45      0.00
  -11   33   16     17.60      0.00
  -11   32   17     13.90      0.00
  -11   31   18      7.00      0.00
  -11   30   19     20.98      0.00
    0   11   49      5.65      0.00
   -1   12   50      8.14      0.00
   -2   13   51      8.96      0.00
   -3   14   52      2.75      0.00
   -4   15   53      2.64      0.00
   -5   16   54      3.26      0.00
   -6   17   55      5.79      0.00
   -7   18   56      7.81      0.00
   -8   19   57     -6.33      0.00
   -9   20   58     11.81      0.00
  -10   21   59      7.11      0.00
  -11   22   60      3.43      0.00
  -12   23   61     -5.78      0.00
  -13   24   62     -1.42      0.00
  -14   25   63     -5.46      0.00
  -15   26   64     -1.30      0.00
  -12   37   14     17.51      0.00
  -12   36   15    -12.39      0.00
  -12   35   16      1.08      0.00
  -12   34   17      1.41      0.00
  -12   33   18    -11.71      0.00
  -12   32   19    -17.04      0.00
  -12   31   20      0.05      0.00
    0   12   51     -3.15      0.00
   -1   13   52      0.21      0.00
   -2   14   53      0.36      0.00
   -3   15   54      2.88      0.00
   -4   16   55     -9.81      0.00
   -5   17   56      0.34      0.00
   -6   18   57     -2.81      0.00
   -7   19   58     -9.19      0.00
   -8   20   59      0.13      0.00
   -9   21   60      2.93      0.00
  -10   22   61     -7.14      0.00
  -11   23   62      6.67      0.00
  -12   24   63     -2.62      0.00
  -13   25   64      7.23      0.00
  -14   26   65     13.75      0.00
  -13   37   16     13.03      0.00
  -13   36   17     -7.80      0.00
  -13   35   18     22.98      0.00
  -13   34   19      6.26      0.00
  -13   33   20     -6.36      0.00
  -13   32   21      1.65      0.00
    0   13   53     13.86      0.00
   -1   14   54      1.02      0.00
   -2   15   55      1.08      0.00
   -3   16   56      9.90      0.00
   -4   17   57     -2.83      0.00
   -5   18   58    -20.03      0.00
   -6   19   59     -7.06      0.00
   -7   20   60      1.89      0.00
   -8   21   61    -11.00      0.00
   -9   22   62      9.32      0.00
  -10   23   63     13.91      0.00
  -11   24   64     15.81      0.00
  -12   25   65      1.57      0.00
  -13   26   66     -4.99      0.00
  -14   37   18     33.36      0.00
  -14   36   19      0.04      0.00
  -14   35   20      0.29      0.00
  -14   34   21     13.15      0.00
  -14   33   22     -7.63      0.00
    0   14   55     15.39      0.00
   -1   15   56      2.23      0.00
   -2   16   57      2.23      0.00
   -3   17   58     -0.29      0.00
   -4   18   59     -7.63      0.00
   -5   19   60     -4.29      0.00
   -6   20   61      0.04      0.00
   -7   21   62      2.74      0.00
   -8   22   63    -12.69      0.00
   -9   23   64      9.43      0.00
  -10   24   65      6.08      0.00
  -11   25   66      9.24      0.00
  -15   37   20      6.92      0.00
  -15   36   21     -3.80      0.00
  -15   35   22     19.85      0.00
  -15   34   23     -8.97      0.00
    0   15   57     -4.29      0.00
   -1   16   58    -12.83      0.00
   -2   17   59      4.11      0.00
   -3   18   60     14.85      0.00
   -4   19   61      6.70      0.00
   -5   20   62     13.90      0.00
   -6   21   63      3.96      0.00
   -7   22   64     10.12      0.00
   -8   23   65     -1.18      0.00
   -9   24   66     -6.08      0.00
  -10   25   67      2.16      0.00
  -16   37   22     -3.71      0.00
  -16   36   23      1.18      0.00
  -16   35   24     -3.10      0.00
    0   16   59     -5.23      0.00
   -1   17   60     -9.29      0.00
   -2   18   61      2.56      0.00
   -3   19   62      3.70      0.00
   -4   20   63     -0.86      0.00
   -5   21   64     -4.91      0.00
   -6   22   65    -11.45      0.00
   -7   23   66      3.64      0.00
   -8   24   67    -10.67      0.00
   -9   25   68      2.68      0.00
  -17   37   24     20.93      0.00
  -17   36   25      6.72      0.00
    0   17   61    -11.81      0.00
   -1   18   62     -4.09      0.00
   -2   19   63      4.23      0.00
   -3   20   64      0.72      0.00
   -4   21   65     -0.11      0.00
   -5   22   66     -0.07      0.00
   -6   23   67    -13.09      0.00
   -7   24   68     -0.73      0.00
  -18   37   26     15.81      0.00
    0   18   63     -3.07      0.00
   -1   19   64     -2.33      0.00
   -2   20   65      2.85      0.00
   -3   21   66      2.11      0.00
   -4   22   67    -17.71      0.00
   -5   23   68      8.39      0.00
   -6   24   69      9.67      0.00
    0   19   65      2.76      0.00
   -1   20   66    -12.53      0.00
   -2   21   67     -6.49      0.00
   -3   22   68      6.78      0.00
   -4   23   69     -1.80      0.00
    0   20   67     -9.09      0.00
   -1   21   68      4.76      0.00
   -2   22   69     13.73      0.00
    0   21   69      1.11      0.00
  -16   37   28     12.60      0.00
  -17   37   27     11.00      0.00
  -12   36   30    -15.26      0.00
  -13   36   29      2.96      0.00
  -14   36   28     -9.29      0.00
  -15   36   27     -8.06      0.00
  -16   36   26     -0.43      0.00
   -9   35   31    -12.16      0.00
  -10   35   30      4.76      0.00
  -11   35   29      3.88      0.00
  -12   35   28     -4.21      0.00
  -13   35   27      0.63      0.00
  -14   35   26     -5.14      0.00
  -15   35   25     18.46      0.00
   -6   34   32     -0.62      0.00
   -7   34   31     -8.44      0.00
   -8   34   30      1.42      0.00
   -9   34   29    -10.65      0.00
  -10   34   28     18.75      0.00
  -11   34   27     18.03      0.00
  -12   34   26     -9.77      0.00
  -13   34   25     -9.45      0.00
  -14   34   24      3.42      0.00
   -4   33   32     -9.57      0.00
   -5   33   31      0.47      0.00
   -6   33   30      5.76      0.00
   -7   33   29     -1.48      0.00
   -8   33   28     19.01      0.00
   -9   33   27     -3.21      0.00
  -10   33   26      3.44      0.00
  -11   33   25      2.60      0.00
  -12   33   24     10.25      0.00
  -13   33   23     -2.44      0.00
  -33   33    3      2.32      0.00
   -1   32   33     14.94      0.00
   -2   32   32     14.77      0.00
   -3   32   31      7.46      0.00
   -4   32   30     24.69      0.00
   -5   32   29     16.44      0.00
   -6   32   28     10.33      0.00
   -7   32   27     20.39      0.00
   -8   32   26     -0.06      0.00
   -9   32   25    -17.09      0.00
  -10   32   24      5.80      0.00
  -11   32   23      7.34      0.00
  -12   32   22    -25.87      0.00
  -32   32    2    -12.71      0.00
    0   31   32      4.91      0.00
   -1   31   31      7.63      0.00
   -2   31   30     10.79      0.00
   -3   31   29      3.99      0.00
   -4   31   28     17.81      0.00
   -5   31   27     25.73      0.00
   -6   31   26     20.51      0.00
   -7   31   25    -23.79      0.00
   -8   31   24    -21.54      0.00
   -9   31   23     -1.87      0.00
  -10   31   22    -11.67      0.00
  -11   31   21    -10.20      0.00
  -31   31    1     10.06      0.00
    0   30   30     -0.11      0.00
   -1   30   29    -20.21      0.00
   -2   30   28    -16.67      0.00
   -3   30   27      5.03      0.00
   -4   30   26     16.71      0.00
   -5   30   25     -3.38      0.00
   -6   30   24    -24.46      0.00
   -7   30   23      2.18      0.00
   -8   30   22     12.31      0.00
   -9   30   21    -16.56      0.00
  -10   30   20      5.02      0.00
    0   30    0      2.92      0.00
    0   29   28    -13.25      0.00
   -1   29   27    -21.12      0.00
   -2   29   26     24.84      0.00
   -3   29   25      8.62      0.00
   -4   29   24    -15.86      0.00
   -5   29   23    -28.67      0.00
   -6   29   22     -2.70      0.00
   -7   29   21      4.18      0.00
   -8   29   20    -14.81      0.00
   -9   29   19    -18.89      0.00
    0   29    1     16.75      0.00
    0   28   26     17.57      0.00
   -1   28   25     -5.95      0.00
   -2   28   24     -7.27      0.00
   -3   28   23    -22.44      0.00
   -4   28   22    -13.50      0.00
   -5   28   21      5.26      0.00
   -6   28   20      2.20      0.00
   -7   28   19    -13.44      0.00
   -8   28   18     -8.47      0.00
    0   28    2     -4.80      0.00
    0   27   24     13.74      0.00
   -1   27   23    -13.19      0.00
   -2   27   22     -4.72      0.00
   -3   27   21      8.97      0.00
   -4   27   20      8.56      0.00
   -5   27   19    -10.58      0.00
   -6   27   18      3.94      0.00
   -7   27   17     -8.92      0.00
    0   27    3     -3.42      0.00
    0   26   22    -18.45      0.00
   -1   26   21    -16.34      0.00
   -2   26   20      8.58      0.00
   -3   26   19     -6.22      0.00
   -4   26   18    -34.40      0.00
   -5   26   17    -12.08      0.00
   -6   26   16      5.04      0.00
    0   26    4      8.90      0.00
    0   25   20      6.40      0.00
   -1   25   19    -14.97      0.00
   -2   25   18      0.62      0.00
   -3   25   17     -5.86      0.00
   -4   25   16    -16.28      0.00
   -5   25   15      3.46      0.00
    0   25    5     -3.67      0.00
    0   24   18      6.18      0.00
   -1   24   17      5.06      0.00
   -2   24   16     -1.19      0.00
   -3   24   15      4.78      0.00
   -4   24   14     16.12      0.00
    0   24    6      1.71      0.00
    0   23   16     30.07      0.00
   -1   23   15      5.46      0.00
   -2   23   14     13.69      0.00
   -3   23   13      3.18      0.00
    0   23    7     -3.87      0.00
    0   22   14     14.26      0.00
   -1   22   13     -3.67      0.00
   -2   22   12    -12.90      0.00
    0   22    8     -7.68      0.00
    0   21   12     -3.96      0.00
   -1   21   11      7.07      0.00
    0   20   10     14.53      0.00
    0   21    9    -19.22      0.00
    0    0   30     32.78      0.00
   -1    1   31    -29.85      0.00
   -2    2   32      5.02      0.00
   -3    3   33     -7.65      0.00
   -4    4   34      4.08      0.00
   -5    5   35     16.62      0.00
   -6    6   36     22.94      0.00
   -7    7   37    -29.29      0.00
   -8    8   38     -4.93      0.00
   -9    9   39     -1.91      0.00
  -10   10   40     11.17      0.00
  -11   11   41      3.86      0.00
  -12   12   42      0.86      0.00
  -13   13   43     -5.73      0.00
  -14   14   44     -4.12      0.00
  -15   15   45     -7.99      0.00
  -16   16   46      1.39      0.00
  -17   17   47      1.26      0.00
  -18   18   48    -13.83      0.00
  -19   19   49      2.49      0.00
  -20   20   50     -1.85      0.00
  -21   21   51     -5.45      0.00
  -22   22   52     -8.18      0.00
  -23   23   53      6.23      0.00
  -24   24   54      0.84      0.00
  -25   25   55    -17.47      0.00
  -26   26   56     10.81      0.00
  -33   34    2     -4.12      0.00
  -32   33    1     10.96      0.00
   -1   32    0      6.50      0.00
   -1   31    1     14.70      0.00
   -1   30    2     -5.14      0.00
   -1   29    3     -5.94      0.00
   -1   28    4     -8.04      0.00
   -1   27    5      4.72      0.00
   -1   26    6     -0.72      0.00
   -1   25    7      5.48      0.00
   -1   24    8    -16.95      0.00
   -1   23    9     -4.80      0.00
   -1   22   10     -2.28      0.00
    0    1   32    -26.02      0.00
   -1    2   33     13.59      0.00
   -2    3   34     27.83      0.00
   -3    4   35      0.91      0.00
   -4    5   36     -8.51      0.00
   -5    6   37     -9.67      0.00
   -6    7   38      4.86      0.00
   -7    8   39      1.18      0.00
   -8    9   40      4.08      0.00
   -9   10   41     -2.43      0.00
  -10   11   42      4.01      0.00
  -11   12   43      4.44      0.00
  -12   13   44    -10.98      0.00
  -13   14   45     -2.23      0.00
  -14   15   46      3.32      0.00
  -15   16   47    -11.93      0.00
  -16   17   48      1.10      0.00
  -17   18   49     -5.78      0.00
  -18   19   50     -7.57      0.00
  -19   20   51    -12.45      0.00
  -20   21   52     -5.11      0.00
  -21   22   53     -6.06      0.00
  -22   23   54      7.01      0.00
  -23   24   55      8.45      0.00
  -24   25   56     -4.79      0.00
  -25   26   57     -3.25      0.00
   -2   34    0    -15.59      0.00
   -2   33    1     36.01      0.00
   -2   32    2     16.18      0.00
   -2   31    3     -2.63      0.00
   -2   30    4     -6.79      0.00
   -2   29    5     -1.20      0.00
   -2   28    6     22.76      0.00
   -2   27    7    -23.33      0.00
   -2   26    8      4.86      0.00
   -2   25    9      2.20      0.00
   -2   24   10      0.53      0.00
   -2   23   11     23.46      0.00
    0    2   34     -9.84      0.00
   -1    3   35     -3.35      0.00
   -2    4   36     -8.75      0.00
   -3    5   37     -3.12      0.00
   -4    6   38     -7.00      0.00
   -5    7   39      1.76      0.00
   -6    8   40      7.73      0.00
   -7    9   41    -10.26      0.00
   -8   10   42      0.77      0.00
   -9   11   43      6.05      0.00
  -10   12   44      1.80      0.00
  -11   13   45     -4.89      0.00
  -12   14   46     -9.22      0.00
  -13   15   47     12.24      0.00
  -14   16   48     -8.38      0.00
  -15   17   49     -3.86      0.00
  -16   18   50      5.31      0.00
  -17   19   51      7.98      0.00
  -18   20   52     -1.37      0.00
  -19   21   53     16.79      0.00
  -20   22   54      0.47      0.00
  -21   23   55     12.94      0.00
  -22   24   56      3.88      0.00
  -23   25   57    -21.74      0.00
  -24   26   58      2.84      0.00
   -3   35    1     10.25      0.00
   -3   34    2      5.23      0.00
   -3   33    3     36.37      0.00
   -3   32    4      9.16      0.00
   -3   31    5     -8.39      0.00
   -3   30    6    -15.22      0.00
   -3   29    7      1.80      0.00
   -3   28    8     -6.37      0.00
   -3   27    9    -24.24      0.00
   -3   26   10      8.44      0.00
   -3   25   11      2.63      0.00
   -3   24   12      1.40      0.00
    0    3   36     17.01      0.00
   -1    4   37     -1.83      0.00
   -2    5   38     19.41      0.00
   -3    6   39    -25.43      0.00
   -4    7   40     15.39      0.00
   -5    8   41      0.69      0.00
   -6    9   42     17.90      0.00
   -7   10   43    -16.18      0.00
   -8   11   44      3.52      0.00
   -9   12   45    -18.33      0.00
  -10   13   46      4.31      0.00
  -11   14   47      8.45      0.00
  -12   15   48      6.81      0.00
  -13   16   49      3.89      0.00
  -14   17   50     -2.92      0.00
  -15   18   51    -10.42      0.00
  -16   19   52      2.36      0.00
  -17   20   53     -0.20      0.00
  -18   21   54     -7.32      0.00
  -19   22   55    -16.43      0.00
  -20   23   56     -2.88      0.00
  -21   24   57      4.13      0.00
  -22   25   58     -1.84      0.00
  -23   26   59     -3.78      0.00
   -4   35    3     13.72      0.00
   -4   34    4    -14.38      0.00
   -4   33    5      9.44      0.00
   -4   32    6     25.46      0.00
   -4   31    7    -12.48      0.00
   -4   30    8      0.05      0.00
   -4   29    9    -23.95      0.00
   -4   28   10     -3.21      0.00
   -4   27   11      2.85      0.00
   -4   26   12     -9.91      0.00
   -4   25   13     12.17      0.00
    0    4   38     -3.12      0.00
   -1    5   39      4.73      0.00
   -2    6   40     -2.19      0.00
   -3    7   41      0.29      0.00
   -4    8   42     -8.38      0.00
   -5    9   43     10.43      0.00
   -6   10   44      4.09      0.00
   -7   11   45      5.35      0.00
   -8   12   46      5.83      0.00
   -9   13   47     -2.88      0.00
  -10   14   48     -3.49      0.00
  -11   15   49     18.71      0.00
  -12   16   50      0.62      0.00
  -13   17   51     12.01      0.00
  -14   18   52      8.16      0.00
  -15   19   53     -8.03      0.00
  -16   20   54     -1.52      0.00
  -17   21   55     -2.20      0.00
  -18   22   56    -21.92      0.00
  -19   23   57    -10.08      0.00
  -20   24   58     -0.41      0.00
  -21   25   59     -6.30      0.00
  -22   26   60      8.15      0.00
   -5   36    4    -11.65      0.00
   -5   35    5     20.15      0.00
   -5   34    6    -25.45      0.00
   -5   33    7     -5.06      0.00
   -5   32    8     25.85      0.00
   -5   31    9      6.20      0.00
   -5   30   10    -21.96      0.00
   -5   29   11    -13.57      0.00
   -5   28   12     -4.56      0.00
   -5   27   13      3.97      0.00
   -5   26   14     -3.30      0.00
    0    5   40     -6.06      0.00
   -1    6   41     -4.23      0.00
   -2    7   42     -9.69      0.00
   -3    8   43     13.27      0.00
   -4    9   44     -5.22      0.00
   -5   10   45     -0.49      0.00
   -6   11   46     -0.17      0.00
   -7   12   47      6.82      0.00
   -8   13   48     -1.60      0.00
   -9   14   49      0.80      0.00
  -10   15   50     -3.48      0.00
  -11   16   51      4.79      0.00
  -12   17   52      3.26      0.00
  -13   18   53      6.16      0.00
  -14   19   54     -1.72      0.00
  -15   20   55     -9.76      0.00
  -16   21   56      2.37      0.00
  -17   22   57      5.58      0.00
  -18   23   58      4.05      0.00
  -19   24   59      2.38      0.00
  -20   25   60     20.88      0.00
  -21   26   61      9.76      0.00
   -6   36    6     18.68      0.00
   -6   35    7     11.50      0.00
   -6   34    8     -3.70      0.00
   -6   33    9      3.20      0.00
   -6   32   10     15.29      0.00
   -6   31   11     -1.86      0.00
   -6   30   12      3.77      0.00
   -6   29   13     -5.26      0.00
   -6   28   14      6.85      0.00
   -6   27   15      0.41      0.00
    0    6   42     17.11      0.00
   -1    7   43      4.86      0.00
   -2    8   44     -0.09      0.00
   -3    9   45    -21.67      0.00
   -4   10   46      1.54      0.00
   -5   11   47      6.58      0.00
   -6   12   48     -0.13      0.00
   -7   13   49     -2.19      0.00
   -8   14   50    -14.04      0.00
   -9   15   51    -11.47      0.00
  -10   16   52      5.05      0.00
  -11   17   53     -2.84      0.00
  -12   18   54      6.23      0.00
  -13   19   55     -1.86      0.00
  -14   20   56     -6.29      0.00
  -15   21   57     -0.86      0.00
  -16   22   58      4.27      0.00
  -17   23   59     -2.57      0.00
  -18   24   60     -0.98      0.00
  -19   25   61     -1.28      0.00
  -20   26   62     13.62      0.00
   -7   36    8      6.06      0.00
   -7   35    9     -5.81      0.00
   -7   34   10     -2.52      0.00
   -7   33   11      8.80      0.00
   -7   32   12     -0.01      0.00
   -7   31   13    -11.03      0.00
   -7   30   14     -9.01      0.00
   -7   29   15     -2.86      0.00
   -7   28   16      3.02      0.00
    0    7   44      3.13      0.00
   -1    8   45     -2.87      0.00
   -2    9   46     -9.89      0.00
   -3   10   47     -5.08      0.00
   -4   11   48     -8.20      0.00
   -5   12   49     -3.35      0.00
   -6   13   50     -4.33      0.00
   -7   14   51      6.67      0.00
   -8   15   52     -2.78      0.00
   -9   16   53      2.63      0.00
  -10   17   54      7.87      0.00
  -11   18   55    -13.66      0.00
  -12   19   56     10.88      0.00
  -13   20   57     -0.27      0.00
  -14   21   58     -6.46      0.00
  -15   22   59     -5.46      0.00
  -16   23   60      5.75      0.00
  -17   24   61     -0.05      0.00
  -18   25   62      3.69      0.00
  -19   26   63    -20.63      0.00
   -8   37    9      5.71      0.00
   -8   36   10    -13.91      0.00
   -8   35   11     -0.81      0.00
   -8   34   12     -4.35      0.00
   -8   33   13     23.50      0.00
   -8   32   14      4.33      0.00
   -8   31   15     -9.75      0.00
   -8   30   16     -5.25      0.00
   -8   29   17     11.39      0.00
    0    8   46     -0.67      0.00
   -1    9   47      1.18      0.00
   -2   10   48     -1.04      0.00
   -3   11   49      0.86      0.00
   -4   12   50     -8.04      0.00
   -5   13   51     13.38      0.00
   -6   14   52     -2.11      0.00
   -7   15   53      6.59      0.00
   -8   16   54      1.31      0.00
   -9   17   55    -13.60      0.00
  -10   18   56     -2.02      0.00
  -11   19   57      7.11      0.00
  -12   20   58     11.26      0.00
  -13   21   59      2.52      0.00
  -14   22   60      3.11      0.00
  -15   23   61     -0.61      0.00
  -16   24   62     -2.05      0.00
  -17   25   63    -25.54      0.00
  -18   26   64     10.37      0.00
   -9   37   11    -11.45      0.00
   -9   36   12    -23.32      0.00
   -9   35   13    -14.97      0.00
   -9   34   14    -40.86      0.00
   -9   33   15      0.96      0.00
   -9   32   16    -37.05      0.00
   -9   31   17    -13.80      0.00
   -9   30   18     -3.86      0.00
    0    9   48     18.78      0.00
   -1   10   49     -5.44      0.00
   -2   11   50     -4.58      0.00
   -3   12   51      0.16      0.00
   -4   13   52      5.04      0.00
   -5   14   53     11.26      0.00
   -6   15   54     -3.05      0.00
   -7   16   55      2.76      0.00
   -8   17   56      0.08      0.00
   -9   18   57    -29.59      0.00
  -10   19   58      0.82      0.00
  -11   20   59     11.18      0.00
  -12   21   60    -14.87      0.00
  -13   22   61     -9.45      0.00
  -14   23   62      1.40      0.00
  -15   24   63      5.67      0.00
  -16   25   64     15.07      0.00
  -17   26   65      6.58      0.00
  -10   37   13    -10.35      0.00
  -10   36   14    -15.74      0.00
  -10   35   15    -19.08      0.00
  -10   34   16     -8.89      0.00
  -10   33   17     19.12      0.00
  -10   32   18      0.85      0.00
  -10   31   19     10.31      0.00
    0   10   50     -5.32      0.00
   -1   11   51      7.83      0.00
   -2   12   52      7.08      0.00
   -3   13   53    -18.19      0.00
   -4   14   54      8.95      0.00
   -5   15   55      1.78      0.00
   -6   16   56      7.82      0.00
   -7   17   57      5.40      0.00
   -8   18   58      0.96      0.00
   -9   19   59     -1.09      0.00
  -10   20   60     16.06      0.00
  -11   21   61     13.67      0.00
  -12   22   62     -2.91      0.00
  -13   23   63      5.65      0.00
  -14   24   64     11.64      0.00
  -15   25   65     -9.73      0.00
  -16   26   66     -1.04      0.00
  -11   37   15     16.06      0.00
  -11   36   16     -7.31      0.00
  -11   35   17      1.24      0.00
  -11   34   18     -3.78      0.00
  -11   33   19     18.51      0.00
  -11   32   20    -15.32      0.00
    0   11   52    -12.52      0.00
   -1   12   53      0.35      0.00
   -2   13   54     -9.77      0.00
   -3   14   55     -0.93      0.00
   -4   15   56     -0.57      0.00
   -5   16   57     10.87      0.00
   -6   17   58     -6.59      0.00
   -7   18   59      6.26      0.00
   -8   19   60      0.22      0.00
   -9   20   61     -2.16      0.00
  -10   21   62      2.89      0.00
  -11   22   63      0.60      0.00
  -12   23   64     -9.33      0.00
  -13   24   65     -6.17      0.00
  -14   25   66     -8.09      0.00
  -12   37   17      4.68      0.00
  -12   36   18    -13.23      0.00
  -12   35   19    -12.20      0.00
  -12   34   20      2.93      0.00
  -12   33   21    -12.27      0.00
    0   12   54     -5.37      0.00
   -1   13   55      1.57      0.00
   -2   14   56      8.96      0.00
   -3   15   57    -14.64      0.00
   -4   16   58     -1.14      0.00
   -5   17   59     -7.70      0.00
   -6   18   60     -5.94      0.00
   -7   19   61      6.01      0.00
   -8   20   62      4.32      0.00
   -9   21   63     -9.32      0.00
  -10   22   64      5.54      0.00
  -11   23   65     -0.22      0.00
  -12   24   66    -15.37      0.00
  -13   25   67      1.44      0.00
  -13   37   19     14.73      0.00
  -13   36   20     -2.51      0.00
  -13   35   21    -12.34      0.00
  -13   34   22    -28.19      0.00
    0   13   56     -2.35      0.00
   -1   14   57      9.95      0.00
   -2   15   58     -4.67      0.00
   -3   16   59      4.26      0.00
   -4   17   60     -4.86      0.00
   -5   18   61    -10.09      0.00
   -6   19   62    -10.50      0.00
   -7   20   63     -3.54      0.00
   -8   21   64     -1.67      0.00
   -9   22   65    -14.94      0.00
  -10   23   66     12.77      0.00
  -11   24   67      4.11      0.00
  -12   25   68     -0.08      0.00
  -14   37   21     17.58      0.00
  -14   36   22     -4.84      0.00
  -14   35   23      6.94      0.00
    0   14   58     -1.74      0.00
   -1   15   59     -0.27      0.00
   -2   16   60     -4.85      0.00
   -3   17   61     -5.22      0.00
   -4   18   62    -10.25      0.00
   -5   19   63      5.88      0.00
   -6   20   64      5.01      0.00
   -7   21   65     -0.43      0.00
   -8   22   66     -6.71      0.00
   -9   23   67      0.68      0.00
  -10   24   68     -2.08      0.00
  -15   37   23     -0.69      0.00
  -15   36   24    -13.74      0.00
    0   15   60     -2.95      0.00
   -1   16   61    -16.67      0.00
   -2   17   62     -7.77      0.00
   -3   18   63      1.48      0.00
   -4   19   64      9.29      0.00
   -5   20   65      2.19      0.00
   -6   21   66      6.20      0.00
   -7   22   67     12.06      0.00
   -8   23   68      5.98      0.00
   -9   24   69     -9.38      0.00
  -16   37   25     10.85      0.00
    0   16   62     -6.89      0.00
   -1   17   63      6.82      0.00
   -2   18   64     12.30      0.00
   -3   19   65      0.90      0.00
   -4   20   66      4.29      0.00
   -5   21   67    -14.58      0.00
   -6   22   68    -11.68      0.00
   -7   23   69     -6.57      0.00
   -8   24   70     -9.75      0.00
    0   17   64     25.99      0.00
   -1   18   65      3.52      0.00
   -2   19   66     -1.52      0.00
   -3   20   67     -5.35      0.00
   -4   21   68    -23.38      0.00
   -5   22   69    -23.47      0.00
   -6   23   70     -1.90      0.00
    0   18   66      7.69      0.00
   -1   19   67      2.80      0.00
   -2   20   68      6.99      0.00
   -3   21   69     -2.12      0.00
   -4   22   70     -5.38      0.00
    0   19   68     21.43      0.00
   -1   20   69      3.47      0.00
   -2   21   70     -3.67      0.00
   -3   22   71     -3.69      0.00
    0   20   70     16.70      0.00
   -1   21   71    -16.65      0.00
  -15   37   26      0.70      0.00
  -11   36   28     -7.36      0.00
  -12   36   27      8.48      0.00
  -13   36   26    -17.09      0.00
  -14   36   25     -2.69      0.00
   -8   35   29     11.17      0.00
   -9   35   28      3.42      0.00
  -10   35   27     -9.01      0.00
  -11   35   26     21.72      0.00
  -12   35   25      3.46      0.00
  -13   35   24      9.81      0.00
   -5   34   30    -12.89      0.00
   -6   34   29     -0.05      0.00
   -7   34   28     18.19      0.00
   -8   34   27     12.74      0.00
   -9   34   26     -3.17      0.00
  -10   34   25     12.00      0.00
  -11   34   24     28.23      0.00
  -12   34   23     31.92      0.00
   -3   33   30     -2.72      0.00
   -4   33   29     10.50      0.00
   -5   33   28     -1.26      0.00
   -6   33   27      4.26      0.00
   -7   33   26      8.90      0.00
   -8   33   25    -11.42      0.00
   -9   33   24    -16.02      0.00
  -10   33   23      3.31      0.00
  -11   33   22     29.67      0.00
   -1   32   30    -13.04      0.00
   -2   32   29      7.51      0.00
   -3   32   28     -5.49      0.00
   -4   32   27     30.37      0.00
   -5   32   26     24.86      0.00
   -6   32   25     19.71      0.00
   -7   32   24     -1.98      0.00
   -8   32   23     -0.69      0.00
   -9   32   22     -9.31      0.00
  -10   32   21     32.26      0.00
    0   31   29     -4.28      0.00
   -1   31   28      9.76      0.00
   -2   31   27     16.59      0.00
   -3   31   26     13.98      0.00
   -4   31   25     29.47      0.00
   -5   31   24     -4.50      0.00
   -6   31   23      1.29      0.00
   -7   31   22    -20.66      0.00
   -8   31   21     20.68      0.00
   -9   31   20      3.07      0.00
    0   30   27     -2.87      0.00
   -1   30   26     27.07      0.00
   -2   30   25      3.70      0.00
   -3   30   24      8.71      0.00
   -4   30   23     15.14      0.00
   -5   30   22     -0.50      0.00
   -6   30   21      0.94      0.00
   -7   30   20      8.14      0.00
   -8   30   19     10.59      0.00
    0   29   25     11.47      0.00
   -1   29   24      0.77      0.00
   -2   29   23     20.29      0.00
   -3   29   22     -7.80      0.00
   -4   29   21     19.28      0.00
   -5   29   20      2.99      0.00
   -6   29   19     19.99      0.00
   -7   29   18     13.27      0.00
    0   28   23     18.08      0.00
   -1   28   22     17.64      0.00
   -2   28   21     41.74      0.00
   -3   28   20      3.46      0.00
   -4   28   19      2.35      0.00
   -5   28   18      7.59      0.00
   -6   28   17     17.22      0.00
    0   27   21     28.89      0.00
   -1   27   20      9.44      0.00
   -2   27   19     -0.05      0.00
   -3   27   18    -11.85      0.00
   -4   27   17      0.66      0.00
   -5   27   16      0.27      0.00
    0   26   19      5.03      0.00
   -1   26   18    -31.03      0.00
   -2   26   17     24.80      0.00
   -3   26   16     -6.17      0.00
   -4   26   15    -26.12      0.00
    0   25   17     23.65      0.00
   -1   25   16      2.90      0.00
   -2   25   15      8.58      0.00
   -3   25   14    -15.84      0.00
    0   24   15      8.64      0.00
   -1   24   14    -18.88      0.00
   -2   24   13      0.32      0.00
    0   23   13     -1.19      0.00
   -1   23   12      1.97      0.00
    0   22   11      3.10      0.00
    0   33    0     12.23      0.00
    0   32    1     -0.94      0.00
    0   31    2     -3.19      0.00
    0   30    3     -7.80      0.00
    0   29    4      2.70      0.00
    0   28    5     -2.03      0.00
    0   27    6     -1.10      0.00
    0   26    7     13.78      0.00
    0   25    8    -11.07      0.00
    0   24    9     -7.51      0.00
    0   23   10     -8.70      0.00
    0    0   33    -44.06      0.00
   -1    1   34      6.16      0.00
   -2    2   35     30.20      0.00
   -3    3   36     -1.44      0.00
   -4    4   37     15.82      0.00
   -5    5   38    -12.38      0.00
   -6    6   39      1.48      0.00
   -7    7   40     -5.91      0.00
   -8    8   41      6.03      0.00
   -9    9   42      4.35      0.00
  -10   10   43     10.05      0.00
  -11   11   44     -6.16      0.00
  -12   12   45      4.01      0.00
  -13   13   46     -8.35      0.00
  -14   14   47     -3.72      0.00
  -15   15   48    -11.34      0.00
  -16   16   49     -6.18      0.00
  -17   17   50      1.33      0.00
  -18   18   51     -2.16      0.00
  -19   19   52     -4.68      0.00
  -20   20   53    -25.17      0.00
  -21   21   54     -8.95      0.00
  -22   22   55      8.69      0.00
  -23   23   56     22.12      0.00
  -24   24   57    -19.84      0.00
  -25   25   58      8.58      0.00
   -1   34    1     14.65      0.00
   -1   33    2     15.07      0.00
   -1   32    3      4.44      0.00
   -1   31    4     11.01      0.00
   -1   30    5    -11.64      0.00
   -1   29    6     22.07      0.00
   -1   28    7     -9.18      0.00
   -1   27    8     -8.17      0.00
   -1   26    9      1.38      0.00
   -1   25   10     -7.47      0.00
   -1   24   11    -11.24      0.00
    0    1   35      3.24      0.00
   -1    2   36    -14.40      0.00
   -2    3   37      7.08      0.00
   -3    4   38      1.68      0.00
   -4    5   39    -11.92      0.00
   -5    6   40     -5.38      0.00
   -6    7   41      1.46      0.00
   -7    8   42     -5.12      0.00
   -8    9   43      0.56      0.00
   -9   10   44      2.47      0.00
  -10   11   45      9.63      0.00
  -11   12   46     -2.64      0.00
  -12   13   47      5.07      0.00
  -13   14   48     -1.38      0.00
  -14   15   49    -16.29      0.00
  -15   16   50     -3.06      0.00
  -16   17   51      7.82      0.00
  -17   18   52      9.86      0.00
  -18   19   53     -3.43      0.00
  -19   20   54     -5.36      0.00
  -20   21   55      7.79      0.00
  -21   22   56      8.15      0.00
  -22   23   57      6.45      0.00
  -23   24   58     -3.69      0.00
  -24   25   59     -5.58      0.00
   -2   34    3     14.78      0.00
   -2   33    4      9.87      0.00
   -2   32    5     14.34      0.00
   -2   31    6     11.24      0.00
   -2   30    7    -24.10      0.00
   -2   29    8      9.25      0.00
   -2   28    9      0.14      0.00
   -2   27   10    -23.92      0.00
   -2   26   11     -0.33      0.00
   -2   25   12    -19.34      0.00
    0    2   37    -28.52      0.00
   -1    3   38      1.31      0.00
   -2    4   39     -0.18      0.00
   -3    5   40      6.58      0.00
   -4    6   41      2.83      0.00
   -5    7   42     -7.54      0.00
   -6    8   43      1.45      0.00
   -7    9   44      4.17      0.00
   -8   10   45      5.20      0.00
   -9   11   46      0.68      0.00
  -10   12   47      1.17      0.00
  -11   13   48    -13.46      0.00
  -12   14   49     11.32      0.00
  -13   15   50     -3.15      0.00
  -14   16   51      3.46      0.00
  -15   17   52      6.12      0.00
  -16   18   53     11.87      0.00
  -17   19   54      5.11      0.00
  -18   20   55    -10.51      0.00
  -19   21   56     -4.88      0.00
  -20   22   57     -2.65      0.00
  -21   23   58     -3.02      0.00
  -22   24   59     -8.67      0.00
  -23   25   60      5.61      0.00
   -3   35    4    -25.64      0.00
   -3   34    5      7.76      0.00
   -3   33    6     16.59      0.00
   -3   32    7      7.02      0.00
   -3   31    8      8.68      0.00
   -3   30    9    -38.61      0.00
   -3   29   10     28.33      0.00
   -3   28   11      1.01      0.00
   -3   27   12     -5.45      0.00
   -3   26   13     -5.25      0.00
    0    3   39     -4.16      0.00
   -1    4   40    -15.41      0.00
   -2    5   41      2.71      0.00
   -3    6   42      8.25      0.00
   -4    7   43     16.44      0.00
   -5    8   44     -6.69      0.00
   -6    9   45     -0.61      0.00
   -7   10   46      1.96      0.00
   -8   11   47      0.62      0.00
   -9   12   48      2.74      0.00
  -10   13   49     15.87      0.00
  -11   14   50     -7.80      0.00
  -12   15   51      0.62      0.00
  -13   16   52      6.02      0.00
  -14   17   53     -0.61      0.00
  -15   18   54     -6.93      0.00
  -16   19   55    -10.14      0.00
  -17   20   56    -11.72      0.00
  -18   21   57      7.42      0.00
  -19   22   58     -3.31      0.00
  -20   23   59      0.33      0.00
  -21   24   60     -5.06      0.00
  -22   25   61     -2.30      0.00
   -4   35    6    -13.47      0.00
   -4   34    7     -2.31      0.00
   -4   33    8     22.87      0.00
   -4   32    9     13.02      0.00
   -4   31   10     27.99      0.00
   -4   30   11    -20.21      0.00
   -4   29   12     -8.78      0.00
   -4   28   13    -16.33      0.00
   -4   27   14    -19.90      0.00
    0    4   41     -9.90      0.00
   -1    5   42    -12.24      0.00
   -2    6   43     11.94      0.00
   -3    7   44    -12.04      0.00
   -4    8   45     17.47      0.00
   -5    9   46    -13.29      0.00
   -6   10   47      0.39      0.00
   -7   11   48     -4.28      0.00
   -8   12   49      8.85      0.00
   -9   13   50     -4.49      0.00
  -10   14   51     12.12      0.00
  -11   15   52     -1.78      0.00
  -12   16   53      0.25      0.00
  -13   17   54      0.58      0.00
  -14   18   55     -7.74      0.00
  -15   19   56     -3.76      0.00
  -16   20   57      8.65      0.00
  -17   21   58     11.68      0.00
  -18   22   59     14.54      0.00
  -19   23   60      0.77      0.00
  -20   24   61      0.47      0.00
  -21   25   62     -2.34      0.00
   -5   36    7     18.29      0.00
   -5   35    8     30.53      0.00
   -5   34    9     -9.84      0.00
   -5   33   10      1.53      0.00
   -5   32   11      0.16      0.00
   -5   31   12     38.00      0.00
   -5   30   13    -20.19      0.00
   -5   29   14     -5.77      0.00
   -5   28   15     -1.79      0.00
    0    5   43      1.67      0.00
   -1    6   44      0.88      0.00
   -2    7   45      7.03      0.00
   -3    8   46      2.97      0.00
   -4    9   47      3.94      0.00
   -5   10   48    -11.55      0.00
   -6   11   49     -0.22      0.00
   -7   12   50      2.89      0.00
   -8   13   51      1.70      0.00
   -9   14   52    -17.65      0.00
  -10   15   53      3.82      0.00
  -11   16   54      6.85      0.00
  -12   17   55     -0.39      0.00
  -13   18   56     11.86      0.00
  -14   19   57      2.24      0.00
  -15   20   58     -5.43      0.00
  -16   21   59     25.55      0.00
  -17   22   60     12.84      0.00
  -18   23   61      5.91      0.00
  -19   24   62      0.50      0.00
  -20   25   63      6.41      0.00
   -6   36    9     22.79      0.00
   -6   35   10      2.03      0.00
   -6   34   11    -29.16      0.00
   -6   33   12     24.86      0.00
   -6   32   13     29.58      0.00
   -6   31   14     18.87      0.00
   -6   30   15     -0.62      0.00
   -6   29   16     13.57      0.00
    0    6   45      2.88      0.00
   -1    7   46      2.67      0.00
   -2    8   47     -3.16      0.00
   -3    9   48     -0.58      0.00
   -4   10   49     -5.08      0.00
   -5   11   50    -12.36      0.00
   -6   12   51     -0.65      0.00
   -7   13   52    -10.65      0.00
   -8   14   53      7.58      0.00
   -9   15   54     -6.39      0.00
  -10   16   55     -0.55      0.00
  -11   17   56      4.67      0.00
  -12   18   57     -1.36      0.00
  -13   19   58      4.18      0.00
  -14   20   59    -31.66      0.00
  -15   21   60     -9.92      0.00
  -16   22   61      6.99      0.00
  -17   23   62     -1.12      0.00
  -18   24   63    -11.18      0.00
  -19   25   64      0.10      0.00
   -7   36   11    -13.78      0.00
   -7   35   12     -9.71      0.00
   -7   34   13      7.09      0.00
   -7   33   14     19.15      0.00
   -7   32   15     17.25      0.00
   -7   31   16    -25.05      0.00
   -7   30   17     -3.50      0.00
    0    7   47     -9.64      0.00
   -1    8   48     -4.06      0.00
   -2    9   49     -4.71      0.00
   -3   10   50      7.80      0.00
   -4   11   51      4.66      0.00
   -5   12   52     -0.88      0.00
   -6   13   53      4.36      0.00
   -7   14   54     -5.25      0.00
   -8   15   55     -6.83      0.00
   -9   16   56      4.60      0.00
  -10   17   57      3.52      0.00
  -11   18   58     -5.15      0.00
  -12   19   59     -0.05      0.00
  -13   20   60     -2.60      0.00
  -14   21   61      2.47      0.00
  -15   22   62     11.25      0.00
  -16   23   63      8.28      0.00
  -17   24   64     -3.90      0.00
  -18   25   65      4.10      0.00
   -8   36   13     -5.76      0.00
   -8   35   14     21.25      0.00
   -8   34   15     -5.89      0.00
   -8   33   16     27.70      0.00
   -8   32   17      2.38      0.00
   -8   31   18      3.50      0.00
    0    8   49     -4.18      0.00
   -1    9   50      9.67      0.00
   -2   10   51      0.64      0.00
   -3   11   52     -6.89      0.00
   -4   12   53     -0.23      0.00
   -5   13   54     -4.13      0.00
   -6   14   55     -2.14      0.00
   -7   15   56      1.28      0.00
   -8   16   57     -3.70      0.00
   -9   17   58     -5.00      0.00
  -10   18   59    -11.68      0.00
  -11   19   60     -1.33      0.00
  -12   20   61     10.44      0.00
  -13   21   62     -1.39      0.00
  -14   22   63     -4.62      0.00
  -15   23   64     13.75      0.00
  -16   24   65     -4.65      0.00
  -17   25   66      0.64      0.00
   -9   37   14      2.61      0.00
   -9   36   15     -8.76      0.00
   -9   35   16    -16.63      0.00
   -9   34   17      2.79      0.00
   -9   33   18     -6.06      0.00
   -9   32   19     18.19      0.00
    0    9   51     -3.54      0.00
   -1   10   52      0.45      0.00
   -2   11   53      4.62      0.00
   -3   12   54      6.20      0.00
   -4   13   55      6.49      0.00
   -5   14   56      1.22      0.00
   -6   15   57     -0.84      0.00
   -7   16   58      3.75      0.00
   -8   17   59     -7.22      0.00
   -9   18   60     -7.08      0.00
  -10   19   61      4.74      0.00
  -11   20   62      1.68      0.00
  -12   21   63      1.75      0.00
  -13   22   64    -12.73      0.00
  -14   23   65     -4.49      0.00
  -15   24   66      3.00      0.00
  -16   25   67     -4.91      0.00
  -10   37   16      3.70      0.00
  -10   36   17    -20.43      0.00
  -10   35   18     -9.88      0.00
  -10   34   19      8.14      0.00
  -10   33   20     13.83      0.00
    0   10   53     -7.49      0.00
   -1   11   54     -0.93      0.00
   -2   12   55     -5.53      0.00
   -3   13   56      2.80      0.00
   -4   14   57      4.80      0.00
   -5   15   58     -3.71      0.00
   -6   16   59      3.57      0.00
   -7   17   60      1.47      0.00
   -8   18   61     -9.97      0.00
   -9   19   62     -1.85      0.00
  -10   20   63     10.96      0.00
  -11   21   64      3.99      0.00
  -12   22   65      8.16      0.00
  -13   23   66     10.72      0.00
  -14   24   67     -7.35      0.00
  -15   25   68     -2.42      0.00
  -11   37   18     14.50      0.00
  -11   36   19     -4.13      0.00
  -11   35   20     28.14      0.00
  -11   34   21     10.42      0.00
    0   11   55     -1.79      0.00
   -1   12   56     -1.27      0.00
   -2   13   57     -0.03      0.00
   -3   14   58     -4.83      0.00
   -4   15   59     -5.01      0.00
   -5   16   60      4.78      0.00
   -6   17   61     -3.98      0.00
   -7   18   62     -0.56      0.00
   -8   19   63    -10.62      0.00
   -9   20   64     -1.16      0.00
  -10   21   65     -5.05      0.00
  -11   22   66     -0.89      0.00
  -12   23   67     -9.36      0.00
  -13   24   68     -6.49      0.00
  -12   37   20     14.74      0.00
  -12   36   21     -0.62      0.00
  -12   35   22     13.01      0.00
    0   12   57      5.65      0.00
   -1   13   58      3.44      0.00
   -2   14   59      8.41      0.00
   -3   15   60      9.34      0.00
   -4   16   61     17.47      0.00
   -5   17   62     -8.30      0.00
   -6   18   63      7.15      0.00
   -7   19   64      4.11      0.00
   -8   20   65    -12.91      0.00
   -9   21   66     -3.15      0.00
  -10   22   67     -5.07      0.00
  -11   23   68      4.44      0.00
  -12   24   69     -6.26      0.00
  -13   37   22     27.62      0.00
  -13   36   23    -15.00      0.00
    0   13   59     13.01      0.00
   -1   14   60     13.98      0.00
   -2   15   61     -0.62      0.00
   -3   16   62     -7.54      0.00
   -4   17   63      3.88      0.00
   -5   18   64      2.87      0.00
   -6   19   65    -15.48      0.00
   -7   20   66     -7.98      0.00
   -8   21   67    -21.61      0.00
   -9   22   68     -1.47      0.00
  -10   23   69      3.57      0.00
  -11   24   70      4.17      0.00
  -14   37   24     14.24      0.00
    0   14   61      8.62      0.00
   -1   15   62     -7.42      0.00
   -2   16   63     -6.20      0.00
   -3   17   64      0.35      0.00
   -4   18   65     -2.86      0.00
   -5   19   66     -0.17      0.00
   -6   20   67      4.81      0.00
   -7   21   68     11.72      0.00
   -8   22   69     -5.24      0.00
   -9   23   70    -17.28      0.00
    0   15   63      6.73      0.00
   -1   16   64     10.81      0.00
   -2   17   65     -4.12      0.00
   -3   18   66      3.23      0.00
   -4   19   67     -0.57      0.00
   -5   20   68     10.66      0.00
   -6   21   69     -4.60      0.00
   -7   22   70      8.81      0.00
   -8   23   71      4.90      0.00
    0   16   65     -4.38      0.00
   -1   17   66      1.11      0.00
   -2   18   67     -6.49      0.00
   -3   19   68      5.29      0.00
   -4   20   69      4.81      0.00
   -5   21   70     -9.60      0.00
   -6   22   71    -12.10      0.00
    0   17   67      0.69      0.00
   -1   18   68      0.58      0.00
   -2   19   69      2.28      0.00
   -3   20   70      7.57      0.00
   -4   21   71     -0.16      0.00
   -5   22   72      3.98      0.00
    0   18   69     14.57      0.00
   -1   19   70     11.85      0.00
   -2   20   71     -1.07      0.00
   -3   21   72      6.77      0.00
    0   19   71     11.77      0.00
   -1   20   72     -0.87      0.00
  -13   37   25      8.50      0.00
  -10   36   26    -22.69      0.00
  -11   36   25     -5.53      0.00
  -12   36   24     12.49      0.00
   -7   35   27     16.52      0.00
   -8   35   26     24.45      0.00
   -9   35   25     -1.38      0.00
  -10   35   24      6.93      0.00
  -11   35   23     31.28      0.00
   -4   34   28    -19.19      0.00
   -5   34   27     -5.14      0.00
   -6   34   26      4.08      0.00
   -7   34   25      6.43      0.00
   -8   34   24     15.59      0.00
   -9   34   23    -32.30      0.00
  -10   34   22    -23.35      0.00
   -2   33   28      7.30      0.00
   -3   33   27    -10.71      0.00
   -4   33   26     17.02      0.00
   -5   33   25      4.04      0.00
   -6   33   24     -1.05      0.00
   -7   33   23    -12.93      0.00
   -8   33   22    -12.70      0.00
   -9   33   21     -9.97      0.00
    0   32   28    -17.51      0.00
   -1   32   27     -7.04      0.00
   -2   32   26      8.36      0.00
   -3   32   25     -1.80      0.00
   -4   32   24     -3.97      0.00
   -5   32   23    -20.66      0.00
   -6   32   22      0.60      0.00
   -7   32   21     -2.41      0.00
   -8   32   20     -7.79      0.00
    0   31   26     11.15      0.00
   -1   31   25     24.87      0.00
   -2   31   24      3.62      0.00
   -3   31   23    -16.35      0.00
   -4   31   22     -2.04      0.00
   -5   31   21     10.45      0.00
   -6   31   20      2.32      0.00
   -7   31   19    -13.54      0.00
    0   30   24     39.41      0.00
   -1   30   23    -25.00      0.00
   -2   30   22     -9.19      0.00
   -3   30   21      6.74      0.00
   -4   30   20     -0.46      0.00
   -5   30   19     -6.91      0.00
   -6   30   18    -10.93      0.00
    0   29   22    -26.32      0.00
   -1   29   21    -11.25      0.00
   -2   29   20      0.44      0.00
   -3   29   19     -9.84      0.00
   -4   29   18     -8.67      0.00
   -5   29   17     -2.38      0.00
    0   28   20     36.14      0.00
   -1   28   19     34.79      0.00
   -2   28   18     12.30      0.00
   -3   28   17      7.57      0.00
   -4   28   16     -2.14      0.00
    0   27   18     16.75      0.00
   -1   27   17      6.29      0.00
   -2   27   16     -6.59      0.00
   -3   27   15    -17.84      0.00
    0   26   16     -9.97      0.00
   -1   26   15    -18.98      0.00
   -2   26   14    -13.16      0.00
    0   25   14    -21.69      0.00
   -1   25   13     -2.91      0.00
    0   24   12      0.06      0.00
    0   33    3     26.07      0.00
    0   32    4    -41.71      0.00
    0   31    5      0.80      0.00
    0   30    6     20.71      0.00
    0   29    7    -15.75      0.00
    0   28    8    -10.61      0.00
    0   27    9    -30.88      0.00
    0   26   10     11.10      0.00
    0   25   11      5.22      0.00
    0    0   36     66.23      0.00
   -1    1   37     -2.90      0.00
   -2    2   38    -14.84      0.00
   -3    3   39    -50.81      0.00
   -4    4   40     27.60      0.00
   -5    5   41     -5.55      0.00
   -6    6   42     21.56      0.00
   -7    7   43     -8.42      0.00
   -8    8   44      3.85      0.00
   -9    9   45    -11.91      0.00
  -10   10   46     21.84      0.00
  -11   11   47     17.39      0.00
  -12   12   48      9.29      0.00
  -13   13   49      3.00      0.00
  -14   14   50    -12.36      0.00
  -15   15   51      8.40      0.00
  -16   16   52      7.76      0.00
  -17   17   53     -0.68      0.00
  -18   18   54     -7.81      0.00
  -19   19   55     12.10      0.00
  -20   20   56     -9.31      0.00
  -21   21   57     -0.30      0.00
  -22   22   58    -15.37      0.00
  -23   23   59      1.24      0.00
  -24   24   60     13.05      0.00
   -1   34    4      3.80      0.00
   -1   33    5     -3.35      0.00
   -1   32    6     -3.31      0.00
   -1   31    7      6.87      0.00
   -1   30    8    -12.28      0.00
   -1   29    9    -14.29      0.00
   -1   28   10     19.12      0.00
   -1   27   11      3.90      0.00
   -1   26   12    -23.78      0.00
    0    1   38     18.88      0.00
   -1    2   39     -0.86      0.00
   -2    3   40     -3.10      0.00
   -3    4   41    -16.97      0.00
   -4    5   42     -5.19      0.00
   -5    6   43     -8.75      0.00
   -6    7   44     10.96      0.00
   -7    8   45      0.46      0.00
   -8    9   46     -1.60      0.00
   -9   10   47     -5.95      0.00
  -10   11   48      4.14      0.00
  -11   12   49      5.60      0.00
  -12   13   50     -2.05      0.00
  -13   14   51     -0.26      0.00
  -14   15   52     -2.28      0.00
  -15   16   53     -4.23      0.00
  -16   17   54     -7.33      0.00
  -17   18   55     -2.24      0.00
  -18   19   56      7.48      0.00
  -19   20   57     -0.11      0.00
  -20   21   58      3.95      0.00
  -21   22   59     -3.69      0.00
  -22   23   60     -3.91      0.00
  -23   24   61    -12.68      0.00
   -2   34    6    -17.65      0.00
   -2   33    7      9.80      0.00
   -2   32    8      7.20      0.00
   -2   31    9    -25.03      0.00
   -2   30   10     -2.91      0.00
   -2   29   11      5.45      0.00
   -2   28   12     37.22      0.00
   -2   27   13    -14.78      0.00
    0    2   40     -9.27      0.00
   -1    3   41      3.70      0.00
   -2    4   42    -13.96      0.00
   -3    5   43      4.60      0.00
   -4    6   44     -2.57      0.00
   -5    7   45     -0.95      0.00
   -6    8   46      5.93      0.00
   -7    9   47      3.29      0.00
   -8   10   48      4.20      0.00
   -9   11   49      1.30      0.00
  -10   12   50     -0.11      0.00
  -11   13   51      0.76      0.00
  -12   14   52     -4.39      0.00
  -13   15   53     -0.29      0.00
  -14   16   54     -3.60      0.00
  -15   17   55     -6.38      0.00
  -16   18   56      8.15      0.00
  -17   19   57      3.26      0.00
  -18   20   58     -5.82      0.00
  -19   21   59      5.00      0.00
  -20   22   60    -15.31      0.00
  -21   23   61    -13.02      0.00
  -22   24   62     -0.71      0.00
  -23   25   63     -0.12      0.00
   -3   35    7     -3.81      0.00
   -3   34    8    -27.67      0.00
   -3   33    9     16.50      0.00
   -3   32   10      1.77      0.00
   -3   31   11     -9.44      0.00
   -3   30   12     15.82      0.00
   -3   29   13      7.44      0.00
   -3   28   14     12.93      0.00
    0    3   42     23.13      0.00
   -1    4   43      6.89      0.00
   -2    5   44     -3.94      0.00
   -3    6   45     -7.51      0.00
   -4    7   46      1.07      0.00
   -5    8   47     12.70      0.00
   -6    9   48      1.47      0.00
   -7   10   49     -8.13      0.00
   -8   11   50      7.48      0.00
   -9   12   51      4.75      0.00
  -10   13   52      3.29      0.00
  -11   14   53      3.70      0.00
  -12   15   54     -2.34      0.00
  -13   16   55      3.59      0.00
  -14   17   56      6.79      0.00
  -15   18   57     17.97      0.00
  -16   19   58     -2.48      0.00
  -17   20   59     -5.24      0.00
  -18   21   60      6.73      0.00
  -19   22   61     -2.44      0.00
  -20   23   62    -10.21      0.00
  -21   24   63     -6.25      0.00
  -22   25   64     -6.07      0.00
   -4   35    9     19.86      0.00
   -4   34   10      5.29      0.00
   -4   33   11     -6.50      0.00
   -4   32   12     16.34      0.00
   -4   31   13     25.33      0.00
   -4   30   14     -5.40      0.00
   -4   29   15    -10.57      0.00
    0    4   44     19.29      0.00
   -1    5   45      8.07      0.00
   -2    6   46    -22.47      0.00
   -3    7   47     -0.52      0.00
   -4    8   48     -2.79      0.00
   -5    9   49     -8.30      0.00
   -6   10   50      2.97      0.00
   -7   11   51      4.52      0.00
   -8   12   52     -3.46      0.00
   -9   13   53      4.05      0.00
  -10   14   54      5.18      0.00
  -11   15   55      3.18      0.00
  -12   16   56     18.40      0.00
  -13   17   57    -10.73      0.00
  -14   18   58      1.53      0.00
  -15   19   59     -4.76      0.00
  -16   20   60     -7.62      0.00
  -17   21   61      6.79      0.00
  -18   22   62      9.43      0.00
  -19   23   63    -11.94      0.00
  -20   24   64     -3.34      0.00
  -21   25   65     -0.64      0.00
   -5   35   11     17.36      0.00
   -5   34   12     -9.34      0.00
   -5   33   13     -0.50      0.00
   -5   32   14      7.98      0.00
   -5   31   15      5.71      0.00
   -5   30   16     -1.74      0.00
    0    5   46     -9.67      0.00
   -1    6   47      7.31      0.00
   -2    7   48     -7.11      0.00
   -3    8   49     -4.03      0.00
   -4    9   50     -5.66      0.00
   -5   10   51      1.05      0.00
   -6   11   52     -1.41      0.00
   -7   12   53      2.16      0.00
   -8   13   54     -3.48      0.00
   -9   14   55     -3.72      0.00
  -10   15   56      6.47      0.00
  -11   16   57     11.80      0.00
  -12   17   58      9.75      0.00
  -13   18   59      1.69      0.00
  -14   19   60     -2.38      0.00
  -15   20   61    -15.44      0.00
  -16   21   62      5.91      0.00
  -17   22   63      1.90      0.00
  -18   23   64      1.75      0.00
  -19   24   65      6.04      0.00
  -20   25   66      7.35      0.00
   -6   36   12     -9.36      0.00
   -6   35   13     -3.67      0.00
   -6   34   14      3.38      0.00
   -6   33   15    -14.00      0.00
   -6   32   16      2.36      0.00
   -6   31   17     -8.87      0.00
    0    6   48     17.42      0.00
   -1    7   49     -1.05      0.00
   -2    8   50     -0.34      0.00
   -3    9   51     -0.96      0.00
   -4   10   52      8.40      0.00
   -5   11   53     -3.00      0.00
   -6   12   54      1.56      0.00
   -7   13   55     -7.95      0.00
   -8   14   56      0.90      0.00
   -9   15   57      3.89      0.00
  -10   16   58     14.97      0.00
  -11   17   59     -0.20      0.00
  -12   18   60      9.90      0.00
  -13   19   61      9.92      0.00
  -14   20   62     -9.94      0.00
  -15   21   63     -4.08      0.00
  -16   22   64      9.62      0.00
  -17   23   65     -3.97      0.00
  -18   24   66      2.09      0.00
   -7   36   14    -16.16      0.00
   -7   35   15      8.67      0.00
   -7   34   16    -22.73      0.00
   -7   33   17     -5.41      0.00
   -7   32   18    -23.63      0.00
    0    7   50     14.77      0.00
   -1    8   51     -5.50      0.00
   -2    9   52      9.80      0.00
   -3   10   53     -9.69      0.00
   -4   11   54     -1.15      0.00
   -5   12   55     -8.44      0.00
   -6   13   56      1.13      0.00
   -7   14   57     11.60      0.00
   -8   15   58      1.39      0.00
   -9   16   59     -4.48      0.00
  -10   17   60      4.46      0.00
  -11   18   61     -0.01      0.00
  -12   19   62      9.01      0.00
  -13   20   63      1.23      0.00
  -14   21   64     -0.71      0.00
  -15   22   65     -0.16      0.00
  -16   23   66     -8.07      0.00
  -17   24   67    -11.70      0.00
   -8   36   16     14.90      0.00
   -8   35   17     19.35      0.00
   -8   34   18     -5.59      0.00
   -8   33   19      6.34      0.00
    0    8   52     12.65      0.00
   -1    9   53     -6.12      0.00
   -2   10   54     -7.14      0.00
   -3   11   55    -10.79      0.00
   -4   12   56     -0.64      0.00
   -5   13   57     -2.13      0.00
   -6   14   58      5.38      0.00
   -7   15   59     -1.26      0.00
   -8   16   60      1.90      0.00
   -9   17   61      0.84      0.00
  -10   18   62     -6.15      0.00
  -11   19   63      1.42      0.00
  -12   20   64      3.42      0.00
  -13   21   65     -3.78      0.00
  -14   22   66      5.94      0.00
  -15   23   67    -13.94      0.00
  -16   24   68      2.82      0.00
   -9   36   18    -21.99      0.00
   -9   35   19      6.36      0.00
   -9   34   20    -17.78      0.00
    0    9   54      8.42      0.00
   -1   10   55    -11.01      0.00
   -2   11   56      3.57      0.00
   -3   12   57     -3.82      0.00
   -4   13   58     11.20      0.00
   -5   14   59     12.08      0.00
   -6   15   60      1.87      0.00
   -7   16   61     -0.33      0.00
   -8   17   62      2.31      0.00
   -9   18   63      3.12      0.00
  -10   19   64    -11.77      0.00
  -11   20   65     10.37      0.00
  -12   21   66     -0.38      0.00
  -13   22   67      8.99      0.00
  -14   23   68      9.43      0.00
  -15   24   69      0.80      0.00
  -10   36   20    -15.24      0.00
  -10   35   21    -14.45      0.00
    0   10   56      3.49      0.00
   -1   11   57     -4.10      0.00
   -2   12   58      4.56      0.00
   -3   13   59     -9.01      0.00
   -4   14   60     14.80      0.00
   -5   15   61      0.82      0.00
   -6   16   62      0.90      0.00
   -7   17   63     -6.17      0.00
   -8   18   64    -14.59      0.00
   -9   19   65     -8.80      0.00
  -10   20   66     -0.08      0.00
  -11   21   67     -0.69      0.00
  -12   22   68      0.96      0.00
  -13   23   69      8.27      0.00
  -14   24   70     -0.81      0.00
  -11   37   21      1.83      0.00
  -11   36   22      6.06      0.00
    0   11   58     -3.14      0.00
   -1   12   59     -6.98      0.00
   -2   13   60     -8.47      0.00
   -3   14   61      3.31      0.00
   -4   15   62    -18.79      0.00
   -5   16   63     -5.30      0.00
   -6   17   64    -14.38      0.00
   -7   18   65     -7.17      0.00
   -8   19   66     -7.13      0.00
   -9   20   67     -2.17      0.00
  -10   21   68      0.44      0.00
  -11   22   69    -12.37      0.00
  -12   23   70     -7.47      0.00
  -12   37   23      7.15      0.00
    0   12   60      0.89      0.00
   -1   13   61     -1.42      0.00
   -2   14   62      2.96      0.00
   -3   15   63     -5.02      0.00
   -4   16   64     -7.17      0.00
   -5   17   65      2.54      0.00
   -6   18   66     -9.45      0.00
   -7   19   67     -5.13      0.00
   -8   20   68      1.87      0.00
   -9   21   69     -0.75      0.00
  -10   22   70      4.82      0.00
  -11   23   71      5.61      0.00
    0   13   62      3.44      0.00
   -1   14   63      9.03      0.00
   -2   15   64      0.43      0.00
   -3   16   65     -4.36      0.00
   -4   17   66      0.37      0.00
   -5   18   67      4.78      0.00
   -6   19   68      1.92      0.00
   -7   20   69     -1.60      0.00
   -8   21   70     -9.35      0.00
   -9   22   71     -2.18      0.00
  -10   23   72      1.47      0.00
    0   14   64      2.32      0.00
   -1   15   65      3.06      0.00
   -2   16   66      2.08      0.00
   -3   17   67      3.43      0.00
   -4   18   68     -7.47      0.00
   -5   19   69    -14.79      0.00
   -6   20   70     -1.32      0.00
   -7   21   71     11.52      0.00
   -8   22   72     11.19      0.00
    0   15   66      3.59      0.00
   -1   16   67      5.18      0.00
   -2   17   68     14.56      0.00
   -3   18   69    -17.96      0.00
   -4   19   70    -10.96      0.00
   -5   20   71     -0.69      0.00
   -6   21   72    -12.41      0.00
   -7   22   73      7.98      0.00
    0   16   68    -17.56      0.00
   -1   17   69    -22.82      0.00
   -2   18   70     -7.59      0.00
   -3   19   71     -3.70      0.00
   -4   20   72     15.80      0.00
   -5   21   73     -2.94      0.00
    0   17   70    -22.17      0.00
   -1   18   71     -2.96      0.00
   -2   19   72     -6.48      0.00
   -3   20   73      5.73      0.00
    0   18   72     10.36      0.00
   -1   19   73     -0.46      0.00
   -2   20   74      7.57      0.00
    0   19   74      1.64      0.00
  -26   38   11     -0.63      0.00
   -9   36   24      1.40      0.00
  -10   36   23    -10.35      0.00
   -6   35   25     18.61      0.00
   -7   35   24      6.58      0.00
   -8   35   23      0.73      0.00
   -9   35   22    -19.67      0.00
   -4   34   25     -8.56      0.00
   -5   34   24     17.28      0.00
   -6   34   23     -9.06      0.00
   -7   34   22    -17.96      0.00
   -8   34   21      7.08      0.00
   -2   33   25     11.12      0.00
   -3   33   24     -7.15      0.00
   -4   33   23     21.08      0.00
   -5   33   22     -5.93      0.00
   -6   33   21      0.40      0.00
   -7   33   20     -5.14      0.00
    0   32   25    -15.76      0.00
   -1   32   24     12.22      0.00
   -2   32   23    -38.49      0.00
   -3   32   22    -12.40      0.00
   -4   32   21      8.42      0.00
   -5   32   20     -0.25      0.00
   -6   32   19     -2.25      0.00
    0   31   23     -2.34      0.00
   -1   31   22     -9.03      0.00
   -2   31   21     -2.94      0.00
   -3   31   20      6.42      0.00
   -4   31   19      1.16      0.00
   -5   31   18     -5.88      0.00
    0   30   21    -31.92      0.00
   -1   30   20     -9.97      0.00
   -2   30   19    -10.06      0.00
   -3   30   18    -26.72      0.00
   -4   30   17      4.05      0.00
    0   29   19     -6.35      0.00
   -1   29   18    -18.09      0.00
   -2   29   17    -14.11      0.00
   -3   29   16     10.87      0.00
    0   28   17     15.58      0.00
   -1   28   16      5.03      0.00
   -2   28   15     36.52      0.00
    0   27   15    -19.50      0.00
   -1   27   14    -18.88      0.00
    0   26   13     -1.88      0.00
    0   33    6      4.94      0.00
    0   32    7    -15.28      0.00
    0   31    8     24.02      0.00
    0   30    9     -9.11      0.00
    0   29   10      0.79      0.00
    0   28   11     10.25      0.00
    0   27   12    -36.23      0.00
    0    0   39     -9.72      0.00
   -1    1   40     -1.88      0.00
   -2    2   41    -14.35      0.00
   -3    3   42     44.23      0.00
   -4    4   43    -16.86      0.00
   -5    5   44      7.08      0.00
   -6    6   45    -17.57      0.00
   -7    7   46     14.71      0.00
   -8    8   47     -6.26      0.00
   -9    9   48     14.03      0.00
  -10   10   49     -2.24      0.00
  -11   11   50     -4.47      0.00
  -12   12   51     -4.27      0.00
  -13   13   52      1.98      0.00
  -14   14   53     -0.51      0.00
  -15   15   54      8.29      0.00
  -16   16   55      6.79      0.00
  -17   17   56     -5.13      0.00
  -18   18   57     -3.84      0.00
  -19   19   58      4.22      0.00
  -20   20   59     -8.81      0.00
  -21   21   60    -17.24      0.00
  -22   22   61    -33.98      0.00
  -23   23   62      8.75      0.00
  -24   24   63      1.73      0.00
   -1   34    7     16.20      0.00
   -1   33    8    -16.39      0.00
   -1   32    9     -6.67      0.00
   -1   31   10     18.39      0.00
   -1   30   11    -22.22      0.00
   -1   29   12     15.02      0.00
   -1   28   13      9.06      0.00
    0    1   41      8.08      0.00
   -1    2   42    -11.34      0.00
   -2    3   43     -3.17      0.00
   -3    4   44      9.95      0.00
   -4    5   45    -18.04      0.00
   -5    6   46     -5.79      0.00
   -6    7   47      2.64      0.00
   -7    8   48     -0.58      0.00
   -8    9   49     -2.11      0.00
   -9   10   50      0.91      0.00
  -10   11   51      3.37      0.00
  -11   12   52    -14.32      0.00
  -12   13   53     -1.97      0.00
  -13   14   54      0.44      0.00
  -14   15   55     -1.20      0.00
  -15   16   56     -2.74      0.00
  -16   17   57      0.08      0.00
  -17   18   58     -8.64      0.00
  -18   19   59     -0.75      0.00
  -19   20   60      3.18      0.00
  -20   21   61      3.92      0.00
  -21   22   62     -3.12      0.00
  -22   23   63     -1.25      0.00
  -23   24   64      4.71      0.00
   -2   34    9    -18.04      0.00
   -2   33   10    -13.57      0.00
   -2   32   11     13.79      0.00
   -2   31   12     -1.26      0.00
   -2   30   13      1.12      0.00
   -2   29   14     13.32      0.00
    0    2   43     15.02      0.00
   -1    3   44      5.29      0.00
   -2    4   45      9.91      0.00
   -3    5   46    -14.44      0.00
   -4    6   47     -6.36      0.00
   -5    7   48      2.41      0.00
   -6    8   49     13.74      0.00
   -7    9   50      1.33      0.00
   -8   10   51     -2.42      0.00
   -9   11   52     -5.27      0.00
  -10   12   53      0.93      0.00
  -11   13   54    -10.96      0.00
  -12   14   55     -3.46      0.00
  -13   15   56     10.65      0.00
  -14   16   57     -4.90      0.00
  -15   17   58     -6.86      0.00
  -16   18   59     -4.97      0.00
  -17   19   60     -4.75      0.00
  -18   20   61    -10.76      0.00
  -19   21   62     14.16      0.00
  -20   22   63     -1.60      0.00
  -21   23   64     13.48      0.00
  -22   24   65      0.72      0.00
   -3   35   10     -6.17      0.00
   -3   34   11    -14.90      0.00
   -3   33   12      8.24      0.00
   -3   32   13      8.69      0.00
   -3   31   14     21.73      0.00
   -3   30   15    -12.42      0.00
    0    3   45    -23.58      0.00
   -1    4   46     -0.29      0.00
   -2    5   47     -1.52      0.00
   -3    6   48     10.05      0.00
   -4    7   49      0.97      0.00
   -5    8   50     -8.92      0.00
   -6    9   51     -9.66      0.00
   -7   10   52      2.01      0.00
   -8   11   53      7.35      0.00
   -9   12   54      5.25      0.00
  -10   13   55     -7.59      0.00
  -11   14   56     -0.31      0.00
  -12   15   57    -15.16      0.00
  -13   16   58      2.79      0.00
  -14   17   59     -5.47      0.00
  -15   18   60     14.87      0.00
  -16   19   61     18.87      0.00
  -17   20   62     -0.59      0.00
  -18   21   63      7.73      0.00
  -19   22   64     -2.12      0.00
  -20   23   65    -14.55      0.00
  -21   24   66      0.05      0.00
   -4   35   12     -0.17      0.00
   -4   34   13     -1.21      0.00
   -4   33   14      8.59      0.00
   -4   32   15     -4.22      0.00
   -4   31   16     24.50      0.00
    0    4   47      0.52      0.00
   -1    5   48     -6.54      0.00
   -2    6   49     -1.68      0.00
   -3    7   50     -6.92      0.00
   -4    8   51      1.98      0.00
   -5    9   52    -12.57      0.00
   -6   10   53      1.72      0.00
   -7   11   54      3.05      0.00
   -8   12   55      9.64      0.00
   -9   13   56     -3.50      0.00
  -10   14   57     10.73      0.00
  -11   15   58      4.05      0.00
  -12   16   59    -12.21      0.00
  -13   17   60     -6.54      0.00
  -14   18   61     -6.50      0.00
  -15   19   62     -5.02      0.00
  -16   20   63     -7.15      0.00
  -17   21   64      0.68      0.00
  -18   22   65    -14.37      0.00
  -19   23   66     -0.34      0.00
  -20   24   67     -1.17      0.00
   -5   35   14     11.70      0.00
   -5   34   15      0.87      0.00
   -5   33   16     -3.95      0.00
   -5   32   17      6.85      0.00
    0    5   49      3.33      0.00
   -1    6   50      2.51      0.00
   -2    7   51      5.87      0.00
   -3    8   52     -4.54      0.00
   -4    9   53      1.01      0.00
   -5   10   54      3.17      0.00
   -6   11   55     -6.79      0.00
   -7   12   56     -2.79      0.00
   -8   13   57      9.33      0.00
   -9   14   58     -0.68      0.00
  -10   15   59     -8.30      0.00
  -11   16   60      4.27      0.00
  -12   17   61      1.03      0.00
  -13   18   62     11.91      0.00
  -14   19   63     -1.11      0.00
  -15   20   64    -10.26      0.00
  -16   21   65     -1.84      0.00
  -17   22   66      6.16      0.00
  -18   23   67     -3.14      0.00
  -19   24   68     -0.92      0.00
   -6   36   15     -7.56      0.00
   -6   35   16     17.43      0.00
   -6   34   17     -6.37      0.00
   -6   33   18    -14.61      0.00
    0    6   51    -15.59      0.00
   -1    7   52      7.32      0.00
   -2    8   53      4.66      0.00
   -3    9   54     16.69      0.00
   -4   10   55     -5.39      0.00
   -5   11   56    -11.28      0.00
   -6   12   57    -11.36      0.00
   -7   13   58      5.30      0.00
   -8   14   59     -3.48      0.00
   -9   15   60     -0.09      0.00
  -10   16   61      3.59      0.00
  -11   17   62     -5.96      0.00
  -12   18   63     -2.03      0.00
  -13   19   64     14.99      0.00
  -14   20   65    -19.65      0.00
  -15   21   66      5.87      0.00
  -16   22   67     -5.39      0.00
  -17   23   68    -11.79      0.00
  -18   24   69     -4.94      0.00
   -7   36   17      7.85      0.00
   -7   35   18     -3.48      0.00
   -7   34   19    -22.87      0.00
    0    7   53     -6.18      0.00
   -1    8   54      2.52      0.00
   -2    9   55     -5.96      0.00
   -3   10   56     -1.24      0.00
   -4   11   57     -6.70      0.00
   -5   12   58      0.52      0.00
   -6   13   59     -2.10      0.00
   -7   14   60     -1.25      0.00
   -8   15   61     -6.68      0.00
   -9   16   62      4.55      0.00
  -10   17   63      6.88      0.00
  -11   18   64      2.89      0.00
  -12   19   65     10.83      0.00
  -13   20   66     -6.39      0.00
  -14   21   67     -8.37      0.00
  -15   22   68     -7.19      0.00
  -16   23   69    -23.19      0.00
   -8   36   19      2.98      0.00
   -8   35   20     23.96      0.00
    0    8   55      4.09      0.00
   -1    9   56      1.66      0.00
   -2   10   57      4.65      0.00
   -3   11   58     -4.99      0.00
   -4   12   59     -1.37      0.00
   -5   13   60      9.09      0.00
   -6   14   61     10.43      0.00
   -7   15   62      0.46      0.00
   -8   16   63      7.26      0.00
   -9   17   64      2.89      0.00
  -10   18   65      1.11      0.00
  -11   19   66      7.96      0.00
  -12   20   67      0.65      0.00
  -13   21   68     -2.74      0.00
  -14   22   69     -7.70      0.00
  -15   23   70     -2.38      0.00
   -9   36   21     -9.72      0.00
    0    9   57     -7.57      0.00
   -1   10   58      8.54      0.00
   -2   11   59      1.79      0.00
   -3   12   60     14.22      0.00
   -4   13   61     10.74      0.00
   -5   14   62      5.39      0.00
   -6   15   63     -1.45      0.00
   -7   16   64      2.11      0.00
   -8   17   65     -5.48      0.00
   -9   18   66     -6.14      0.00
  -10   19   67    -10.47      0.00
  -11   20   68    -21.73      0.00
  -12   21   69     -7.39      0.00
  -13   22   70     14.62      0.00
  -14   23   71     10.57      0.00
    0   10   59    -17.68      0.00
   -1   11   60     -0.05      0.00
   -2   12   61     -2.73      0.00
   -3   13   62      0.95      0.00
   -4   14   63      7.67      0.00
   -5   15   64      2.68      0.00
   -6   16   65     -0.07      0.00
   -7   17   66     -3.16      0.00
   -8   18   67     -0.54      0.00
   -9   19   68      8.79      0.00
  -10   20   69     -0.02      0.00
  -11   21   70      7.29      0.00
  -12   22   71     -2.59      0.00
  -13   23   72      1.48      0.00
    0   11   61      5.83      0.00
   -1   12   62      3.04      0.00
   -2   13   63     -4.50      0.00
   -3   14   64     -0.97      0.00
   -4   15   65      0.37      0.00
   -5   16   66    -21.31      0.00
   -6   17   67     -0.85      0.00
   -7   18   68     -2.90      0.00
   -8   19   69     -0.40      0.00
   -9   20   70     -8.80      0.00
  -10   21   71     -9.06      0.00
  -11   22   72     -5.23      0.00
    0   12   63    -21.41      0.00
   -1   13   64      1.72      0.00
   -2   14   65     15.60      0.00
   -3   15   66      0.41      0.00
   -4   16   67      7.58      0.00
   -5   17   68     10.64      0.00
   -6   18   69     10.50      0.00
   -7   19   70     -3.91      0.00
   -8   20   71    -16.60      0.00
   -9   21   72     -0.51      0.00
  -10   22   73      1.45      0.00
    0   13   65    -13.60      0.00
   -1   14   66      1.18      0.00
   -2   15   67     10.68      0.00
   -3   16   68     -5.41      0.00
   -4   17   69     11.87      0.00
   -5   18   70     10.69      0.00
   -6   19   71      7.64      0.00
   -7   20   72      9.00      0.00
   -8   21   73      1.51      0.00
    0   14   67    -23.06      0.00
   -1   15   68     -5.70      0.00
   -2   16   69     11.60      0.00
   -3   17   70     11.22      0.00
   -4   18   71      6.30      0.00
   -5   19   72      1.37      0.00
   -6   20   73      6.66      0.00
   -7   21   74     -2.13      0.00
    0   15   69    -24.32      0.00
   -1   16   70      2.05      0.00
   -2   17   71     16.53      0.00
   -3   18   72     17.12      0.00
   -4   19   73      7.63      0.00
   -5   20   74      3.25      0.00
    0   16   71    -12.57      0.00
   -1   17   72     -5.83      0.00
   -2   18   73      2.51      0.00
   -3   19   74     -8.39      0.00
   -4   20   75      5.62      0.00
    0   17   73     -1.45      0.00
   -1   18   74     -2.73      0.00
   -2   19   75      2.49      0.00
    0   18   75     -1.21      0.00
   -8   36   22    -16.37      0.00
   -6   35   22     10.00      0.00
   -7   35   21     -5.15      0.00
   -3   34   23      2.81      0.00
   -4   34   22     37.83      0.00
   -5   34   21     32.90      0.00
   -6   34   20      8.65      0.00
   -1   33   23      3.53      0.00
   -2   33   22     -0.65      0.00
   -3   33   21      5.79      0.00
   -4   33   20     28.67      0.00
   -5   33   19    -19.15      0.00
    0   32   22    -10.22      0.00
   -1   32   21      8.33      0.00
   -2   32   20      8.38      0.00
   -3   32   19     -4.41      0.00
   -4   32   18      3.60      0.00
    0   31   20     -4.76      0.00
   -1   31   19      3.22      0.00
   -2   31   18    -17.77      0.00
   -3   31   17     14.42      0.00
    0   30   18     -2.60      0.00
   -1   30   17      1.53      0.00
   -2   30   16    -17.20      0.00
    0   29   16    -24.03      0.00
   -1   29   15     -0.78      0.00
    0   28   14     -7.10      0.00
    0   33    9     -1.20      0.00
    0   32   10    -25.39      0.00
    0   31   11     21.72      0.00
    0   30   12      1.85      0.00
    0   29   13    -20.38      0.00
    0    0   42    -15.81      0.00
   -1    1   43     23.80      0.00
   -2    2   44      6.77      0.00
   -3    3   45      1.00      0.00
   -4    4   46    -14.01      0.00
   -5    5   47     -5.43      0.00
   -6    6   48     29.11      0.00
   -7    7   49    -10.59      0.00
   -8    8   50      1.11      0.00
   -9    9   51     -2.17      0.00
  -10   10   52      1.07      0.00
  -11   11   53      4.60      0.00
  -12   12   54      7.45      0.00
  -13   13   55      6.36      0.00
  -14   14   56      1.80      0.00
  -15   15   57      1.51      0.00
  -16   16   58     14.53      0.00
  -17   17   59    -15.88      0.00
  -18   18   60      0.49      0.00
  -19   19   61     -3.42      0.00
  -20   20   62      5.01      0.00
  -21   21   63     11.94      0.00
  -22   22   64    -15.76      0.00
  -23   23   65    -12.99      0.00
   -1   34   10      0.86      0.00
   -1   33   11     -1.85      0.00
   -1   32   12     10.74      0.00
   -1   31   13     15.69      0.00
   -1   30   14    -10.59      0.00
    0    1   44    -20.01      0.00
   -1    2   45     11.37      0.00
   -2    3   46     -1.36      0.00
   -3    4   47     -6.84      0.00
   -4    5   48     -4.85      0.00
   -5    6   49     -1.59      0.00
   -6    7   50     -1.09      0.00
   -7    8   51      4.32      0.00
   -8    9   52      0.53      0.00
   -9   10   53     -7.10      0.00
  -10   11   54     -1.63      0.00
  -11   12   55      1.19      0.00
  -12   13   56      8.01      0.00
  -13   14   57     -0.60      0.00
  -14   15   58     -6.15      0.00
  -15   16   59     -4.38      0.00
  -16   17   60     -3.45      0.00
  -17   18   61     15.08      0.00
  -18   19   62     -2.48      0.00
  -19   20   63     10.21      0.00
  -20   21   64     21.60      0.00
  -21   22   65     14.40      0.00
  -22   23   66      7.19      0.00
   -2   34   12    -15.41      0.00
   -2   33   13      1.86      0.00
   -2   32   14      2.82      0.00
   -2   31   15    -18.41      0.00
    0    2   46    -28.59      0.00
   -1    3   47      4.83      0.00
   -2    4   48      4.63      0.00
   -3    5   49     -7.03      0.00
   -4    6   50    -12.54      0.00
   -5    7   51     13.03      0.00
   -6    8   52      5.73      0.00
   -7    9   53     -1.69      0.00
   -8   10   54     -3.68      0.00
   -9   11   55      6.10      0.00
  -10   12   56      2.43      0.00
  -11   13   57      0.10      0.00
  -12   14   58     12.33      0.00
  -13   15   59      5.17      0.00
  -14   16   60      9.68      0.00
  -15   17   61      5.04      0.00
  -16   18   62     15.22      0.00
  -17   19   63      4.23      0.00
  -18   20   64     -9.24      0.00
  -19   21   65      9.93      0.00
  -20   22   66     -4.41      0.00
  -21   23   67      9.60      0.00
   -3   34   14    -10.98      0.00
   -3   33   15     -6.69      0.00
   -3   32   16    -12.91      0.00
    0    3   48     10.73      0.00
   -1    4   49      6.57      0.00
   -2    5   50     -2.15      0.00
   -3    6   51     -9.48      0.00
   -4    7   52     -4.56      0.00
   -5    8   53      3.28      0.00
   -6    9   54      3.85      0.00
   -7   10   55     -2.06      0.00
   -8   11   56      0.85      0.00
   -9   12   57      5.31      0.00
  -10   13   58      0.86      0.00
  -11   14   59    -10.63      0.00
  -12   15   60      9.80      0.00
  -13   16   61      0.71      0.00
  -14   17   62     -3.83      0.00
  -15   18   63      6.59      0.00
  -16   19   64     10.05      0.00
  -17   20   65    -14.29      0.00
  -18   21   66      8.47      0.00
  -19   22   67     -8.06      0.00
  -20   23   68     -1.11      0.00
   -4   35   15      1.38      0.00
   -4   34   16     18.10      0.00
   -4   33   17     18.36      0.00
    0    4   50    -11.26      0.00
   -1    5   51      6.74      0.00
   -2    6   52     -0.15      0.00
   -3    7   53     -0.27      0.00
   -4    8   54    -10.21      0.00
   -5    9   55      0.78      0.00
   -6   10   56      1.02      0.00
   -7   11   57     12.75      0.00
   -8   12   58     14.67      0.00
   -9   13   59     -7.68      0.00
  -10   14   60      3.33      0.00
  -11   15   61     -5.36      0.00
  -12   16   62     10.38      0.00
  -13   17   63     -1.43      0.00
  -14   18   64     -1.16      0.00
  -15   19   65     -5.87      0.00
  -16   20   66     10.82      0.00
  -17   21   67     12.20      0.00
  -18   22   68     -7.79      0.00
  -19   23   69     -1.24      0.00
   -5   35   17      0.61      0.00
   -5   34   18     23.45      0.00
    0    5   52      1.28      0.00
   -1    6   53     -0.32      0.00
   -2    7   54      5.74      0.00
   -3    8   55     -3.00      0.00
   -4    9   56     -2.94      0.00
   -5   10   57     -8.47      0.00
   -6   11   58      2.39      0.00
   -7   12   59     -3.49      0.00
   -8   13   60    -10.84      0.00
   -9   14   61      7.42      0.00
  -10   15   62      0.29      0.00
  -11   16   63     -3.29      0.00
  -12   17   64      9.88      0.00
  -13   18   65     17.32      0.00
  -14   19   66      9.01      0.00
  -15   20   67      7.72      0.00
  -16   21   68     23.67      0.00
  -17   22   69     -5.61      0.00
  -18   23   70    -14.43      0.00
   -6   35   19     16.35      0.00
    0    6   54    -10.20      0.00
   -1    7   55     -3.11      0.00
   -2    8   56     -3.94      0.00
   -3    9   57     -9.07      0.00
   -4   10   58      3.10      0.00
   -5   11   59      0.43      0.00
   -6   12   60     11.09      0.00
   -7   13   61     -5.05      0.00
   -8   14   62     -4.20      0.00
   -9   15   63     11.78      0.00
  -10   16   64      6.79      0.00
  -11   17   65     -4.29      0.00
  -12   18   66     11.07      0.00
  -13   19   67      1.95      0.00
  -14   20   68      5.89      0.00
  -15   21   69     -6.67      0.00
  -16   22   70     -2.91      0.00
  -17   23   71    -18.43      0.00
    0    7   56      3.49      0.00
   -1    8   57      3.05      0.00
   -2    9   58      1.53      0.00
   -3   10   59      3.53      0.00
   -4   11   60      2.60      0.00
   -5   12   61      5.54      0.00
   -6   13   62     -3.08      0.00
   -7   14   63     -5.79      0.00
   -8   15   64    -13.21      0.00
   -9   16   65     13.68      0.00
  -10   17   66      8.55      0.00
  -11   18   67     21.11      0.00
  -12   19   68     14.77      0.00
  -13   20   69      0.67      0.00
  -14   21   70      4.34      0.00
  -15   22   71     -1.40      0.00
    0    8   58     -2.56      0.00
   -1    9   59     -4.76      0.00
   -2   10   60      0.80      0.00
   -3   11   61     -5.52      0.00
   -4   12   62      0.18      0.00
   -5   13   63      4.46      0.00
   -6   14   64     12.18      0.00
   -7   15   65     -3.12      0.00
   -8   16   66     -0.75      0.00
   -9   17   67     12.31      0.00
  -10   18   68     -3.83      0.00
  -11   19   69      5.05      0.00
  -12   20   70     -2.15      0.00
  -13   21   71      5.40      0.00
  -14   22   72     -2.15      0.00
    0    9   60    -11.13      0.00
   -1   10   61     -7.71      0.00
   -2   11   62      1.55      0.00
   -3   12   63     -4.90      0.00
   -4   13   64     -4.29      0.00
   -5   14   65      7.29      0.00
   -6   15   66     -0.38      0.00
   -7   16   67      0.33      0.00
   -8   17   68     -1.44      0.00
   -9   18   69     26.79      0.00
  -10   19   70     -0.84      0.00
  -11   20   71     -6.85      0.00
  -12   21   72     -5.53      0.00
  -13   22   73      2.21      0.00
    0   10   62     -5.51      0.00
   -1   11   63     -6.22      0.00
   -2   12   64     -3.20      0.00
   -3   13   65     -4.62      0.00
   -4   14   66      1.73      0.00
   -5   15   67     -0.55      0.00
   -6   16   68    -10.76      0.00
   -7   17   69      3.95      0.00
   -8   18   70      7.99      0.00
   -9   19   71      7.62      0.00
  -10   20   72      2.97      0.00
  -11   21   73     18.77      0.00
  -12   22   74      6.01      0.00
    0   11   64     -9.55      0.00
   -1   12   65    -11.08      0.00
   -2   13   66     -1.22      0.00
   -3   14   67     13.25      0.00
   -4   15   68    -23.03      0.00
   -5   16   69     -1.07      0.00
   -6   17   70     -4.62      0.00
   -7   18   71      6.06      0.00
   -8   19   72    -12.29      0.00
   -9   20   73      5.69      0.00
  -10   21   74      5.02      0.00
    0   12   66      4.99      0.00
   -1   13   67      0.99      0.00
   -2   14   68      8.90      0.00
   -3   15   69      3.26      0.00
   -4   16   70     -6.64      0.00
   -5   17   71     16.40      0.00
   -6   18   72     -4.85      0.00
   -7   19   73     -4.54      0.00
   -8   20   74     -1.95      0.00
   -9   21   75      1.09      0.00
    0   13   68    -30.30      0.00
   -1   14   69    -13.79      0.00
   -2   15   70     -3.99      0.00
   -3   16   71     -3.59      0.00
   -4   17   72     -5.12      0.00
   -5   18   73     -2.97      0.00
   -6   19   74    -12.59      0.00
   -7   20   75     19.21      0.00
    0   14   70    -16.90      0.00
   -1   15   71      9.32      0.00
   -2   16   72      4.77      0.00
   -3   17   73     -2.34      0.00
   -4   18   74     -1.61      0.00
   -5   19   75     -9.51      0.00
   -6   20   76      4.79      0.00
    0   15   72      3.06      0.00
   -1   16   73     -0.50      0.00
   -2   17   74      5.86      0.00
   -3   18   75      5.46      0.00
   -4   19   76     -3.85      0.00
    0   16   74    -10.04      0.00
   -1   17   75      5.18      0.00
   -2   18   76     14.07      0.00
    0   17   76      2.54      0.00
  -14   38   17     13.45      0.00
  -27   38    4     10.02      0.00
   -5   35   20     20.72      0.00
   -3   34   20     10.84      0.00
   -4   34   19     16.77      0.00
   -1   33   20     14.59      0.00
   -2   33   19     21.07      0.00
   -3   33   18     22.35      0.00
    0   32   19    -10.36      0.00
   -1   32   18      4.11      0.00
   -2   32   17      1.11      0.00
    0   31   17      8.53      0.00
   -1   31   16     10.98      0.00
    0   30   15     17.68      0.00
    0   33   12      0.43      0.00
    0   32   13     -4.79      0.00
    0   31   14      0.72      0.00
    0    0   45     20.53      0.00
   -1    1   46    -15.11      0.00
   -2    2   47     10.39      0.00
   -3    3   48     20.93      0.00
   -4    4   49     -0.78      0.00
   -5    5   50      9.24      0.00
   -6    6   51    -11.64      0.00
   -7    7   52      1.03      0.00
   -8    8   53      0.66      0.00
   -9    9   54      5.79      0.00
  -10   10   55     -9.42      0.00
  -11   11   56    -10.14      0.00
  -12   12   57     -2.87      0.00
  -13   13   58    -11.78      0.00
  -14   14   59    -14.24      0.00
  -15   15   60    -14.52      0.00
  -16   16   61     22.71      0.00
  -17   17   62      3.30      0.00
  -18   18   63      3.68      0.00
  -19   19   64    -22.51      0.00
  -20   20   65      4.41      0.00
  -21   21   66     -4.09      0.00
  -22   22   67     -2.58      0.00
   -1   34   13      6.62      0.00
   -1   33   14     -0.71      0.00
   -1   32   15     19.27      0.00
    0    1   47      2.25      0.00
   -1    2   48    -17.15      0.00
   -2    3   49      3.33      0.00
   -3    4   50      4.10      0.00
   -4    5   51     -0.85      0.00
   -5    6   52     -3.93      0.00
   -6    7   53     -7.94      0.00
   -7    8   54     -4.35      0.00
   -8    9   55     -1.85      0.00
   -9   10   56      9.32      0.00
  -10   11   57     -9.57      0.00
  -11   12   58      1.13      0.00
  -12   13   59    -12.07      0.00
  -13   14   60      3.21      0.00
  -14   15   61     -6.58      0.00
  -15   16   62     -3.73      0.00
  -16   17   63     -1.03      0.00
  -17   18   64      8.96      0.00
  -18   19   65    -14.79      0.00
  -19   20   66     -7.87      0.00
  -20   21   67     -1.74      0.00
  -21   22   68      7.11      0.00
   -2   34   15      5.37      0.00
   -2   33   16      6.01      0.00
    0    2   49     11.08      0.00
   -1    3   50      4.45      0.00
   -2    4   51     -4.57      0.00
   -3    5   52      0.42      0.00
   -4    6   53      7.11      0.00
   -5    7   54     -5.88      0.00
   -6    8   55      5.12      0.00
   -7    9   56     -4.27      0.00
   -8   10   57      6.01      0.00
   -9   11   58     -0.48      0.00
  -10   12   59     -8.67      0.00
  -11   13   60     -5.20      0.00
  -12   14   61     -1.51      0.00
  -13   15   62      0.69      0.00
  -14   16   63     -6.17      0.00
  -15   17   64     -7.63      0.00
  -16   18   65     10.81      0.00
  -17   19   66     -4.16      0.00
  -18   20   67     -8.34      0.00
  -19   21   68     -6.34      0.00
  -20   22   69     -8.52      0.00
   -3   34   17      7.37      0.00
    0    3   51    -12.83      0.00
   -1    4   52      2.14      0.00
   -2    5   53     -0.55      0.00
   -3    6   54      8.91      0.00
   -4    7   55     -0.39      0.00
   -5    8   56     -3.38      0.00
   -6    9   57     -1.13      0.00
   -7   10   58      7.96      0.00
   -8   11   59      2.15      0.00
   -9   12   60     -9.28      0.00
  -10   13   61     -7.34      0.00
  -11   14   62     -8.75      0.00
  -12   15   63      6.47      0.00
  -13   16   64     -4.69      0.00
  -14   17   65      0.08      0.00
  -15   18   66    -12.69      0.00
  -16   19   67      7.30      0.00
  -17   20   68      3.41      0.00
  -18   21   69     -4.21      0.00
  -19   22   70    -11.77      0.00
   -4   35   18      3.57      0.00
    0    4   53    -14.46      0.00
   -1    5   54      6.88      0.00
   -2    6   55     -3.26      0.00
   -3    7   56     10.70      0.00
   -4    8   57      6.40      0.00
   -5    9   58     10.07      0.00
   -6   10   59    -10.00      0.00
   -7   11   60      2.60      0.00
   -8   12   61     11.32      0.00
   -9   13   62     11.27      0.00
  -10   14   63     -6.61      0.00
  -11   15   64      0.79      0.00
  -12   16   65      0.02      0.00
  -13   17   66      3.99      0.00
  -14   18   67      0.18      0.00
  -15   19   68      7.71      0.00
  -16   20   69     -2.06      0.00
  -17   21   70     14.28      0.00
  -18   22   71     -8.71      0.00
    0    5   55     -3.09      0.00
   -1    6   56     -0.62      0.00
   -2    7   57      4.66      0.00
   -3    8   58      4.28      0.00
   -4    9   59      1.42      0.00
   -5   10   60     -7.17      0.00
   -6   11   61      1.62      0.00
   -7   12   62      1.27      0.00
   -8   13   63      8.55      0.00
   -9   14   64     -3.42      0.00
  -10   15   65      2.56      0.00
  -11   16   66    -15.51      0.00
  -12   17   67     -5.94      0.00
  -13   18   68     -4.50      0.00
  -14   19   69     -7.10      0.00
  -15   20   70      6.66      0.00
  -16   21   71     10.52      0.00
  -17   22   72      0.32      0.00
    0    6   57     -7.27      0.00
   -1    7   58     13.43      0.00
   -2    8   59     10.84      0.00
   -3    9   60      5.03      0.00
   -4   10   61     -3.46      0.00
   -5   11   62      2.68      0.00
   -6   12   63      5.85      0.00
   -7   13   64     -8.82      0.00
   -8   14   65      1.06      0.00
   -9   15   66     14.31      0.00
  -10   16   67      5.96      0.00
  -11   17   68     -7.08      0.00
  -12   18   69     -2.47      0.00
  -13   19   70      5.17      0.00
  -14   20   71     16.36      0.00
  -15   21   72     11.44      0.00
    0    7   59      2.86      0.00
   -1    8   60     -0.76      0.00
   -2    9   61     -3.99      0.00
   -3   10   62      7.44      0.00
   -4   11   63      6.88      0.00
   -5   12   64      4.73      0.00
   -6   13   65     -3.87      0.00
   -7   14   66     -6.46      0.00
   -8   15   67     -2.83      0.00
   -9   16   68      8.00      0.00
  -10   17   69     -4.80      0.00
  -11   18   70      7.48      0.00
  -12   19   71     -4.26      0.00
  -13   20   72     -4.10      0.00
  -14   21   73     -1.28      0.00
    0    8   61     -0.09      0.00
   -1    9   62     -9.42      0.00
   -2   10   63      6.11      0.00
   -3   11   64      4.15      0.00
   -4   12   65     -5.19      0.00
   -5   13   66     -2.24      0.00
   -6   14   67     16.01      0.00
   -7   15   68     -1.67      0.00
   -8   16   69     -1.41      0.00
   -9   17   70      8.82      0.00
  -10   18   71     -5.36      0.00
  -11   19   72    -11.88      0.00
  -12   20   73     -4.37      0.00
  -13   21   74     -1.04      0.00
    0    9   63     -4.53      0.00
   -1   10   64      1.24      0.00
   -2   11   65      5.78      0.00
   -3   12   66     -4.78      0.00
   -4   13   67      0.10      0.00
   -5   14   68      3.22      0.00
   -6   15   69      2.88      0.00
   -7   16   70     -8.98      0.00
   -8   17   71     -5.17      0.00
   -9   18   72     -3.86      0.00
  -10   19   73     -7.16      0.00
  -11   20   74      0.48      0.00
  -12   21   75     -1.03      0.00
    0   10   65    -17.78      0.00
   -1   11   66      1.54      0.00
   -2   12   67    -12.67      0.00
   -3   13   68      0.12      0.00
   -4   14   69      6.37      0.00
   -5   15   70      3.07      0.00
   -6   16   71     -9.36      0.00
   -7   17   72    -11.94      0.00
   -8   18   73     -3.05      0.00
   -9   19   74     12.38      0.00
  -10   20   75      4.38      0.00
    0   11   67      1.83      0.00
   -1   12   68     -6.09      0.00
   -2   13   69      7.07      0.00
   -3   14   70     -5.70      0.00
   -4   15   71      5.38      0.00
   -5   16   72     -7.23      0.00
   -6   17   73     15.19      0.00
   -7   18   74     -7.42      0.00
   -8   19   75     -7.04      0.00
   -9   20   76     -4.88      0.00
    0   12   69     -7.37      0.00
   -1   13   70     11.59      0.00
   -2   14   71     12.90      0.00
   -3   15   72    -20.53      0.00
   -4   16   73      3.88      0.00
   -5   17   74     17.15      0.00
   -6   18   75      8.00      0.00
   -7   19   76      9.81      0.00
    0   13   71    -10.16      0.00
   -1   14   72     -8.01      0.00
   -2   15   73    -12.59      0.00
   -3   16   74     -4.16      0.00
   -4   17   75      3.42      0.00
   -5   18   76     -6.33      0.00
   -6   19   77      4.34      0.00
    0   14   73      9.19      0.00
   -1   15   74      7.10      0.00
   -2   16   75     -0.55      0.00
   -3   17   76      4.34      0.00
   -4   18   77     -5.35      0.00
    0   15   75      4.52      0.00
   -1   16   76     -2.35      0.00
   -2   17   77      3.39      0.00
   -3   18   78      2.61      0.00
    0   16   77    -10.88      0.00
   -1   17   78     -3.55      0.00
   -2   34   18      8.77      0.00
    0   33   18    -26.43      0.00
   -1   33   17      9.13      0.00
    0   32   16     -3.43      0.00
    0   33   15      8.72      0.00
    0    0   48     12.20      0.00
   -1    1   49      4.43      0.00
   -2    2   50    -18.32      0.00
   -3    3   51    -25.12      0.00
   -4    4   52     11.69      0.00
   -5    5   53     -0.91      0.00
   -6    6   54    -16.79      0.00
   -7    7   55     -4.52      0.00
   -8    8   56      4.68      0.00
   -9    9   57    -14.07      0.00
  -10   10   58      3.85      0.00
  -11   11   59    -23.68      0.00
  -12   12   60      6.28      0.00
  -13   13   61    -15.42      0.00
  -14   14   62    -11.99      0.00
  -15   15   63    -17.33      0.00
  -16   16   64     -1.49      0.00
  -17   17   65     -2.59      0.00
  -18   18   66      1.14      0.00
  -19   19   67     -5.33      0.00
  -20   20   68    -11.74      0.00
  -21   21   69      6.61      0.00
    0    1   50     -8.30      0.00
   -1    2   51      9.12      0.00
   -2    3   52     -5.69      0.00
   -3    4   53     -3.57      0.00
   -4    5   54     -0.92      0.00
   -5    6   55     -2.62      0.00
   -6    7   56     -8.67      0.00
   -7    8   57      8.47      0.00
   -8    9   58      0.80      0.00
   -9   10   59     -3.05      0.00
  -10   11   60      4.09      0.00
  -11   12   61    -10.00      0.00
  -12   13   62      0.67      0.00
  -13   14   63      7.22      0.00
  -14   15   64     -9.40      0.00
  -15   16   65      1.08      0.00
  -16   17   66     -5.04      0.00
  -17   18   67     -0.43      0.00
  -18   19   68      7.20      0.00
  -19   20   69     -2.05      0.00
  -20   21   70     -0.84      0.00
    0    2   52      4.45      0.00
   -1    3   53     -5.70      0.00
   -2    4   54    -11.74      0.00
   -3    5   55      0.72      0.00
   -4    6   56      8.58      0.00
   -5    7   57      6.92      0.00
   -6    8   58     -3.65      0.00
   -7    9   59      3.29      0.00
   -8   10   60     11.29      0.00
   -9   11   61    -10.04      0.00
  -10   12   62      4.12      0.00
  -11   13   63    -12.68      0.00
  -12   14   64     14.83      0.00
  -13   15   65     -5.14      0.00
  -14   16   66    -10.73      0.00
  -15   17   67     -1.23      0.00
  -16   18   68      7.63      0.00
  -17   19   69     -9.42      0.00
  -18   20   70      7.08      0.00
  -19   21   71      3.47      0.00
    0    3   54     20.23      0.00
   -1    4   55     -7.59      0.00
   -2    5   56      4.03      0.00
   -3    6   57    -10.89      0.00
   -4    7   58      9.58      0.00
   -5    8   59     -8.16      0.00
   -6    9   60      2.01      0.00
   -7   10   61     -1.48      0.00
   -8   11   62     -5.39      0.00
   -9   12   63    -20.94      0.00
  -10   13   64      6.16      0.00
  -11   14   65      0.70      0.00
  -12   15   66      7.73      0.00
  -13   16   67      0.74      0.00
  -14   17   68     -2.21      0.00
  -15   18   69      0.44      0.00
  -16   19   70      1.89      0.00
  -17   20   71     -7.25      0.00
  -18   21   72     12.72      0.00
    0    4   56     17.42      0.00
   -1    5   57      4.26      0.00
   -2    6   58     -7.47      0.00
   -3    7   59    -14.87      0.00
   -4    8   60      3.97      0.00
   -5    9   61      1.61      0.00
   -6   10   62      5.14      0.00
   -7   11   63      6.52      0.00
   -8   12   64      5.87      0.00
   -9   13   65     -8.41      0.00
  -10   14   66     -4.82      0.00
  -11   15   67    -11.97      0.00
  -12   16   68      0.95      0.00
  -13   17   69      6.21      0.00
  -14   18   70      1.69      0.00
  -15   19   71    -16.24      0.00
  -16   20   72     -5.75      0.00
  -17   21   73     -7.76      0.00
    0    5   58      4.29      0.00
   -1    6   59     -8.91      0.00
   -2    7   60     -3.61      0.00
   -3    8   61     -7.30      0.00
   -4    9   62      0.32      0.00
   -5   10   63     -7.00      0.00
   -6   11   64    -10.00      0.00
   -7   12   65      6.05      0.00
   -8   13   66     -4.93      0.00
   -9   14   67     -7.91      0.00
  -10   15   68     -6.05      0.00
  -11   16   69     -4.82      0.00
  -12   17   70      1.95      0.00
  -13   18   71    -12.78      0.00
  -14   19   72      1.31      0.00
  -15   20   73    -14.71      0.00
  -16   21   74      4.82      0.00
    0    6   60      2.10      0.00
   -1    7   61     -1.22      0.00
   -2    8   62     -1.69      0.00
   -3    9   63     -5.72      0.00
   -4   10   64      9.66      0.00
   -5   11   65     -9.89      0.00
   -6   12   66      1.85      0.00
   -7   13   67     -2.74      0.00
   -8   14   68     -7.94      0.00
   -9   15   69      5.83      0.00
  -10   16   70      8.13      0.00
  -11   17   71      0.45      0.00
  -12   18   72    -12.19      0.00
  -13   19   73     -7.30      0.00
  -14   20   74     -0.39      0.00
    0    7   62     -2.17      0.00
   -1    8   63      8.89      0.00
   -2    9   64     -5.89      0.00
   -3   10   65     -2.18      0.00
   -4   11   66     -5.82      0.00
   -5   12   67      5.26      0.00
   -6   13   68     -1.12      0.00
   -7   14   69      0.86      0.00
   -8   15   70      8.38      0.00
   -9   16   71     -5.65      0.00
  -10   17   72     -8.00      0.00
  -11   18   73      0.25      0.00
  -12   19   74      0.86      0.00
  -13   20   75     -6.21      0.00
    0    8   64      5.22      0.00
   -1    9   65     -1.64      0.00
   -2   10   66      7.22      0.00
   -3   11   67      3.59      0.00
   -4   12   68      8.72      0.00
   -5   13   69     -5.54      0.00
   -6   14   70      2.24      0.00
   -7   15   71      2.00      0.00
   -8   16   72     -9.18      0.00
   -9   17   73     -1.09      0.00
  -10   18   74     -2.88      0.00
  -11   19   75     -6.28      0.00
  -12   20   76    -17.42      0.00
    0    9   66     -4.59      0.00
   -1   10   67      0.15      0.00
   -2   11   68      7.63      0.00
   -3   12   69     -5.81      0.00
   -4   13   70     -1.24      0.00
   -5   14   71      7.01      0.00
   -6   15   72     -9.51      0.00
   -7   16   73    -11.19      0.00
   -8   17   74    -14.55      0.00
   -9   18   75     -2.84      0.00
  -10   19   76     -7.43      0.00
  -11   20   77      0.31      0.00
    0   10   68     -7.67      0.00
   -1   11   69      6.09      0.00
   -2   12   70      1.68      0.00
   -3   13   71      6.65      0.00
   -4   14   72      0.46      0.00
   -5   15   73      1.40      0.00
   -6   16   74     -0.29      0.00
   -7   17   75     -9.47      0.00
   -8   18   76     -1.47      0.00
   -9   19   77      4.85      0.00
    0   11   70     24.10      0.00
   -1   12   71     10.01      0.00
   -2   13   72    -16.93      0.00
   -3   14   73     -6.75      0.00
   -4   15   74    -19.93      0.00
   -5   16   75     15.52      0.00
   -6   17   76     -4.09      0.00
   -7   18   77     11.69      0.00
   -8   19   78     -4.75      0.00
    0   12   72     -0.75      0.00
   -1   13   73     -4.59      0.00
   -2   14   74      1.79      0.00
   -3   15   75     -1.58      0.00
   -4   16   76      5.17      0.00
   -5   17   77      3.03      0.00
   -6   18   78      5.50      0.00
    0   13   74     -6.26      0.00
   -1   14   75      4.26      0.00
   -2   15   76     -5.43      0.00
   -3   16   77      9.06      0.00
   -4   17   78     -2.30      0.00
    0   14   76     12.47      0.00
   -1   15   77      4.85      0.00
   -2   16   78     19.30      0.00
   -3   17   79      9.52      0.00
    0   15   78      8.95      0.00
   -1   16   79      9.41      0.00
    0    0   51     11.52      0.00
   -1    1   52    -14.48      0.00
   -2    2   53      0.38      0.00
   -3    3   54     12.92      0.00
   -4    4   55      4.81      0.00
   -5    5   56      4.49      0.00
   -6    6   57      6.26      0.00
   -7    7   58     -0.93      0.00
   -8    8   59      5.22      0.00
   -9    9   60      0.93      0.00
  -10   10   61      1.41      0.00
  -11   11   62    -10.41      0.00
  -12   12   63      2.00      0.00
  -13   13   64      4.02      0.00
  -14   14   65     -5.75      0.00
  -15   15   66    -10.18      0.00
  -16   16   67     -4.96      0.00
  -17   17   68     -3.77      0.00
  -18   18   69      0.24      0.00
  -19   19   70     -1.60      0.00
  -20   20   71     -7.70      0.00
    0    1   53     10.19      0.00
   -1    2   54     -6.58      0.00
   -2    3   55      3.05      0.00
   -3    4   56     -0.96      0.00
   -4    5   57     13.70      0.00
   -5    6   58     -1.67      0.00
   -6    7   59     10.89      0.00
   -7    8   60     -0.01      0.00
   -8    9   61     11.80      0.00
   -9   10   62      5.31      0.00
  -10   11   63     -2.72      0.00
  -11   12   64      0.90      0.00
  -12   13   65     -0.46      0.00
  -13   14   66     -7.85      0.00
  -14   15   67      4.71      0.00
  -15   16   68     -7.30      0.00
  -16   17   69      1.80      0.00
  -17   18   70     10.84      0.00
  -18   19   71      5.58      0.00
  -19   20   72      9.72      0.00
    0    2   55     -5.74      0.00
   -1    3   56      3.44      0.00
   -2    4   57      1.01      0.00
   -3    5   58      9.31      0.00
   -4    6   59      1.15      0.00
   -5    7   60     -1.14      0.00
   -6    8   61      2.55      0.00
   -7    9   62      8.00      0.00
   -8   10   63     12.50      0.00
   -9   11   64    -12.06      0.00
  -10   12   65     -1.13      0.00
  -11   13   66      5.89      0.00
  -12   14   67      6.94      0.00
  -13   15   68     -5.26      0.00
  -14   16   69      5.53      0.00
  -15   17   70     17.80      0.00
  -16   18   71     19.13      0.00
  -17   19   72      4.45      0.00
  -18   20   73     -5.11      0.00
    0    3   57     -0.42      0.00
   -1    4   58      5.58      0.00
   -2    5   59    -12.48      0.00
   -3    6   60      9.36      0.00
   -4    7   61     -1.49      0.00
   -5    8   62     -0.22      0.00
   -6    9   63      8.81      0.00
   -7   10   64     -1.53      0.00
   -8   11   65     -0.01      0.00
   -9   12   66    -11.14      0.00
  -10   13   67     15.45      0.00
  -11   14   68     -0.36      0.00
  -12   15   69     10.49      0.00
  -13   16   70     -9.87      0.00
  -14   17   71     10.11      0.00
  -15   18   72      0.79      0.00
  -16   19   73    -11.42      0.00
  -17   20   74      5.37      0.00
    0    4   59      1.35      0.00
   -1    5   60     -0.50      0.00
   -2    6   61     -0.63      0.00
   -3    7   62     -6.43      0.00
   -4    8   63     -1.10      0.00
   -5    9   64     15.24      0.00
   -6   10   65      2.14      0.00
   -7   11   66      6.85      0.00
   -8   12   67      5.46      0.00
   -9   13   68     -9.69      0.00
  -10   14   69     -9.12      0.00
  -11   15   70     -6.63      0.00
  -12   16   71      9.44      0.00
  -13   17   72     -4.47      0.00
  -14   18   73      7.04      0.00
  -15   19   74    -10.06      0.00
  -16   20   75      1.12      0.00
    0    5   61    -12.52      0.00
   -1    6   62     -6.27      0.00
   -2    7   63      0.97      0.00
   -3    8   64     -2.49      0.00
   -4    9   65      1.37      0.00
   -5   10   66     -6.47      0.00
   -6   11   67      2.64      0.00
   -7   12   68     -2.60      0.00
   -8   13   69     -4.63      0.00
   -9   14   70      6.13      0.00
  -10   15   71      5.32      0.00
  -11   16   72      2.46      0.00
  -12   17   73     -5.06      0.00
  -13   18   74     -7.78      0.00
  -14   19   75      6.72      0.00
    0    6   63     -5.39      0.00
   -1    7   64      0.29      0.00
   -2    8   65      2.06      0.00
   -3    9   66      0.89      0.00
   -4   10   67      2.36      0.00
   -5   11   68      9.80      0.00
   -6   12   69      7.65      0.00
   -7   13   70      0.73      0.00
   -8   14   71      8.35      0.00
   -9   15   72     -5.19      0.00
  -10   16   73      8.78      0.00
  -11   17   74     13.23      0.00
  -12   18   75      9.35      0.00
  -13   19   76     -0.90      0.00
    0    7   65      8.47      0.00
   -1    8   66     -2.97      0.00
   -2    9   67      6.02      0.00
   -3   10   68     -1.56      0.00
   -4   11   69    -13.52      0.00
   -5   12   70    -12.94      0.00
   -6   13   71    -15.12      0.00
   -7   14   72     -0.22      0.00
   -8   15   73      5.10      0.00
   -9   16   74     -1.28      0.00
  -10   17   75      5.48      0.00
  -11   18   76      5.56      0.00
  -12   19   77      1.54      0.00
    0    8   67      6.64      0.00
   -1    9   68     -7.34      0.00
   -2   10   69     -6.28      0.00
   -3   11   70     -8.97      0.00
   -4   12   71     -8.40      0.00
   -5   13   72     -8.45      0.00
   -6   14   73    -14.22      0.00
   -7   15   74      7.32      0.00
   -8   16   75     -1.38      0.00
   -9   17   76      3.30      0.00
  -10   18   77     15.40      0.00
  -11   19   78     -2.47      0.00
    0    9   69    -15.06      0.00
   -1   10   70     -5.55      0.00
   -2   11   71     -2.62      0.00
   -3   12   72    -12.77      0.00
   -4   13   73     12.96      0.00
   -5   14   74      0.65      0.00
   -6   15   75     15.61      0.00
   -7   16   76     -4.63      0.00
   -8   17   77     -8.38      0.00
   -9   18   78     -7.32      0.00
    0   10   71      4.89      0.00
   -1   11   72     -2.37      0.00
   -2   12   73    -10.39      0.00
   -3   13   74     -8.60      0.00
   -4   14   75      1.22      0.00
   -5   15   76      1.23      0.00
   -6   16   77      5.54      0.00
   -7   17   78     -8.26      0.00
   -8   18   79     -1.89      0.00
    0   11   73     12.13      0.00
   -1   12   74     -5.57      0.00
   -2   13   75      7.29      0.00
   -3   14   76     -6.60      0.00
   -4   15   77      2.42      0.00
   -5   16   78     -5.91      0.00
   -6   17   79     -1.54      0.00
    0   12   75     -4.27      0.00
   -1   13   76    -13.81      0.00
   -2   14   77     -0.89      0.00
   -3   15   78      2.53      0.00
   -4   16   79      1.12      0.00
   -5   17   80     -1.82      0.00
    0   13   77    -23.24      0.00
   -1   14   78    -13.80      0.00
   -2   15   79     -3.47      0.00
   -3   16   80      7.36      0.00
    0   14   79     -3.62      0.00
   -1   15   80      4.53      0.00
    0    0   54     -3.71      0.00
   -1    1   55      5.83      0.00
   -2    2   56      5.24      0.00
   -3    3   57     -6.33      0.00
   -4    4   58     -2.15      0.00
   -5    5   59      5.71      0.00
   -6    6   60      9.04      0.00
   -7    7   61      3.45      0.00
   -8    8   62     -5.37      0.00
   -9    9   63     -6.40      0.00
  -10   10   64      1.91      0.00
  -11   11   65    -11.32      0.00
  -12   12   66      6.57      0.00
  -13   13   67     14.90      0.00
  -14   14   68    -10.62      0.00
  -15   15   69     -5.04      0.00
  -16   16   70    -10.47      0.00
  -17   17   71     -0.30      0.00
  -18   18   72      9.10      0.00
  -19   19   73      0.15      0.00
    0    1   56    -12.60      0.00
   -1    2   57      5.63      0.00
   -2    3   58      8.49      0.00
   -3    4   59    -15.78      0.00
   -4    5   60     -3.15      0.00
   -5    6   61     -0.21      0.00
   -6    7   62     -0.23      0.00
   -7    8   63     12.51      0.00
   -8    9   64      8.00      0.00
   -9   10   65    -10.51      0.00
  -10   11   66     -7.58      0.00
  -11   12   67     -1.79      0.00
  -12   13   68     -0.94      0.00
  -13   14   69     -7.04      0.00
  -14   15   70      1.21      0.00
  -15   16   71     10.00      0.00
  -16   17   72     10.87      0.00
  -17   18   73      6.37      0.00
  -18   19   74     15.07      0.00
    0    2   58     -1.79      0.00
   -1    3   59     -5.12      0.00
   -2    4   60      0.59      0.00
   -3    5   61      6.74      0.00
   -4    6   62     -1.09      0.00
   -5    7   63      0.57      0.00
   -6    8   64      3.52      0.00
   -7    9   65      0.68      0.00
   -8   10   66     -5.47      0.00
   -9   11   67     -9.86      0.00
  -10   12   68     11.80      0.00
  -11   13   69     -7.29      0.00
  -12   14   70     -6.79      0.00
  -13   15   71     12.38      0.00
  -14   16   72      0.15      0.00
  -15   17   73     15.83      0.00
  -16   18   74      3.32      0.00
  -17   19   75     -7.41      0.00
    0    3   60     10.77      0.00
   -1    4   61     -1.90      0.00
   -2    5   62     14.36      0.00
   -3    6   63    -10.88      0.00
   -4    7   64      2.40      0.00
   -5    8   65      4.00      0.00
   -6    9   66      4.35      0.00
   -7   10   67     -5.14      0.00
   -8   11   68     -9.36      0.00
   -9   12   69    -14.68      0.00
  -10   13   70      7.81      0.00
  -11   14   71      4.04      0.00
  -12   15   72      5.99      0.00
  -13   16   73      6.11      0.00
  -14   17   74     -4.76      0.00
  -15   18   75    -11.26      0.00
  -16   19   76     -2.58      0.00
    0    4   62      4.91      0.00
   -1    5   63     -1.52      0.00
   -2    6   64      7.57      0.00
   -3    7   65     -6.93      0.00
   -4    8   66     -2.38      0.00
   -5    9   67      1.16      0.00
   -6   10   68      9.88      0.00
   -7   11   69     -5.71      0.00
   -8   12   70     -6.48      0.00
   -9   13   71    -18.57      0.00
  -10   14   72    -13.33      0.00
  -11   15   73     -7.26      0.00
  -12   16   74    -12.60      0.00
  -13   17   75     -2.23      0.00
  -14   18   76      9.70      0.00
  -15   19   77     -4.84      0.00
    0    5   64     -9.13      0.00
   -1    6   65     -5.26      0.00
   -2    7   66     -9.93      0.00
   -3    8   67      2.08      0.00
   -4    9   68      1.31      0.00
   -5   10   69      7.66      0.00
   -6   11   70     -3.72      0.00
   -7   12   71     -8.65      0.00
   -8   13   72     -5.74      0.00
   -9   14   73      0.45      0.00
  -10   15   74      0.70      0.00
  -11   16   75     -6.63      0.00
  -12   17   76    -10.61      0.00
  -13   18   77     10.31      0.00
    0    6   66     -0.89      0.00
   -1    7   67     -3.96      0.00
   -2    8   68      2.90      0.00
   -3    9   69     -5.84      0.00
   -4   10   70     -2.33      0.00
   -5   11   71     -1.06      0.00
   -6   12   72      1.04      0.00
   -7   13   73     -8.70      0.00
   -8   14   74      3.95      0.00
   -9   15   75     -4.76      0.00
  -10   16   76      1.82      0.00
  -11   17   77     12.83      0.00
  -12   18   78     -1.66      0.00
    0    7   68      3.42      0.00
   -1    8   69     -0.66      0.00
   -2    9   70      4.91      0.00
   -3   10   71    -14.81      0.00
   -4   11   72     -4.48      0.00
   -5   12   73    -18.23      0.00
   -6   13   74    -16.20      0.00
   -7   14   75      1.31      0.00
   -8   15   76     13.21      0.00
   -9   16   77     -6.11      0.00
  -10   17   78      7.35      0.00
  -11   18   79     -8.08      0.00
    0    8   70     -1.65      0.00
   -1    9   71     -5.32      0.00
   -2   10   72    -11.90      0.00
   -3   11   73    -12.81      0.00
   -4   12   74      1.05      0.00
   -5   13   75      2.44      0.00
   -6   14   76     11.86      0.00
   -7   15   77     15.20      0.00
   -8   16   78     -1.89      0.00
   -9   17   79      8.25      0.00
    0    9   72      1.92      0.00
   -1   10   73     -5.88      0.00
   -2   11   74     -5.87      0.00
   -3   12   75      9.56      0.00
   -4   13   76      8.31      0.00
   -5   14   77     -0.09      0.00
   -6   15   78      0.57      0.00
   -7   16   79     -7.90      0.00
   -8   17   80      5.80      0.00
    0   10   74     13.40      0.00
   -1   11   75      9.57      0.00
   -2   12   76      5.48      0.00
   -3   13   77     -1.29      0.00
   -4   14   78     -8.29      0.00
   -5   15   79     -1.65      0.00
   -6   16   80     11.04      0.00
    0   11   76     -2.86      0.00
   -1   12   77     -2.73      0.00
   -2   13   78    -10.80      0.00
   -3   14   79     10.47      0.00
   -4   15   80     -2.16      0.00
   -5   16   81      4.91      0.00
    0   12   78     -9.00      0.00
   -1   13   79     -4.83      0.00
   -2   14   80     15.10      0.00
   -3   15   81      2.09      0.00
    0   13   80     -2.79      0.00
   -1   14   81     -3.66      0.00
  -17   39    4    -12.43      0.00
    0    0   57     -9.73      0.00
   -1    1   58      8.54      0.00
   -2    2   59      0.13      0.00
   -3    3   60      9.15      0.00
   -4    4   61     -1.74      0.00
   -5    5   62     -6.65      0.00
   -6    6   63     -4.42      0.00
   -7    7   64     10.00      0.00
   -8    8   65     -3.00      0.00
   -9    9   66     -5.52      0.00
  -10   10   67     -5.23      0.00
  -11   11   68      2.59      0.00
  -12   12   69     -9.77      0.00
  -13   13   70      6.21      0.00
  -14   14   71      1.31      0.00
  -15   15   72     -4.53      0.00
  -16   16   73    -12.79      0.00
  -17   17   74      3.14      0.00
  -18   18   75      9.28      0.00
    0    1   59      4.75      0.00
   -1    2   60     -6.97      0.00
   -2    3   61     -4.38      0.00
   -3    4   62      8.57      0.00
   -4    5   63     -3.84      0.00
   -5    6   64    -10.56      0.00
   -6    7   65      0.01      0.00
   -7    8   66      3.43      0.00
   -8    9   67     11.92      0.00
   -9   10   68     -1.01      0.00
  -10   11   69     -3.79      0.00
  -11   12   70     -6.84      0.00
  -12   13   71     -9.85      0.00
  -13   14   72     -5.13      0.00
  -14   15   73      0.12      0.00
  -15   16   74      4.79      0.00
  -16   17   75     -3.26      0.00
  -17   18   76     12.36      0.00
    0    2   61     -4.73      0.00
   -1    3   62      5.16      0.00
   -2    4   63     11.95      0.00
   -3    5   64      5.72      0.00
   -4    6   65      0.60      0.00
   -5    7   66      2.54      0.00
   -6    8   67     -4.97      0.00
   -7    9   68      6.38      0.00
   -8   10   69     -8.29      0.00
   -9   11   70      2.12      0.00
  -10   12   71      7.87      0.00
  -11   13   72     -2.40      0.00
  -12   14   73      2.38      0.00
  -13   15   74      0.62      0.00
  -14   16   75      6.89      0.00
  -15   17   76     -3.87      0.00
  -16   18   77    -13.22      0.00
    0    3   63    -10.17      0.00
   -1    4   64      1.10      0.00
   -2    5   65     -6.17      0.00
   -3    6   66     -0.86      0.00
   -4    7   67     -2.07      0.00
   -5    8   68      0.19      0.00
   -6    9   69    -14.81      0.00
   -7   10   70     14.91      0.00
   -8   11   71     -7.28      0.00
   -9   12   72     -1.05      0.00
  -10   13   73      0.58      0.00
  -11   14   74     10.83      0.00
  -12   15   75      7.04      0.00
  -13   16   76      0.08      0.00
  -14   17   77      8.51      0.00
  -15   18   78    -17.90      0.00
    0    4   65      7.05      0.00
   -1    5   66    -14.39      0.00
   -2    6   67      6.04      0.00
   -3    7   68      0.48      0.00
   -4    8   69     -5.05      0.00
   -5    9   70     -3.58      0.00
   -6   10   71     -8.89      0.00
   -7   11   72      5.99      0.00
   -8   12   73     -0.88      0.00
   -9   13   74      2.12      0.00
  -10   14   75      4.19      0.00
  -11   15   76     -9.72      0.00
  -12   16   77    -14.37      0.00
  -13   17   78     -5.20      0.00
    0    5   67     -1.90      0.00
   -1    6   68      0.12      0.00
   -2    7   69      5.37      0.00
   -3    8   70     -3.28      0.00
   -4    9   71     -7.37      0.00
   -5   10   72      1.01      0.00
   -6   11   73    -11.72      0.00
   -7   12   74      9.80      0.00
   -8   13   75     -0.33      0.00
   -9   14   76     -4.83      0.00
  -10   15   77     -2.70      0.00
  -11   16   78     -2.96      0.00
  -12   17   79     -6.13      0.00
    0    6   69     -6.74      0.00
   -1    7   70      0.98      0.00
   -2    8   71      5.76      0.00
   -3    9   72      4.74      0.00
   -4   10   73    -10.39      0.00
   -5   11   74      3.47      0.00
   -6   12   75    -10.88      0.00
   -7   13   76      6.48      0.00
   -8   14   77      4.04      0.00
   -9   15   78    -14.99      0.00
  -10   16   79      2.69      0.00
  -11   17   80     -0.61      0.00
    0    7   71     10.24      0.00
   -1    8   72      3.18      0.00
   -2    9   73     -3.67      0.00
   -3   10   74     -1.94      0.00
   -4   11   75      8.27      0.00
   -5   12   76      8.37      0.00
   -6   13   77    -13.08      0.00
   -7   14   78     15.88      0.00
   -8   15   79      5.33      0.00
   -9   16   80      4.57      0.00
    0    8   73      0.02      0.00
   -1    9   74     14.91      0.00
   -2   10   75      7.36      0.00
   -3   11   76     14.35      0.00
   -4   12   77     -1.33      0.00
   -5   13   78     -7.60      0.00
   -6   14   79     -6.25      0.00
   -7   15   80      6.99      0.00
   -8   16   81      8.41      0.00
    0    9   75      5.83      0.00
   -1   10   76      3.33      0.00
   -2   11   77     13.60      0.00
   -3   12   78     -6.89      0.00
   -4   13   79     -0.48      0.00
   -5   14   80      0.28      0.00
   -6   15   81      1.16      0.00
    0   10   77     -7.32      0.00
   -1   11   78     -1.33      0.00
   -2   12   79     -4.51      0.00
   -3   13   80     -7.26      0.00
   -4   14   81     -4.50      0.00
   -5   15   82      4.13      0.00
    0   11   79      2.57      0.00
   -1   12   80      0.46      0.00
   -2   13   81      4.00      0.00
   -3   14   82     -6.25      0.00
    0   12   81      3.92      0.00
   -1   13   82     -0.55      0.00
    0    0   60     24.39      0.00
   -1    1   61     -6.35      0.00
   -2    2   62     -2.04      0.00
   -3    3   63     -6.36      0.00
   -4    4   64     -6.83      0.00
   -5    5   65     -1.07      0.00
   -6    6   66     -1.18      0.00
   -7    7   67     13.16      0.00
   -8    8   68     -1.63      0.00
   -9    9   69     -0.90      0.00
  -10   10   70    -10.91      0.00
  -11   11   71     -0.86      0.00
  -12   12   72     -5.04      0.00
  -13   13   73     11.29      0.00
  -14   14   74     -6.11      0.00
  -15   15   75     -1.54      0.00
  -16   16   76    -26.09      0.00
  -17   17   77     -7.44      0.00
    0    1   62     12.73      0.00
   -1    2   63     -5.24      0.00
   -2    3   64      1.87      0.00
   -3    4   65      4.39      0.00
   -4    5   66      5.27      0.00
   -5    6   67     20.16      0.00
   -6    7   68      0.16      0.00
   -7    8   69    -16.46      0.00
   -8    9   70      3.31      0.00
   -9   10   71     -8.58      0.00
  -10   11   72      0.92      0.00
  -11   12   73      2.32      0.00
  -12   13   74      6.72      0.00
  -13   14   75     -8.25      0.00
  -14   15   76      3.64      0.00
  -15   16   77     11.47      0.00
  -16   17   78     -4.35      0.00
    0    2   64     -3.03      0.00
   -1    3   65     -2.05      0.00
   -2    4   66     -6.51      0.00
   -3    5   67     10.82      0.00
   -4    6   68      4.71      0.00
   -5    7   69      1.73      0.00
   -6    8   70     -4.92      0.00
   -7    9   71      2.79      0.00
   -8   10   72      2.87      0.00
   -9   11   73     -0.47      0.00
  -10   12   74      9.50      0.00
  -11   13   75      9.71      0.00
  -12   14   76      1.51      0.00
  -13   15   77      8.69      0.00
  -14   16   78      4.75      0.00
    0    3   66      9.07      0.00
   -1    4   67      0.14      0.00
   -2    5   68    -10.19      0.00
   -3    6   69      7.89      0.00
   -4    7   70    -19.11      0.00
   -5    8   71     -1.00      0.00
   -6    9   72      3.73      0.00
   -7   10   73     13.98      0.00
   -8   11   74     10.11      0.00
   -9   12   75      4.78      0.00
  -10   13   76     -1.44      0.00
  -11   14   77     12.86      0.00
  -12   15   78      0.20      0.00
  -13   16   79      7.91      0.00
    0    4   68     10.76      0.00
   -1    5   69      6.17      0.00
   -2    6   70      8.02      0.00
   -3    7   71      5.98      0.00
   -4    8   72     -3.57      0.00
   -5    9   73     10.17      0.00
   -6   10   74     -3.42      0.00
   -7   11   75     -1.35      0.00
   -8   12   76    -11.36      0.00
   -9   13   77     -8.30      0.00
  -10   14   78     -2.16      0.00
  -11   15   79      3.93      0.00
  -12   16   80     -3.49      0.00
    0    5   70      3.20      0.00
   -1    6   71      3.88      0.00
   -2    7   72      4.81      0.00
   -3    8   73      9.86      0.00
   -4    9   74    -15.08      0.00
   -5   10   75     -8.70      0.00
   -6   11   76      3.74      0.00
   -7   12   77     -2.28      0.00
   -8   13   78     -8.98      0.00
   -9   14   79    -20.49      0.00
  -10   15   80     -1.61      0.00
  -11   16   81      4.27      0.00
    0    6   72     -4.78      0.00
   -1    7   73    -11.15      0.00
   -2    8   74     -4.87      0.00
   -3    9   75     -2.35      0.00
   -4   10   76     -7.41      0.00
   -5   11   77     -1.14      0.00
   -6   12   78    -11.80      0.00
   -7   13   79     -2.73      0.00
   -8   14   80     -5.00      0.00
   -9   15   81    -10.48      0.00
    0    7   74      6.51      0.00
   -1    8   75     -8.91      0.00
   -2    9   76     -4.90      0.00
   -3   10   77      4.70      0.00
   -4   11   78     -7.48      0.00
   -5   12   79    -15.95      0.00
   -6   13   80     -7.40      0.00
   -7   14   81     -2.92      0.00
   -8   15   82      3.27      0.00
    0    8   76    -16.32      0.00
   -1    9   77    -11.21      0.00
   -2   10   78     11.10      0.00
   -3   11   79      9.94      0.00
   -4   12   80      7.73      0.00
   -5   13   81     -8.54      0.00
   -6   14   82      0.20      0.00
    0    9   78     -8.36      0.00
   -1   10   79     -0.93      0.00
   -2   11   80     -7.87      0.00
   -3   12   81      5.58      0.00
   -4   13   82      0.65      0.00
   -5   14   83      0.93      0.00
    0   10   80     -5.66      0.00
   -1   11   81      2.03      0.00
   -2   12   82     -3.75      0.00
   -3   13   83      4.85      0.00
    0   11   82      5.93      0.00
   -1   12   83     12.53      0.00
    0    0   63     11.08      0.00
   -1    1   64      7.44      0.00
   -2    2   65     -5.10      0.00
   -3    3   66     10.09      0.00
   -4    4   67     24.40      0.00
   -5    5   68     12.88      0.00
   -6    6   69    -32.04      0.00
   -7    7   70     -8.93      0.00
   -8    8   71     -0.97      0.00
   -9    9   72     17.98      0.00
  -10   10   73     -4.50      0.00
  -11   11   74     -6.92      0.00
  -12   12   75      2.75      0.00
  -13   13   76     -1.49      0.00
  -14   14   77      8.35      0.00
  -15   15   78      6.77      0.00
  -16   16   79    -11.86      0.00
    0    1   65     -5.26      0.00
   -1    2   66      2.38      0.00
   -2    3   67      7.92      0.00
   -3    4   68     12.34      0.00
   -4    5   69     14.03      0.00
   -5    6   70     -3.13      0.00
   -6    7   71      1.55      0.00
   -7    8   72      8.10      0.00
   -8    9   73    -12.84      0.00
   -9   10   74      3.46      0.00
  -10   11   75     -6.18      0.00
  -11   12   76      0.01      0.00
  -12   13   77     -2.70      0.00
  -13   14   78      2.45      0.00
  -14   15   79      4.10      0.00
    0    2   67     11.25      0.00
   -1    3   68     -7.77      0.00
   -2    4   69     -4.21      0.00
   -3    5   70     -6.66      0.00
   -4    6   71     -1.98      0.00
   -5    7   72      2.97      0.00
   -6    8   73    -11.15      0.00
   -7    9   74     -7.52      0.00
   -8   10   75    -10.01      0.00
   -9   11   76     -8.92      0.00
  -10   12   77      6.98      0.00
  -11   13   78     -4.99      0.00
  -12   14   79     -3.82      0.00
  -13   15   80      2.59      0.00
    0    3   69     -4.76      0.00
   -1    4   70    -11.39      0.00
   -2    5   71     11.05      0.00
   -3    6   72     10.96      0.00
   -4    7   73     -6.01      0.00
   -5    8   74     -6.39      0.00
   -6    9   75    -13.05      0.00
   -7   10   76      3.77      0.00
   -8   11   77      4.30      0.00
   -9   12   78      4.31      0.00
  -10   13   79      4.66      0.00
  -11   14   80     -1.39      0.00
  -12   15   81      2.49      0.00
    0    4   71     17.96      0.00
   -1    5   72     13.08      0.00
   -2    6   73      9.72      0.00
   -3    7   74     -3.11      0.00
   -4    8   75     -7.73      0.00
   -5    9   76     -0.46      0.00
   -6   10   77      4.69      0.00
   -7   11   78     -2.57      0.00
   -8   12   79    -10.16      0.00
   -9   13   80    -12.14      0.00
  -10   14   81     -2.91      0.00
  -11   15   82     13.06      0.00
    0    5   73     -6.19      0.00
   -1    6   74     -9.15      0.00
   -2    7   75      4.34      0.00
   -3    8   76     -5.98      0.00
   -4    9   77     -7.01      0.00
   -5   10   78     -5.15      0.00
   -6   11   79      0.69      0.00
   -7   12   80     -1.74      0.00
   -8   13   81      0.45      0.00
   -9   14   82     -8.25      0.00
    0    6   75     -8.20      0.00
   -1    7   76     -3.26      0.00
   -2    8   77     -1.83      0.00
   -3    9   78      3.34      0.00
   -4   10   79    -10.81      0.00
   -5   11   80      0.54      0.00
   -6   12   81    -16.14      0.00
   -7   13   82     -1.17      0.00
   -8   14   83      1.38      0.00
    0    7   77     -5.56      0.00
   -1    8   78      5.31      0.00
   -2    9   79     12.58      0.00
   -3   10   80      2.05      0.00
   -4   11   81    -10.64      0.00
   -5   12   82      0.46      0.00
   -6   13   83    -14.95      0.00
    0    8   79     -2.09      0.00
   -1    9   80     -2.41      0.00
   -2   10   81     -2.29      0.00
   -3   11   82      6.48      0.00
   -4   12   83      5.65      0.00
   -5   13   84      3.63      0.00
    0    9   81      5.77      0.00
   -1   10   82      2.81      0.00
   -2   11   83     -1.87      0.00
   -3   12   84      1.37      0.00
    0   10   83      4.45      0.00
   -1   11   84      3.66      0.00
    0    0   66     38.10      0.00
   -1    1   67     19.78      0.00
   -2    2   68      3.31      0.00
   -3    3   69    -10.33      0.00
   -4    4   70     10.78      0.00
   -5    5   71     -0.99      0.00
   -6    6   72     -3.73      0.00
   -7    7   73     -5.06      0.00
   -8    8   74     13.93      0.00
   -9    9   75      9.68      0.00
  -10   10   76     -0.99      0.00
  -11   11   77     -7.07      0.00
  -12   12   78     -2.56      0.00
  -13   13   79     -5.74      0.00
  -14   14   80     17.51      0.00
    0    1   68      7.88      0.00
   -1    2   69     -3.67      0.00
   -2    3   70    -10.90      0.00
   -3    4   71     14.71      0.00
   -4    5   72      4.37      0.00
   -5    6   73     -0.02      0.00
   -6    7   74     -4.11      0.00
   -7    8   75     -1.02      0.00
   -8    9   76      0.32      0.00
   -9   10   77     -4.06      0.00
  -10   11   78     -8.11      0.00
  -11   12   79      1.32      0.00
  -12   13   80      1.38      0.00
  -13   14   81      5.92      0.00
    0    2   70     -7.82      0.00
   -1    3   71     -7.56      0.00
   -2    4   72      1.05      0.00
   -3    5   73     -0.42      0.00
   -4    6   74      4.61      0.00
   -5    7   75      1.52      0.00
   -6    8   76     -8.90      0.00
   -7    9   77     -4.32      0.00
   -8   10   78    -10.45      0.00
   -9   11   79     -3.93      0.00
  -10   12   80     -2.57      0.00
  -11   13   81    -13.74      0.00
  -12   14   82     -1.56      0.00
    0    3   72      6.26      0.00
   -1    4   73     -2.28      0.00
   -2    5   74      2.10      0.00
   -3    6   75     -9.17      0.00
   -4    7   76      4.35      0.00
   -5    8   77     10.24      0.00
   -6    9   78     -6.25      0.00
   -7   10   79     -0.95      0.00
   -8   11   80     -0.64      0.00
   -9   12   81     13.21      0.00
  -10   13   82     -2.38      0.00
  -11   14   83      0.59      0.00
    0    4   74     -3.50      0.00
   -1    5   75      1.84      0.00
   -2    6   76      9.26      0.00
   -3    7   77      2.36      0.00
   -4    8   78     -6.32      0.00
   -5    9   79      3.42      0.00
   -6   10   80     10.57      0.00
   -7   11   81     16.90      0.00
   -8   12   82      8.19      0.00
   -9   13   83     -6.90      0.00
    0    5   76      5.54      0.00
   -1    6   77     -6.76      0.00
   -2    7   78     -0.72      0.00
   -3    8   79     -2.13      0.00
   -4    9   80      5.79      0.00
   -5   10   81      7.95      0.00
   -6   11   82      7.05      0.00
   -7   12   83      1.32      0.00
   -8   13   84      8.14      0.00
    0    6   78     -7.30      0.00
   -1    7   79     -6.41      0.00
   -2    8   80     -1.55      0.00
   -3    9   81      1.67      0.00
   -4   10   82     -4.19      0.00
   -5   11   83     -7.09      0.00
   -6   12   84     -3.37      0.00
    0    7   80     -7.46      0.00
   -1    8   81      8.43      0.00
   -2    9   82      2.62      0.00
   -3   10   83     -2.10      0.00
   -4   11   84     -0.62      0.00
   -5   12   85    -10.15      0.00
    0    8   82      8.00      0.00
   -1    9   83     -1.44      0.00
   -2   10   84    -14.61      0.00
   -3   11   85     -8.04      0.00
    0    9   84    -14.26      0.00
   -1   10   85     -7.49      0.00
    0    0   69      1.35      0.00
   -1    1   70      0.02      0.00
   -2    2   71     -0.72      0.00
   -3    3   72     10.75      0.00
   -4    4   73     -7.30      0.00
   -5    5   74    -16.84      0.00
   -6    6   75    -11.63      0.00
   -7    7   76     -6.79      0.00
   -8    8   77      2.33      0.00
   -9    9   78      3.94      0.00
  -10   10   79     14.01      0.00
  -11   11   80     -6.56      0.00
  -12   12   81      4.57      0.00
  -13   13   82      0.54      0.00
    0    1   71     14.37      0.00
   -1    2   72      5.53      0.00
   -2    3   73      5.82      0.00
   -3    4   74      5.75      0.00
   -4    5   75      1.17      0.00
   -5    6   76      0.32      0.00
   -6    7   77    -14.17      0.00
   -7    8   78     -0.85      0.00
   -8    9   79      7.70      0.00
   -9   10   80     -5.68      0.00
  -10   11   81      5.81      0.00
  -11   12   82     -6.88      0.00
  -12   13   83     -3.97      0.00
    0    2   73     14.45      0.00
   -1    3   74      0.54      0.00
   -2    4   75     -2.72      0.00
   -3    5   76      1.74      0.00
   -4    6   77      2.56      0.00
   -5    7   78     -8.02      0.00
   -6    8   79      5.65      0.00
   -7    9   80     -2.63      0.00
   -8   10   81    -10.21      0.00
   -9   11   82    -16.33      0.00
  -10   12   83      0.13      0.00
    0    3   75      7.78      0.00
   -1    4   76      2.37      0.00
   -2    5   77     -9.35      0.00
   -3    6   78      2.26      0.00
   -4    7   79      1.96      0.00
   -5    8   80     12.63      0.00
   -6    9   81      4.72      0.00
   -7   10   82    -11.47      0.00
   -8   11   83      1.66      0.00
   -9   12   84    -11.27      0.00
    0    4   77      8.39      0.00
   -1    5   78     10.70      0.00
   -2    6   79      9.80      0.00
   -3    7   80     16.84      0.00
   -4    8   81     18.10      0.00
   -5    9   82    -12.15      0.00
   -6   10   83    -10.27      0.00
   -7   11   84      3.66      0.00
   -8   12   85     13.11      0.00
    0    5   79     17.94      0.00
   -1    6   80     -1.71      0.00
   -2    7   81    -10.38      0.00
   -3    8   82     -0.67      0.00
   -4    9   83     -8.31      0.00
   -5   10   84     -6.42      0.00
   -6   11   85      4.69      0.00
    0    6   81     -9.72      0.00
   -1    7   82     -5.79      0.00
   -2    8   83      0.57      0.00
   -3    9   84      8.41      0.00
   -4   10   85     -2.46      0.00
   -5   11   86      3.67      0.00
    0    7   83      6.52      0.00
   -1    8   84     -9.50      0.00
   -2    9   85      7.50      0.00
   -3   10   86     15.01      0.00
    0    8   85      9.04      0.00
   -1    9   86      3.55      0.00
    0    0   72      4.38      0.00
   -1    1   73     -0.48      0.00
   -2    2   74     -3.22      0.00
   -3    3   75    -13.02      0.00
   -4    4   76     -8.74      0.00
   -5    5   77      2.66      0.00
   -6    6   78    -13.18      0.00
   -7    7   79     -2.15      0.00
   -8    8   80     15.21      0.00
   -9    9   81      7.77      0.00
  -10   10   82      1.66      0.00
  -11   11   83      1.62      0.00
    0    1   74     19.50      0.00
   -1    2   75      5.64      0.00
   -2    3   76      4.77      0.00
   -3    4   77     -8.78      0.00
   -4    5   78     13.71      0.00
   -5    6   79     -6.83      0.00
   -6    7   80      0.66      0.00
   -7    8   81      7.50      0.00
   -8    9   82     -1.12      0.00
   -9   10   83     -7.11      0.00
  -10   11   84    -10.89      0.00
    0    2   76    -12.98      0.00
   -1    3   77     -2.22      0.00
   -2    4   78    -10.52      0.00
   -3    5   79    -13.96      0.00
   -4    6   80     -3.45      0.00
   -5    7   81      8.47      0.00
   -6    8   82     10.94      0.00
   -7    9   83    -14.82      0.00
   -8   10   84    -18.57      0.00
   -9   11   85     -7.77      0.00
    0    3   78    -12.51      0.00
   -1    4   79      0.54      0.00
   -2    5   80     -6.53      0.00
   -3    6   81     -0.66      0.00
   -4    7   82     12.85      0.00
   -5    8   83      9.95      0.00
   -6    9   84    -11.47      0.00
   -7   10   85     -0.18      0.00
    0    4   80     16.28      0.00
   -1    5   81      8.49      0.00
   -2    6   82     -0.52      0.00
   -3    7   83     -8.50      0.00
   -4    8   84     14.28      0.00
   -5    9   85    -12.17      0.00
   -6   10   86      4.19      0.00
    0    5   82     -1.44      0.00
   -1    6   83     -4.91      0.00
   -2    7   84    -14.63      0.00
   -3    8   85      6.51      0.00
   -4    9   86     -3.56      0.00
    0    6   84    -17.38      0.00
   -1    7   85     -4.25      0.00
   -2    8   86      0.68      0.00
   -3    9   87     12.85      0.00
    0    7   86      0.66      0.00
   -1    8   87      1.16      0.00
  -31   36    8     -5.29      0.00
    0    0   75    -13.22      0.00
   -1    1   76     -0.67      0.00
   -2    2   77     -5.07      0.00
   -3    3   78      5.21      0.00
   -4    4   79      2.34      0.00
   -5    5   80      6.97      0.00
   -6    6   81    -13.51      0.00
   -7    7   82     10.66      0.00
   -8    8   83      2.04      0.00
   -9    9   84     -8.30      0.00
  -10   10   85      4.57      0.00
    0    1   77     -4.15      0.00
   -1    2   78      8.62      0.00
   -2    3   79     14.19      0.00
   -3    4   80     -4.89      0.00
   -4    5   81      4.81      0.00
   -5    6   82      3.53      0.00
   -6    7   83      7.72      0.00
   -7    8   84      2.40      0.00
   -8    9   85    -12.84      0.00
   -9   10   86     -0.30      0.00
    0    2   79     -9.58      0.00
   -1    3   80      1.59      0.00
   -2    4   81     -3.66      0.00
   -3    5   82      3.71      0.00
   -4    6   83      4.97      0.00
   -5    7   84     22.24      0.00
   -6    8   85     -2.46      0.00
   -7    9   86      0.49      0.00
   -3   29   52     -2.57      0.00
    0    3   81     -9.80      0.00
   -1    4   82     12.51      0.00
   -2    5   83     -2.94      0.00
   -3    6   84     -2.22      0.00
   -4    7   85      5.73      0.00
   -5    8   86      7.77      0.00
   -6    9   87     -6.49      0.00
    0    4   83     21.74      0.00
   -1    5   84      9.35      0.00
   -2    6   85    -13.37      0.00
   -3    7   86      2.57      0.00
   -4    8   87     17.36      0.00
    0    5   85    -18.63      0.00
   -1    6   86      1.89      0.00
   -2    7   87      0.11      0.00
    0    6   87     -2.51      0.00
    0    0   78     -0.70      0.00
   -1    1   79     13.22      0.00
   -2    2   80     -8.14      0.00
   -3    3   81      3.07      0.00
   -4    4   82     -4.28      0.00
   -5    5   83     -4.67      0.00
   -6    6   84      5.49      0.00
   -7    7   85     -4.38      0.00
   -8    8   86      2.72      0.00
    0    1   80     -8.23      0.00
   -1    2   81      3.77      0.00
   -2    3   82     -8.29      0.00
   -3    4   83      1.74      0.00
   -4    5   84     -6.23      0.00
   -5    6   85      5.88      0.00
   -6    7   86      8.81      0.00
   -7    8   87     -1.56      0.00
    0    2   82    -23.26      0.00
   -1    3   83      9.34      0.00
   -2    4   84     -0.48      0.00
   -3    5   85      3.50      0.00
   -4    6   86      0.18      0.00
   -5    7   87     -1.76      0.00
    0    3   84    -10.95      0.00
   -1    4   85      9.32      0.00
   -2    5   86     -7.66      0.00
   -3    6   87     -4.51      0.00
   -4    7   88      1.97      0.00
    0    4   86      4.89      0.00
   -1    5   87      1.54      0.00
   -2    6   88     -2.68      0.00
    0    5   88     -8.72      0.00
    0    0   81      2.25      0.00
   -1    1   82     -2.00      0.00
   -2    2   83      7.74      0.00
   -3    3   84    -21.48      0.00
   -4    4   85     -9.33      0.00
   -5    5   86    -20.36      0.00
   -6    6   87      6.78      0.00
    0    1   83      6.08      0.00
   -1    2   84     -3.45      0.00
   -2    3   85      4.11      0.00
   -3    4   86     -4.25      0.00
   -4    5   87    -15.19      0.00
   -5    6   88     -8.82      0.00
    0    2   85      1.25      0.00
   -1    3   86     -5.84      0.00
   -2    4   87      8.14      0.00
   -3    5   88     -9.21      0.00
    0    3   87     -1.47      0.00
   -1    4   88      4.38      0.00
    0    4   89     -8.43      0.00
    0    0   84     18.14      0.00
   -1    1   85     28.67      0.00
   -2    2   86     -0.27      0.00
   -3    3   87     -6.55      0.00
   -4    4   88    -11.41      0.00
    0    1   86     -1.59      0.00
   -1    2   87     -0.30      0.00
   -2    3   88      0.23      0.00
   -3    4   89     10.45      0.00
    0    2   88    -10.31      0.00
   -1    3   89      9.07      0.00
    0    0   87     33.63      0.00
   -1    1   88     -2.39      0.00
   -2    2   89     19.95      0.00
    0    1   89     10.08      0.00
  -11   33   46     16.97      0.00
   -6   28   59     27.80      0.00
  -24   31   50     -6.31      0.00
  -22   31   52      3.09      0.00
  -12   26   67    -21.45      0.00
   -9   22   74    -11.16      0.00
  -24   25   62     20.34      0.00
  -16   22   73      4.82      0.00
   -2    4    0    621.43      0.00
   -1    1    1    470.17      0.00
    0    2    1   -545.63      0.00
   -2    3    1    -86.96      0.00
    0    0    3    789.32      0.00
    0    2    4    609.76      0.00
    0    1    5   -490.89      0.00
    0    5   10    335.85      0.00
    0    0    0      0.00      0.00
# SQUEEZE RESULTS (Version = 120916)
# Note: Data are Listed for all Voids in the P1 Unit Cell
# i.e. Centre of Gravity, Solvent Accessible Volume,
# Recovered number of Electrons in the Void and
# Details about the Squeezed Material
loop_
  _platon_squeeze_void_nr
  _platon_squeeze_void_average_x
  _platon_squeeze_void_average_y
  _platon_squeeze_void_average_z
  _platon_squeeze_void_volume
  _platon_squeeze_void_count_electrons
  _platon_squeeze_void_content
   1 -0.034 -0.048 -0.001     21825      5217 ' '
# Missing Reflections Below sin(th)/lambda = 0.25
loop_
  _platon_missing_refln_index_h
  _platon_missing_refln_index_k
  _platon_missing_refln_index_l
  _platon_missing_refln_theta
   -2    4    0     2.886
   -1    1    1     0.890
    0    2    1     1.695
   -2    3    1     2.226
    0    0    3     0.944
    0    2    4     2.088
    0    1    5     1.781
    0    5   10     5.227
_platon_squeeze_void_probe_radius                  1.20
_platon_squeeze_details
)
TITL R-3m in R-3m
CELL   26.2210   26.2210   60.0590     90.00     90.00    120.00
SPGR R-3m
# Solvent Accessible Volume =     21823
# Electrons Found in S.A.V. =      5150
# Note: Atoms in Void as Cxxx and Qxxx all others
Q101 1.001 0.680 0.499 !       2.91 eA-3
Q102 0.454 0.227 0.727 !       2.81 eA-3
C103 0.516 0.487 0.261 !       2.60 eA-3
C104 0.995 0.006 0.448 !       2.28 eA-3
C105 0.196 0.353 0.081 !       1.61 eA-3
C106 0.658 0.343 0.124 !       1.60 eA-3
C107 1.000 1.001 0.297 !       1.59 eA-3
C108 0.529 0.014 0.751 !       1.58 eA-3
C109 0.530 0.477 0.976 !       1.56 eA-3
C110 0.390 0.609 0.903 !       1.56 eA-3
C111 0.438 0.632 0.201 !       1.49 eA-3
C112 0.058 0.945 0.233 !       1.49 eA-3
C113 0.298 0.144 0.656 !       1.49 eA-3
C114 0.720 0.275 0.567 !       1.48 eA-3
C115 0.984 0.496 0.489 !       1.48 eA-3
C116 0.682 0.834 0.845 !       1.47 eA-3
C117 0.440 0.716 0.441 !       1.46 eA-3
C118 0.802 0.451 0.805 !       1.44 eA-3
C119 0.532 0.764 0.946 !       1.44 eA-3
C120 0.813 0.623 0.189 !       1.43 eA-3
C121 0.795 0.639 0.683 !       1.43 eA-3
C122 0.537 0.022 0.986 !       1.41 eA-3
C123 0.561 0.784 0.621 !       1.40 eA-3
C124 0.767 0.124 0.679 !       1.39 eA-3
C125 0.813 0.681 0.922 !       1.34 eA-3
C126 0.765 0.882 0.891 !       1.34 eA-3
C127 0.834 0.169 0.919 !       1.30 eA-3
C128 0.673 0.852 0.335 !       1.30 eA-3
C129 0.327 0.148 0.665 !       1.30 eA-3
Q130 0.945 0.895 0.528 !       1.29 eA-3
C131 0.515 0.516 1.000 !       1.29 eA-3
C132 1.001 0.601 0.499 !       1.29 eA-3
C133 0.797 0.896 0.086 !       1.28 eA-3
Q134 0.664 0.195 0.793 !       1.27 eA-3
Q135 0.976 0.953 0.382 !       1.26 eA-3
Q136 0.640 0.281 0.719 !       1.26 eA-3
C137 0.714 0.288 0.069 !       1.26 eA-3
C138 0.161 0.783 0.310 !       1.24 eA-3
C139 0.596 0.235 0.093 !       1.24 eA-3
C140 0.047 0.092 0.737 !       1.24 eA-3
C141 0.376 0.617 0.403 !       1.24 eA-3
C142 0.553 0.508 0.977 !       1.23 eA-3
C143 0.162 0.835 0.345 !       1.22 eA-3
C144 0.999 0.484 0.501 !       1.21 eA-3
Q145 0.827 0.403 0.862 !       1.21 eA-3
C146 0.732 0.366 0.191 !       1.21 eA-3
C147 0.535 0.766 0.583 !       1.21 eA-3
C148 0.804 0.195 0.223 !       1.21 eA-3
C149 0.747 0.462 0.567 !       1.20 eA-3
C150 0.471 0.973 0.512 !       1.19 eA-3
C151 0.312 0.158 0.637 !       1.19 eA-3
Q152 0.595 0.418 0.864 !       1.19 eA-3
C153 0.633 0.266 0.570 !       1.18 eA-3
C154 1.000 0.998 0.160 !       1.17 eA-3
Q155 0.116 0.103 0.165 !       1.17 eA-3
C156 0.118 0.243 0.079 !       1.16 eA-3
C157 0.160 0.361 0.819 !       1.16 eA-3
Q158 0.782 0.446 0.871 !       1.16 eA-3
C159 0.258 0.745 0.129 !       1.16 eA-3
C160 1.000 0.995 0.719 !       1.16 eA-3
C161 0.894 0.965 0.745 !       1.16 eA-3
C162 0.516 0.481 0.300 !       1.15 eA-3
C163 0.859 0.720 0.039 !       1.15 eA-3
C164 0.172 0.345 0.070 !       1.14 eA-3
Q165 0.920 0.969 0.449 !       1.13 eA-3
Q166 0.281 0.789 0.177 !       1.13 eA-3
C167 0.377 0.248 0.413 !       1.13 eA-3
Q168 0.179 0.406 0.481 !       1.13 eA-3
C169 0.442 0.201 0.062 !       1.12 eA-3
C170 0.157 0.080 0.274 !       1.11 eA-3
C171 0.071 0.138 0.539 !       1.11 eA-3
C172 0.999 0.996 0.801 !       1.10 eA-3
C173 0.915 0.199 0.922 !       1.10 eA-3
C174 0.334 0.312 0.337 !       1.10 eA-3
C175 0.666 0.688 0.663 !       1.10 eA-3
C176 0.035 0.071 0.760 !       1.09 eA-3
C177 0.094 0.048 0.246 !       1.09 eA-3
C178 0.212 0.905 0.851 !       1.09 eA-3
C179 1.000 0.997 0.176 !       1.09 eA-3
C180 0.008 0.982 0.864 !       1.08 eA-3
C181 1.000 0.999 0.148 !       1.08 eA-3
C182 0.639 0.273 0.465 !       1.08 eA-3
C183 0.984 0.554 0.309 !       1.08 eA-3
C184 0.711 0.056 0.344 !       1.08 eA-3
C185 0.314 0.977 0.665 !       1.08 eA-3
C186 0.090 0.915 0.080 !       1.07 eA-3
C187 0.539 0.081 0.430 !       1.07 eA-3
C188 0.468 0.911 0.359 !       1.07 eA-3
C189 0.639 0.735 0.317 !       1.07 eA-3
C190 0.291 0.175 0.921 !       1.07 eA-3
C191 0.622 0.812 0.977 !       1.06 eA-3
C192 0.651 0.892 0.640 !       1.05 eA-3
C193 0.350 0.360 0.008 !       1.05 eA-3
C194 0.688 0.374 0.123 !       1.05 eA-3
C195 0.850 0.123 0.942 !       1.05 eA-3
C196 0.251 0.748 0.179 !       1.05 eA-3
C197 0.322 0.225 0.663 !       1.05 eA-3
C198 0.577 0.117 0.281 !       1.04 eA-3
C199 0.851 0.702 0.098 !       1.03 eA-3
)
;
_shelx_fab_checksum              43005
_platon_squeeze_void_probe_radius 1.20
loop_
_space_group_symop_operation_xyz
'x, y, z'
'-y, x-y, z'
'-x+y, -x, z'
'y, x, -z'
'x-y, -y, -z'
'-x, -x+y, -z'
'x+2/3, y+1/3, z+1/3'
'-y+2/3, x-y+1/3, z+1/3'
'-x+y+2/3, -x+1/3, z+1/3'
'y+2/3, x+1/3, -z+1/3'
'x-y+2/3, -y+1/3, -z+1/3'
'-x+2/3, -x+y+1/3, -z+1/3'
'x+1/3, y+2/3, z+2/3'
'-y+1/3, x-y+2/3, z+2/3'
'-x+y+1/3, -x+2/3, z+2/3'
'y+1/3, x+2/3, -z+2/3'
'x-y+1/3, -y+2/3, -z+2/3'
'-x+1/3, -x+y+2/3, -z+2/3'
'-x, -y, -z'
'y, -x+y, -z'
'x-y, x, -z'
'-y, -x, z'
'-x+y, y, z'
'x, x-y, z'
'-x+2/3, -y+1/3, -z+1/3'
'y+2/3, -x+y+1/3, -z+1/3'
'x-y+2/3, x+1/3, -z+1/3'
'-y+2/3, -x+1/3, z+1/3'
'-x+y+2/3, y+1/3, z+1/3'
'x+2/3, x-y+1/3, z+1/3'
'-x+1/3, -y+2/3, -z+2/3'
'y+1/3, -x+y+2/3, -z+2/3'
'x-y+1/3, x+2/3, -z+2/3'
'-y+1/3, -x+2/3, z+2/3'
'-x+y+1/3, y+2/3, z+2/3'
'x+1/3, x-y+2/3, z+2/3'
loop_
_atom_site_label
_atom_site_type_symbol
_atom_site_fract_x
_atom_site_fract_y
_atom_site_fract_z
_atom_site_U_iso_or_equiv
_atom_site_adp_type
_atom_site_occupancy
_atom_site_site_symmetry_order
_atom_site_calc_flag
_atom_site_refinement_flags_posn
_atom_site_refinement_flags_adp
_atom_site_refinement_flags_occupancy
Cl2 Cl 0.10862(17) 0.6667 0.1667 0.1463(14) Uani 1 2 d S T P
Zr1 Zr 0.70922(2) 0.29078(2) -0.04378(2) 0.0780(3) Uani 1 2 d S T P
Zr2 Zr 0.98869(3) 0.55811(3) 0.10816(2) 0.0871(3) Uani 1 1 d . . .
Zr3 Zr 0.95180(4) 0.47590(2) 0.15428(2) 0.0894(4) Uani 1 2 d S T P
O4C O 0.6667 0.3333 -0.03151(14) 0.078(3) Uani 1 6 d S T P
Cl1 Cl 0.8245(3) 0.41224(14) 0.89976(8) 0.196(2) Uani 1 2 d S T P
O5C O 0.7448(2) 0.37241(12) -0.06103(8) 0.0742(16) Uani 1 2 d S T P
H5C H 0.7705 0.3853 -0.0735 0.089 Uiso 1 2 calc R U P
O1C O 0.9440(3) 0.47198(13) 0.11963(9) 0.0839(18) Uani 1 2 d S T P
O3C O 1.0432(3) 0.52158(14) 0.10076(9) 0.0883(18) Uani 1 2 d S T P
H3C H 1.0825 0.5413 0.0954 0.106 Uiso 1 2 calc R U P
O4 O 0.7702(2) 0.3418(2) -0.01744(7) 0.0934(14) Uani 1 1 d . . .
O2C O 1.0083(2) 0.5628(2) 0.14247(7) 0.0884(14) Uani 1 1 d . . .
H2C H 1.0361 0.5962 0.1507 0.106 Uiso 1 1 calc R U .
C8 C 0.7843(5) 0.3921(2) -0.00881(14) 0.087(3) Uani 1 2 d S T P
O3 O 0.9414(2) 0.5136(2) 0.07820(7) 0.0963(15) Uani 1 1 d . . .
O1 O 0.8814(2) 0.3848(2) 0.14970(8) 0.1007(16) Uani 1 1 d . . .
O2 O 0.9072(2) 0.5521(2) 0.11922(8) 0.0967(14) Uani 1 1 d . . .
C9 C 0.8189(5) 0.4094(2) 0.01203(16) 0.101(3) Uani 1 2 d S T P
C7 C 0.8691(5) 0.4812(4) 0.04094(13) 0.125(3) Uani 1 1 d . . .
C4C C 0.7727(3) 0.2760(3) -0.07246(12) 0.097(2) Uani 1 1 d . . .
H4C H 0.7879 0.3023 -0.0847 0.116 Uiso 1 1 calc R U .
C1 C 0.8704(4) 0.3481(4) 0.13474(14) 0.105(3) Uani 1 1 d . . .
C6C C 0.7625(3) 0.2375(3) -0.0395(2) 0.120(4) Uani 1 2 d S T P
H6C H 0.7685 0.2315 -0.0243 0.144 Uiso 1 2 calc R U P
C6 C 0.8855(5) 0.4428(2) 0.05064(16) 0.108(4) Uani 1 2 d S T P
C3C C 1.0031(4) 0.4764(4) 0.19026(11) 0.104(3) Uani 1 1 d . . .
H3C1 H 1.0375 0.4731 0.1893 0.124 Uiso 1 1 calc R U .
C2 C 0.8140(4) 0.2933(4) 0.13487(15) 0.118(3) Uani 1 1 d . . .
C3 C 0.8021(4) 0.2499(4) 0.11820(16) 0.135(3) Uani 1 1 d . . .
C1C C 0.9457(5) 0.5174(5) 0.19177(13) 0.129(3) Uani 1 1 d . . .
H1C H 0.9338 0.5462 0.1925 0.155 Uiso 1 1 calc R U .
C5 C 0.9253(5) 0.4627(2) 0.07059(16) 0.096(3) Uani 1 2 d S T P
C10 C 0.8339(4) 0.4624(4) 0.02159(13) 0.118(3) Uani 1 1 d . . .
C7C C 0.9950(6) 0.6528(7) 0.0954(4) 0.221(10) Uani 1 1 d D . .
H7C H 0.9594 0.6542 0.0950 0.265 Uiso 1 1 calc R U .
C5C C 0.8001(4) 0.2848(4) -0.05193(18) 0.117(3) Uani 1 1 d . . .
H5C1 H 0.8371 0.3170 -0.0475 0.140 Uiso 1 1 calc R U .
C2C C 0.9089(6) 0.4544(3) 0.19205(19) 0.130(5) Uani 1 2 d S T P
H2C1 H 0.8671 0.4335 0.1924 0.156 Uiso 1 2 calc R U P
C8C C 1.0765(5) 0.6592(4) 0.1071(2) 0.124(3) Uani 1 1 d D . .
H8C H 1.1081 0.6649 0.1165 0.149 Uiso 1 1 calc R U .
C4 C 0.7712(4) 0.2807(4) 0.15100(15) 0.128(3) Uani 1 1 d . . .
C9C C 1.0335(9) 0.6677(4) 0.1125(2) 0.154(5) Uani 1 1 d . . .
H9C H 1.0295 0.6823 0.1265 0.185 Uiso 1 1 calc R U .
C10C C 1.0684(7) 0.6405(5) 0.0855(3) 0.149(5) Uani 1 1 d D . .
H10C H 1.0944 0.6328 0.0771 0.179 Uiso 1 1 calc R U .
C11C C 1.0195(9) 0.6351(6) 0.0786(2) 0.180(7) Uani 1 1 d D . .
H11C H 1.0028 0.6212 0.0643 0.216 Uiso 1 1 calc R U .
loop_
_atom_site_aniso_label
_atom_site_aniso_U_11
_atom_site_aniso_U_22
_atom_site_aniso_U_33
_atom_site_aniso_U_23
_atom_site_aniso_U_13
_atom_site_aniso_U_12
Cl2 0.179(3) 0.152(3) 0.099(2) -0.026(2) -0.0129(11) 0.0760(16)
Zr1 0.0984(5) 0.0984(5) 0.0386(4) 0.00204(19) -0.00204(19) 0.0501(5)
Zr2 0.0946(5) 0.1091(6) 0.0560(4) -0.0043(3) -0.0129(3) 0.0496(4)
Zr3 0.0970(7) 0.1115(6) 0.0549(5) -0.0031(2) -0.0063(4) 0.0485(4)
O4C 0.098(5) 0.098(5) 0.039(5) 0.000 0.000 0.049(2)
Cl1 0.263(6) 0.216(3) 0.125(3) 0.0082(18) 0.016(4) 0.131(3)
O5C 0.076(4) 0.097(3) 0.042(3) 0.0019(13) 0.004(3) 0.0382(19)
O1C 0.091(4) 0.103(3) 0.053(3) -0.0026(15) -0.005(3) 0.045(2)
O3C 0.089(4) 0.117(4) 0.049(3) -0.0016(15) -0.003(3) 0.045(2)
O4 0.113(4) 0.115(4) 0.050(2) -0.005(2) -0.016(2) 0.055(3)
O2C 0.096(3) 0.101(3) 0.061(3) -0.012(2) -0.004(2) 0.044(3)
C8 0.110(8) 0.116(6) 0.034(4) -0.004(2) -0.008(4) 0.055(4)
O3 0.100(3) 0.125(4) 0.058(3) -0.002(3) -0.017(2) 0.052(3)
O1 0.103(4) 0.105(4) 0.071(3) -0.012(3) -0.005(3) 0.035(3)
O2 0.083(3) 0.127(4) 0.084(3) 0.008(3) 0.000(3) 0.055(3)
C9 0.102(8) 0.137(8) 0.054(5) -0.013(3) -0.027(5) 0.051(4)
C7 0.184(9) 0.150(8) 0.071(5) -0.021(5) -0.046(5) 0.106(7)
C4C 0.113(6) 0.110(5) 0.068(4) 0.009(4) 0.018(4) 0.055(5)
C1 0.080(5) 0.119(7) 0.090(6) 0.018(5) 0.001(5) 0.030(5)
C6C 0.150(10) 0.150(10) 0.087(8) -0.001(3) 0.001(3) 0.095(11)
C6 0.104(8) 0.147(8) 0.057(6) -0.005(3) -0.011(5) 0.052(4)
C3C 0.113(6) 0.143(7) 0.062(4) -0.006(4) -0.016(4) 0.069(5)
C2 0.111(7) 0.106(6) 0.099(6) -0.016(5) -0.013(5) 0.026(6)
C3 0.117(7) 0.122(7) 0.120(7) 0.001(6) 0.013(5) 0.025(5)
C1C 0.187(11) 0.175(9) 0.065(5) -0.030(6) -0.012(6) 0.120(9)
C5 0.100(8) 0.130(8) 0.047(5) -0.005(2) -0.010(5) 0.050(4)
C10 0.152(8) 0.120(7) 0.072(5) -0.014(5) -0.047(5) 0.061(6)
C7C 0.118(9) 0.196(16) 0.38(3) 0.168(19) 0.048(14) 0.103(11)
C5C 0.108(7) 0.109(7) 0.139(8) -0.034(6) 0.000(6) 0.057(6)
C2C 0.105(10) 0.188(12) 0.070(7) 0.009(3) 0.018(7) 0.053(5)
C8C 0.109(7) 0.115(7) 0.143(10) -0.005(7) -0.039(7) 0.052(6)
C4 0.093(6) 0.157(8) 0.095(6) -0.009(5) 0.008(5) 0.033(5)
C9C 0.257(17) 0.107(7) 0.117(8) 0.004(6) 0.047(10) 0.105(11)
C10C 0.165(12) 0.103(7) 0.188(13) 0.022(8) 0.085(10) 0.073(9)
C11C 0.211(17) 0.141(10) 0.104(8) 0.018(7) -0.061(10) 0.026(12)
loop_
_atom_type_symbol
_atom_type_description
_atom_type_scat_dispersion_real
_atom_type_scat_dispersion_imag
_atom_type_scat_source
C C 0.0025 0.0014 'International Tables Vol C Tables 4.2.6.8 and 6.1.1.4'
H H 0.0000 0.0000 'International Tables Vol C Tables 4.2.6.8 and 6.1.1.4'
N N 0.0050 0.0028 'International Tables Vol C Tables 4.2.6.8 and 6.1.1.4'
O O 0.0091 0.0052 'International Tables Vol C Tables 4.2.6.8 and 6.1.1.4'
Cl Cl 0.1327 0.1378 'International Tables Vol C Tables 4.2.6.8 and 6.1.1.4'
Zr Zr -2.2039 3.4401 'International Tables Vol C Tables 4.2.6.8 and 6.1.1.4'
loop_
_geom_angle_atom_site_label_1
_geom_angle_atom_site_label_2
_geom_angle_atom_site_label_3
_geom_angle
_geom_angle_site_symmetry_1
_geom_angle_site_symmetry_3
O4C Zr1 O5C 73.41(19) . 3_665
O4C Zr1 O5C 73.41(19) . .
O5C Zr1 O5C 92.5(3) 3_665 .
O4C Zr1 O4 80.7(2) . .
O5C Zr1 O4 153.50(18) 3_665 .
O5C Zr1 O4 85.29(19) . .
O4C Zr1 O4 80.7(2) . 22_665
O5C Zr1 O4 85.29(19) 3_665 22_665
O5C Zr1 O4 153.50(18) . 22_665
O4 Zr1 O4 85.1(3) . 22_665
O4C Zr1 C6C 153.1(4) . .
O5C Zr1 C6C 122.7(2) 3_665 .
O5C Zr1 C6C 122.7(2) . .
O4 Zr1 C6C 79.6(3) . .
O4 Zr1 C6C 79.6(3) 22_665 .
O4C Zr1 C5C 152.5(2) . 22_665
O5C Zr1 C5C 90.9(3) 3_665 22_665
O5C Zr1 C5C 130.9(2) . 22_665
O4 Zr1 C5C 110.5(3) . 22_665
O4 Zr1 C5C 75.6(3) 22_665 22_665
C6C Zr1 C5C 31.8(3) . 22_665
O4C Zr1 C5C 152.5(2) . .
O5C Zr1 C5C 130.9(2) 3_665 .
O5C Zr1 C5C 90.9(3) . .
O4 Zr1 C5C 75.6(3) . .
O4 Zr1 C5C 110.5(3) 22_665 .
C6C Zr1 C5C 31.8(3) . .
C5C Zr1 C5C 52.6(4) 22_665 .
O4C Zr1 C4C 152.8(3) . 22_665
O5C Zr1 C4C 80.4(2) 3_665 22_665
O5C Zr1 C4C 101.2(2) . 22_665
O4 Zr1 C4C 126.0(2) . 22_665
O4 Zr1 C4C 104.5(2) 22_665 22_665
C6C Zr1 C4C 51.7(3) . 22_665
C5C Zr1 C4C 31.8(3) 22_665 22_665
C5C Zr1 C4C 51.0(3) . 22_665
O4C Zr1 C4C 152.8(3) . .
O5C Zr1 C4C 101.2(2) 3_665 .
O5C Zr1 C4C 80.4(2) . .
O4 Zr1 C4C 104.5(2) . .
O4 Zr1 C4C 126.0(2) 22_665 .
C6C Zr1 C4C 51.7(3) . .
C5C Zr1 C4C 51.0(3) 22_665 .
C5C Zr1 C4C 31.8(3) . .
C4C Zr1 C4C 28.9(3) 22_665 .
O4C Zr1 Zr1 35.98(12) . 2_655
O5C Zr1 Zr1 86.31(13) 3_665 2_655
O5C Zr1 Zr1 38.14(11) . 2_655
O4 Zr1 Zr1 75.66(14) . 2_655
O4 Zr1 Zr1 115.39(14) 22_665 2_655
C6C Zr1 Zr1 149.45(6) . 2_655
C5C Zr1 Zr1 168.3(2) 22_665 2_655
C5C Zr1 Zr1 122.4(2) . 2_655
C4C Zr1 Zr1 136.62(17) 22_665 2_655
C4C Zr1 Zr1 118.49(16) . 2_655
O4C Zr1 Zr1 35.98(12) . 3_665
O5C Zr1 Zr1 38.14(11) 3_665 3_665
O5C Zr1 Zr1 86.31(13) . 3_665
O4 Zr1 Zr1 115.39(14) . 3_665
O4 Zr1 Zr1 75.66(14) 22_665 3_665
C6C Zr1 Zr1 149.45(6) . 3_665
C5C Zr1 Zr1 122.4(2) 22_665 3_665
C5C Zr1 Zr1 168.3(2) . 3_665
C4C Zr1 Zr1 118.49(16) 22_665 3_665
C4C Zr1 Zr1 136.62(17) . 3_665
Zr1 Zr1 Zr1 60.0 2_655 3_665
O1C Zr2 O2C 74.2(2) . .
O1C Zr2 O3C 73.76(19) . .
O2C Zr2 O3C 91.8(2) . .
O1C Zr2 O2 79.5(2) . .
O2C Zr2 O2 84.72(18) . .
O3C Zr2 O2 153.0(2) . .
O1C Zr2 O3 80.2(2) . .
O2C Zr2 O3 154.06(19) . .
O3C Zr2 O3 85.2(2) . .
O2 Zr2 O3 86.39(19) . .
O1C Zr2 C8C 152.1(3) . .
O2C Zr2 C8C 83.9(3) . .
O3C Zr2 C8C 90.1(4) . .
O2 Zr2 C8C 116.0(4) . .
O3 Zr2 C8C 121.8(3) . .
O1C Zr2 C11C 153.3(3) . .
O2C Zr2 C11C 132.5(3) . .
O3C Zr2 C11C 101.3(6) . .
O2 Zr2 C11C 100.7(6) . .
O3 Zr2 C11C 73.2(3) . .
C8C Zr2 C11C 51.0(3) . .
O1C Zr2 C9C 153.7(3) . .
O2C Zr2 C9C 82.6(3) . .
O3C Zr2 C9C 120.1(5) . .
O2 Zr2 C9C 86.1(5) . .
O3 Zr2 C9C 121.0(4) . .
C8C Zr2 C9C 30.0(4) . .
C11C Zr2 C9C 51.2(4) . .
O1C Zr2 C10C 152.5(3) . .
O2C Zr2 C10C 113.7(5) . .
O3C Zr2 C10C 79.5(3) . .
O2 Zr2 C10C 126.3(3) . .
O3 Zr2 C10C 91.1(5) . .
C8C Zr2 C10C 31.5(3) . .
C11C Zr2 C10C 29.7(3) . .
C9C Zr2 C10C 50.5(3) . .
O1C Zr2 C7C 153.5(3) . .
O2C Zr2 C7C 110.1(7) . .
O3C Zr2 C7C 130.7(4) . .
O2 Zr2 C7C 75.0(4) . .
O3 Zr2 C7C 90.9(6) . .
C8C Zr2 C7C 51.4(4) . .
C11C Zr2 C7C 32.3(3) . .
C9C Zr2 C7C 31.1(5) . .
C10C Zr2 C7C 51.4(4) . .
O1C Zr2 Zr3 36.74(15) . .
O2C Zr2 Zr3 38.09(13) . .
O3C Zr2 Zr3 85.74(14) . .
O2 Zr2 Zr3 75.05(13) . .
O3 Zr2 Zr3 115.98(14) . .
C8C Zr2 Zr3 121.5(3) . .
C11C Zr2 Zr3 169.2(4) . .
C9C Zr2 Zr3 118.1(3) . .
C10C Zr2 Zr3 147.9(5) . .
C7C Zr2 Zr3 137.8(6) . .
O1C Zr2 Zr2 36.27(14) . 24
O2C Zr2 Zr2 86.38(13) . 24
O3C Zr2 Zr2 38.17(14) . 24
O2 Zr2 Zr2 114.84(14) . 24
O3 Zr2 Zr2 75.38(15) . 24
C8C Zr2 Zr2 126.9(3) . 24
C11C Zr2 Zr2 130.2(5) . 24
C9C Zr2 Zr2 155.3(5) . 24
C10C Zr2 Zr2 116.3(2) . 24
C7C Zr2 Zr2 162.0(6) . 24
Zr3 Zr2 Zr2 59.979(15) . 24
O1C Zr3 O2C 73.68(16) . 24
O1C Zr3 O2C 73.68(16) . .
O2C Zr3 O2C 92.7(3) 24 .
O1C Zr3 O1 79.19(18) . .
O2C Zr3 O1 85.08(19) 24 .
O2C Zr3 O1 152.25(18) . .
O1C Zr3 O1 79.19(18) . 24
O2C Zr3 O1 152.25(18) 24 24
O2C Zr3 O1 85.08(19) . 24
O1 Zr3 O1 84.2(3) . 24
O1C Zr3 C2C 151.9(4) . .
O2C Zr3 C2C 123.0(2) 24 .
O2C Zr3 C2C 123.0(2) . .
O1 Zr3 C2C 80.0(3) . .
O1 Zr3 C2C 80.0(3) 24 .
O1C Zr3 C1C 151.5(2) . .
O2C Zr3 C1C 131.4(3) 24 .
O2C Zr3 C1C 89.8(3) . .
O1 Zr3 C1C 112.3(3) . .
O1 Zr3 C1C 76.3(3) 24 .
C2C Zr3 C1C 33.3(3) . .
O1C Zr3 C1C 151.5(2) . 24
O2C Zr3 C1C 89.8(3) 24 24
O2C Zr3 C1C 131.4(3) . 24
O1 Zr3 C1C 76.3(3) . 24
O1 Zr3 C1C 112.3(3) 24 24
C2C Zr3 C1C 33.3(3) . 24
C1C Zr3 C1C 54.7(5) . 24
O1C Zr3 C3C 152.4(2) . 24
O2C Zr3 C3C 101.2(2) 24 24
O2C Zr3 C3C 79.6(2) . 24
O1 Zr3 C3C 128.0(2) . 24
O1 Zr3 C3C 105.5(2) 24 24
C2C Zr3 C3C 53.1(4) . 24
C1C Zr3 C3C 32.0(3) . 24
C1C Zr3 C3C 52.5(3) 24 24
O1C Zr3 C3C 152.4(2) . .
O2C Zr3 C3C 79.6(2) 24 .
O2C Zr3 C3C 101.2(2) . .
O1 Zr3 C3C 105.5(2) . .
O1 Zr3 C3C 128.0(2) 24 .
C2C Zr3 C3C 53.1(4) . .
C1C Zr3 C3C 52.5(3) . .
C1C Zr3 C3C 32.0(3) 24 .
C3C Zr3 C3C 30.1(3) 24 .
O1C Zr3 Zr2 36.44(9) . 24
O2C Zr3 Zr2 37.81(12) 24 24
O2C Zr3 Zr2 86.23(12) . 24
O1 Zr3 Zr2 75.14(14) . 24
O1 Zr3 Zr2 114.48(14) 24 24
C2C Zr3 Zr2 149.37(7) . 24
C1C Zr3 Zr2 168.0(3) . 24
C1C Zr3 Zr2 121.2(2) 24 24
C3C Zr3 Zr2 136.0(2) 24 24
C3C Zr3 Zr2 117.37(18) . 24
O1C Zr3 Zr2 36.45(9) . .
O2C Zr3 Zr2 86.23(12) 24 .
O2C Zr3 Zr2 37.81(12) . .
O1 Zr3 Zr2 114.49(14) . .
O1 Zr3 Zr2 75.14(14) 24 .
C2C Zr3 Zr2 149.36(7) . .
C1C Zr3 Zr2 121.2(2) . .
C1C Zr3 Zr2 168.0(3) 24 .
C3C Zr3 Zr2 117.36(18) 24 .
C3C Zr3 Zr2 136.0(2) . .
Zr2 Zr3 Zr2 60.04(3) 24 .
Zr1 O4C Zr1 108.0(2) . 3_665
Zr1 O4C Zr1 108.0(2) . 2_655
Zr1 O4C Zr1 108.0(2) 3_665 2_655
Zr1 O5C Zr1 103.7(2) . 2_655
Zr2 O1C Zr2 107.4(3) 24 .
Zr2 O1C Zr3 106.81(19) 24 .
Zr2 O1C Zr3 106.81(19) . .
Zr2 O3C Zr2 103.7(3) 24 .
C8 O4 Zr1 132.1(5) . .
Zr2 O2C Zr3 104.10(19) . .
O4 C8 O4 123.6(8) 24 .
O4 C8 C9 118.2(4) 24 .
O4 C8 C9 118.2(4) . .
C5 O3 Zr2 131.7(5) . .
C1 O1 Zr3 132.9(5) . .
C1 O2 Zr2 132.8(6) 24 .
C10 C9 C10 121.5(9) 24 .
C10 C9 C8 119.3(5) 24 .
C10 C9 C8 119.3(5) . .
C6 C7 C10 118.2(8) . .
C4C C4C C5C 110.0(5) 22_665 .
C4C C4C Zr1 75.53(16) 22_665 .
C5C C4C Zr1 72.4(5) . .
O1 C1 O2 123.1(8) . 24
O1 C1 C2 119.2(8) . .
O2 C1 C2 117.6(9) 24 .
C5C C6C C5C 110.0(13) 22_665 .
C5C C6C Zr1 77.2(7) 22_665 .
C5C C6C Zr1 77.2(7) . .
C7 C6 C7 121.0(10) . 24
C7 C6 C5 119.4(5) . .
C7 C6 C5 119.4(5) 24 .
C3C C3C C1C 111.2(6) 24 24
C3C C3C Zr3 74.94(17) 24 .
C1C C3C Zr3 73.9(4) 24 .
C4 C2 C3 118.0(9) . .
C4 C2 C1 122.5(8) . .
C3 C2 C1 119.5(9) . .
C3 C3 C2 120.5(5) 22_665 .
C3C C1C C2C 104.3(10) 24 .
C3C C1C Zr3 74.1(4) 24 .
C2C C1C Zr3 70.6(6) . .
O3 C5 O3 125.1(9) 24 .
O3 C5 C6 117.4(5) 24 .
O3 C5 C6 117.4(5) . .
C9 C10 C7 120.4(8) . .
C9C C7C C11C 104.1(11) . .
C9C C7C Zr2 74.1(6) . .
C11C C7C Zr2 72.9(8) . .
C6C C5C C4C 105.0(9) . .
C6C C5C Zr1 70.9(7) . .
C4C C5C Zr1 75.8(5) . .
C1C C2C C1C 108.8(13) . 24
C1C C2C Zr3 76.1(6) . .
C1C C2C Zr3 76.1(6) 24 .
C9C C8C C10C 107.8(10) . .
C9C C8C Zr2 75.9(7) . .
C10C C8C Zr2 75.3(6) . .
C4 C4 C2 121.4(5) 22_665 .
C8C C9C C7C 110.5(12) . .
C8C C9C Zr2 74.2(6) . .
C7C C9C Zr2 74.8(8) . .
C11C C10C C8C 108.6(11) . .
C11C C10C Zr2 74.2(7) . .
C8C C10C Zr2 73.1(6) . .
C10C C11C C7C 109.0(12) . .
C10C C11C Zr2 76.1(7) . .
C7C C11C Zr2 74.8(8) . .
loop_
_geom_bond_atom_site_label_1
_geom_bond_atom_site_label_2
_geom_bond_distance
_geom_bond_site_symmetry_2
Zr1 O4C 2.068(3) .
Zr1 O5C 2.128(3) 3_665
Zr1 O5C 2.128(3) .
Zr1 O4 2.170(5) .
Zr1 O4 2.170(4) 22_665
Zr1 C6C 2.435(13) .
Zr1 C5C 2.513(8) 22_665
Zr1 C5C 2.513(8) .
Zr1 C4C 2.555(7) 22_665
Zr1 C4C 2.555(7) .
Zr1 Zr1 3.3477(17) 2_655
Zr1 Zr1 3.3477(17) 3_665
Zr2 O1C 2.074(4) .
Zr2 O2C 2.112(4) .
Zr2 O3C 2.127(4) .
Zr2 O2 2.166(5) .
Zr2 O3 2.166(5) .
Zr2 C8C 2.496(9) .
Zr2 C11C 2.501(12) .
Zr2 C9C 2.516(10) .
Zr2 C10C 2.523(10) .
Zr2 C7C 2.525(12) .
Zr2 Zr3 3.3419(11) .
Zr2 Zr2 3.3439(15) 24
Zr3 O1C 2.088(6) .
Zr3 O2C 2.126(5) 24
Zr3 O2C 2.126(5) .
Zr3 O1 2.187(5) .
Zr3 O1 2.187(5) 24
Zr3 C2C 2.469(11) .
Zr3 C1C 2.540(8) .
Zr3 C1C 2.540(8) 24
Zr3 C3C 2.542(7) 24
Zr3 C3C 2.542(7) .
Zr3 Zr2 3.3419(11) 24
O4C Zr1 2.068(3) 3_665
O4C Zr1 2.068(3) 2_655
O5C Zr1 2.128(3) 2_655
O1C Zr2 2.074(4) 24
O3C Zr2 2.127(4) 24
O4 C8 1.290(6) .
C8 O4 1.289(6) 24
C8 C9 1.477(12) .
O3 C5 1.268(6) .
O1 C1 1.240(10) .
O2 C1 1.287(9) 24
C9 C10 1.367(9) 24
C9 C10 1.367(9) .
C7 C6 1.405(9) .
C7 C10 1.411(11) .
C4C C4C 1.277(14) 22_665
C4C C5C 1.387(12) .
C1 O2 1.287(9) 24
C1 C2 1.458(11) .
C6C C5C 1.359(11) 22_665
C6C C5C 1.359(11) .
C6 C7 1.405(9) 24
C6 C5 1.501(14) .
C3C C3C 1.321(15) 24
C3C C1C 1.402(12) 24
C2 C4 1.392(11) .
C2 C3 1.429(12) .
C3 C3 1.363(17) 22_665
C1C C3C 1.402(12) 24
C1C C2C 1.436(12) .
C5 O3 1.268(6) 24
C7C C9C 1.352(19) .
C7C C11C 1.399(14) .
C2C C1C 1.436(12) 24
C8C C9C 1.296(15) .
C8C C10C 1.363(12) .
C4 C4 1.363(17) 22_665
C10C C11C 1.287(13) .
loop_
_platon_squeeze_void_nr
_platon_squeeze_void_average_x
_platon_squeeze_void_average_y
_platon_squeeze_void_average_z
_platon_squeeze_void_volume
_platon_squeeze_void_count_electrons
_platon_squeeze_void_content
1 -0.034 -0.048 -0.001 21825 5217 ' '
