#------------------------------------------------------------------------------
#$Date: 2017-09-26 04:55:15 +0300 (Tue, 26 Sep 2017) $
#$Revision: 201288 $
#$URL: file:///home/coder/svn-repositories/cod/cif/1/54/73/1547342.cif $
#------------------------------------------------------------------------------
#
# This file is available in the Crystallography Open Database (COD),
# http://www.crystallography.net/
#
# All data on this site have been placed in the public domain by the
# contributors.
#
data_1547342
loop_
_publ_author_name
'Nam, Dongsik'
'Huh, Jihyun'
'Lee, Jiyoung'
'Kwak, Ja Hun'
'Jeong, Hu Young'
'Choi, Kyungmin'
'Choe, Wonyoung'
_publ_section_title
;
 Cross-linking Zr-based Metal-Organic Polyhedra via Postsynthetic
 Polymerization
;
_journal_name_full               'Chem. Sci.'
_journal_paper_doi               10.1039/C7SC03847J
_journal_year                    2017
_chemical_formula_sum            'C116 H126 Cl6 N8 O40 Zr12'
_chemical_formula_weight         3579.58
_chemical_name_systematic        UMOP-1-NH2
_space_group_crystal_system      cubic
_space_group_IT_number           225
_space_group_name_Hall           '-F 4 2 3'
_space_group_name_H-M_alt        'F m -3 m'
_symmetry_space_group_name_Hall  '-F 4 2 3'
_symmetry_space_group_name_H-M   'F m -3 m'
_atom_sites_solution_hydrogens   geom
_audit_creation_method           SHELXL-2014/7
_audit_update_record
;
2016-11-30 deposited with the CCDC.
2017-09-25 downloaded from the CCDC.
;
_cell_angle_alpha                90
_cell_angle_beta                 90
_cell_angle_gamma                90
_cell_formula_units_Z            8
_cell_length_a                   36.748(4)
_cell_length_b                   36.748(4)
_cell_length_c                   36.748(4)
_cell_measurement_reflns_used    180633
_cell_measurement_temperature    100(2)
_cell_measurement_theta_max      27.485
_cell_measurement_theta_min      1.544
_cell_volume                     49625(9)
_computing_cell_refinement       HKL3000
_computing_data_collection       'PAL ADSC Quantum-210 ADX Program'
_computing_data_reduction        HKL3000
_computing_molecular_graphics    ORTEP
_computing_publication_material  CIFTAB
_computing_structure_refinement  'SHELXL-2014/7 (Sheldrick, 2014)'
_computing_structure_solution    SHELXS
_diffrn_ambient_temperature      100(2)
_diffrn_measured_fraction_theta_full 0.996
_diffrn_measured_fraction_theta_max 0.984
_diffrn_measurement_device_type  'ADSC Q210 CCD area detector'
_diffrn_measurement_method       'omega scan'
_diffrn_radiation_type           synchrotron
_diffrn_radiation_wavelength     0.70001
_diffrn_reflns_av_R_equivalents  0.0350
_diffrn_reflns_av_unetI/netI     0.0183
_diffrn_reflns_Laue_measured_fraction_full 0.996
_diffrn_reflns_Laue_measured_fraction_max 0.984
_diffrn_reflns_limit_h_max       42
_diffrn_reflns_limit_h_min       -42
_diffrn_reflns_limit_k_max       48
_diffrn_reflns_limit_k_min       -47
_diffrn_reflns_limit_l_max       47
_diffrn_reflns_limit_l_min       -47
_diffrn_reflns_number            26230
_diffrn_reflns_point_group_measured_fraction_full 0.996
_diffrn_reflns_point_group_measured_fraction_max 0.984
_diffrn_reflns_theta_full        24.835
_diffrn_reflns_theta_max         27.485
_diffrn_reflns_theta_min         1.544
_diffrn_source                   'PLSII 2D bending magnet'
_exptl_absorpt_coefficient_mu    0.559
_exptl_absorpt_correction_T_max  0.978
_exptl_absorpt_correction_T_min  0.973
_exptl_absorpt_correction_type   multi-scan
_exptl_absorpt_process_details   HKL3000
_exptl_crystal_colour            yellow
_exptl_crystal_density_diffrn    0.958
_exptl_crystal_description       cubic
_exptl_crystal_F_000             14240
_exptl_crystal_size_max          0.050
_exptl_crystal_size_mid          0.050
_exptl_crystal_size_min          0.040
_refine_diff_density_max         0.855
_refine_diff_density_min         -0.507
_refine_diff_density_rms         0.092
_refine_ls_extinction_method     none
_refine_ls_goodness_of_fit_ref   1.214
_refine_ls_hydrogen_treatment    constr
_refine_ls_matrix_type           full
_refine_ls_number_parameters     83
_refine_ls_number_reflns         2906
_refine_ls_number_restraints     0
_refine_ls_restrained_S_all      1.214
_refine_ls_R_factor_all          0.0968
_refine_ls_R_factor_gt           0.0758
_refine_ls_shift/su_max          0.000
_refine_ls_shift/su_mean         0.000
_refine_ls_structure_factor_coef Fsqd
_refine_ls_weighting_details
'w=1/[\s^2^(Fo^2^)+(0.2000P)^2^] where P=(Fo^2^+2Fc^2^)/3'
_refine_ls_weighting_scheme      calc
_refine_ls_wR_factor_gt          0.2723
_refine_ls_wR_factor_ref         0.3085
_reflns_Friedel_coverage         0.000
_reflns_number_gt                1874
_reflns_number_total             2906
_reflns_threshold_expression     'I > 2\s(I)'
_cod_data_source_file            c7sc03847j2.cif
_cod_data_source_block           UMOP-1-NH2
_cod_original_cell_volume        49626(17)
_cod_database_code               1547342
_shelx_shelxl_version_number     2014/7
_shelx_space_group_comment
;
The symmetry employed for this shelxl refinement is uniquely defined
by the following loop, which should always be used as a source of
symmetry information in preference to the above space-group names.
They are only intended as comments.
;
_shelx_res_file
;

    fm-3m_sq.res created by SHELXL-2014/7


TITL Fm-3m in Fm-3m
CELL 0.70001  36.7483  36.7483  36.7483  90.000  90.000  90.000
ZERR    8.00   0.0042   0.0042   0.0042   0.000   0.000   0.000
LATT 4
SYMM -X, -Y, Z
SYMM -X, Y, -Z
SYMM X, -Y, -Z
SYMM Z, X, Y
SYMM Z, -X, -Y
SYMM -Z, -X, Y
SYMM -Z, X, -Y
SYMM Y, Z, X
SYMM -Y, Z, -X
SYMM Y, -Z, -X
SYMM -Y, -Z, X
SYMM Y, X, -Z
SYMM -Y, -X, -Z
SYMM Y, -X, Z
SYMM -Y, X, Z
SYMM X, Z, -Y
SYMM -X, Z, Y
SYMM -X, -Z, -Y
SYMM X, -Z, Y
SYMM Z, Y, -X
SYMM Z, -Y, X
SYMM -Z, Y, X
SYMM -Z, -Y, -X
SFAC C  H  N  O  Cl Zr
DISP C          0.0030         0.0016          10.98
DISP H          0.0000         0.0000           0.67
DISP N          0.0059         0.0032          18.71
DISP O          0.0105         0.0059          30.82
DISP Cl         0.1456         0.1550         639.88
DISP Zr        -3.5084         0.5477        2341.16
UNIT 928 1008 64 320 48 96
L.S. 24
BOND
FMAP 2
PLAN 10
TEMP -173
SIZE 0.05 0.05 0.04
OMIT -3 55.00
ABIN
ACTA
WGHT    0.200000
FVAR       0.03215
MOLE 1
C1    1    0.194225    0.107492    0.194225    10.50000    0.11297    0.09735 =
         0.11297   -0.00384   -0.03794   -0.00384
C2    1    0.223353    0.110362    0.223353    10.50000    0.10374    0.11501 =
         0.10374    0.00381   -0.03518    0.00381
C3    1    0.212633    0.110491    0.259518    11.00000    0.11844    0.18393 =
         0.10654    0.00636   -0.04182   -0.00890
C1C   1    0.086396    0.086396    0.232522    10.50000    0.27464    0.27464 =
         0.06555   -0.00256   -0.00256   -0.19456
AFIX  43
H1C   2    0.096988    0.096987    0.253593    10.50000   -1.20000
AFIX   0
C2C   1    0.098196    0.057098    0.215116    11.00000    0.10049    0.15473 =
         0.25858    0.11043   -0.01166   -0.00035
AFIX  43
H2C   2    0.118097    0.041970    0.221705    11.00000   -1.20000
AFIX   0
C3C   1    0.076524    0.053318    0.186707    11.00000    0.15735    0.11091 =
         0.16968   -0.02295    0.07430   -0.03237
AFIX  43
H3C   2    0.078886    0.034871    0.168750    11.00000   -1.20000
AFIX   0
CL1   5    0.000000    0.114576    0.114576    10.25000    0.10093    0.13329 =
         0.13329    0.01120    0.00000    0.00000
N1    3    0.178445    0.113119    0.273787    10.25000    0.05273    0.38676 =
         0.10836   -0.06372   -0.02279    0.01680
AFIX  93
H1A   2    0.159519    0.115066    0.259245    10.25000   -1.20000
H1B   2    0.175327    0.112866    0.297528    10.25000   -1.20000
AFIX   0
O1    4    0.161419    0.105657    0.205636    11.00000    0.08561    0.11442 =
         0.09183   -0.00499   -0.01756   -0.00400
O1C   4    0.143940    0.143940    0.143940    10.16667    0.08966    0.08966 =
         0.08966   -0.01218   -0.01218   -0.01218
O2C   4    0.076755    0.135767    0.135767    10.50000    0.08181    0.08568 =
         0.08568   -0.00782   -0.00603   -0.00603
AFIX  43
H2C0  2    0.052013    0.130469    0.130470    10.50000   -1.20000
AFIX   0
ZR1   6    0.110942    0.110942    0.175228    10.50000    0.08546    0.08546 =
         0.07635   -0.00541   -0.00541   -0.00582
HKLF 4

REM  Fm-3m in Fm-3m
REM R1 =  0.0758 for    1874 Fo > 4sig(Fo)  and  0.0968 for all    2906 data
REM     83 parameters refined using      0 restraints

END

WGHT      0.2000      0.0000

REM Highest difference peak  0.855,  deepest hole -0.507,  1-sigma level  0.092
Q1    1   0.0000  0.1359  0.1359  10.25000  0.05    0.69
Q2    1   0.0000  0.0000  0.0000  10.02083  0.05    0.58
Q3    1   0.2189  0.1121  0.2665  11.00000  0.05    0.43
Q4    1   0.0000  0.0000  0.1302  10.12500  0.05    0.37
Q5    1   0.1019  0.0495  0.1987  11.00000  0.05    0.37
Q6    1   0.0474  0.1103  0.1103  10.50000  0.05    0.36
Q7    1   0.2005  0.0000  0.2005  10.25000  0.05    0.35
Q8    1   0.1080  0.0000  0.1718  10.50000  0.05    0.34
Q9    1   0.1583  0.1583  0.3335  10.50000  0.05    0.34
Q10   1   0.1097  0.0073  0.1661  11.00000  0.05    0.33
;
_shelx_res_checksum              30012
_shelx_fab_file
;
    0    0    8     -3.68      0.00
    0    0   12    306.59      0.00
    0    0   16    215.64      0.00
    0    0   20     83.31      0.00
    0    0   22     47.97      0.00
    0    0   24     44.20      0.00
    0    0   26     -6.00      0.00
    0    0   28      0.86      0.00
    0    0   30     18.93      0.00
    0    0   32     -6.32      0.00
    0    0   34     -3.76      0.00
    0    0   36     33.30      0.00
    0    0   38     -7.81      0.00
    0    0   40      8.39      0.00
    0    0   42     14.39      0.00
    0    2    6   -321.15      0.00
    0    2    8   -143.39      0.00
    0    2   10   -152.70      0.00
    0    2   12     -2.33      0.00
    0    2   14    -54.51      0.00
    0    2   16    -12.63      0.00
    0    2   18     12.52      0.00
    0    2   20     11.77      0.00
    0    2   22    -27.21      0.00
    0    2   24    -24.88      0.00
    0    2   26      4.36      0.00
    0    2   28     20.40      0.00
    0    2   30     -6.27      0.00
    0    2   32     15.47      0.00
    0    2   34      2.35      0.00
    0    2   36     -3.91      0.00
    0    2   38      5.61      0.00
    0    2   40      0.14      0.00
    0    2   42     -4.33      0.00
    0    2   44      1.49      0.00
    0    4    6    273.60      0.00
    0    4    8    -54.90      0.00
    0    4   10    281.80      0.00
    0    4   12    -22.57      0.00
    0    4   14     83.67      0.00
    0    4   16     69.17      0.00
    0    4   18     14.59      0.00
    0    4   20      3.46      0.00
    0    4   22     11.21      0.00
    0    4   24    -39.72      0.00
    0    4   26    -14.40      0.00
    0    4   28     -1.55      0.00
    0    4   30      1.55      0.00
    0    4   32      8.46      0.00
    0    4   34     -2.28      0.00
    0    4   36      6.95      0.00
    0    4   38      0.27      0.00
    0    4   40      1.23      0.00
    0    4   42     -1.42      0.00
    0    4   44      0.20      0.00
    0    4   46     19.12      0.00
    0    0    6    839.63      0.00
    0    6    6    230.53      0.00
    0    6    8     11.43      0.00
    0    6   10     74.09      0.00
    0    6   12      1.71      0.00
    0    6   14      4.77      0.00
    0    6   16    -18.76      0.00
    0    6   18    -19.74      0.00
    0    6   20     15.90      0.00
    0    6   22      7.17      0.00
    0    6   24     12.50      0.00
    0    6   26     15.39      0.00
    0    6   28     10.77      0.00
    0    6   30     -0.99      0.00
    0    6   32     -0.96      0.00
    0    6   34     -4.76      0.00
    0    6   36      2.02      0.00
    0    6   38      7.79      0.00
    0    6   40      5.21      0.00
    0    6   42     -2.61      0.00
    0    6   44      1.21      0.00
    0    6   46      3.37      0.00
    0    8    8    122.94      0.00
    0    8   10     30.17      0.00
    0    8   12     55.69      0.00
    0    8   14    -24.55      0.00
    0    8   16     -1.79      0.00
    0    8   18     -5.53      0.00
    0    8   20     10.45      0.00
    0    8   22     -1.69      0.00
    0    8   24     -1.35      0.00
    0    8   26      6.40      0.00
    0    8   28     -3.01      0.00
    0    8   30     -2.64      0.00
    0    8   32      8.77      0.00
    0    8   34     -0.38      0.00
    0    8   36     -2.19      0.00
    0    8   38      2.24      0.00
    0    8   40    -10.12      0.00
    0    8   42      0.74      0.00
    0    8   44     -5.14      0.00
    0    8   46     -1.39      0.00
    0   10   10    111.03      0.00
    0   10   12    -27.20      0.00
    0   10   14     -8.60      0.00
    0   10   16     27.52      0.00
    0   10   18    -19.05      0.00
    0   10   20     12.83      0.00
    0   10   22     -5.24      0.00
    0   10   24      6.00      0.00
    0   10   26     -6.82      0.00
    0   10   28    -11.86      0.00
    0   10   30     11.83      0.00
    0   10   32     -0.49      0.00
    0   10   34     -3.97      0.00
    0   10   36     -1.76      0.00
    0   10   38      3.46      0.00
    0   10   40     -0.86      0.00
    0   10   42     -6.76      0.00
    0   10   44      2.66      0.00
    0   10   46      1.64      0.00
    0   12   12     19.57      0.00
    0   12   14     -0.25      0.00
    0   12   16      4.10      0.00
    0   12   18      2.73      0.00
    0   12   20     28.03      0.00
    0   12   22      6.22      0.00
    0   12   24      2.26      0.00
    0   12   26      5.80      0.00
    0   12   28      7.77      0.00
    0   12   30     -0.44      0.00
    0   12   32      1.10      0.00
    0   12   34      2.82      0.00
    0   12   36     -6.02      0.00
    0   12   38      2.76      0.00
    0   12   40      4.92      0.00
    0   12   42      7.75      0.00
    0   12   44     -2.96      0.00
    0   12   46      3.64      0.00
    0    0   14    211.62      0.00
    0   14   14     15.07      0.00
    0   14   16     28.40      0.00
    0   14   18     32.08      0.00
    0   14   20     31.73      0.00
    0   14   22    -12.37      0.00
    0   14   24     -7.88      0.00
    0   14   26      1.39      0.00
    0   14   28     -3.83      0.00
    0   14   30      6.25      0.00
    0   14   32     20.87      0.00
    0   14   34      7.95      0.00
    0   14   36     -6.73      0.00
    0   14   38     -9.79      0.00
    0   14   40     -6.17      0.00
    0   14   42      2.40      0.00
    0   14   44     -0.80      0.00
    0   16   16     62.83      0.00
    0   16   18     16.66      0.00
    0   16   20      3.98      0.00
    0   16   22      3.89      0.00
    0   16   24      1.18      0.00
    0   16   26    -11.12      0.00
    0   16   28     -1.91      0.00
    0   16   30      8.06      0.00
    0   16   32      5.41      0.00
    0   16   34      1.82      0.00
    0   16   36      1.51      0.00
    0   16   38     -0.04      0.00
    0   16   40     -3.29      0.00
    0   16   42     -3.04      0.00
    0   18   18     36.92      0.00
    0   18   20     16.04      0.00
    0   18   22     -2.68      0.00
    0   18   24     -1.45      0.00
    0   18   26    -15.95      0.00
    0   18   28      2.59      0.00
    0   18   30      1.57      0.00
    0   18   32     -1.86      0.00
    0   18   34      9.86      0.00
    0   18   36      5.07      0.00
    0   18   38      3.43      0.00
    0   18   40     12.41      0.00
    0   18   42     -1.52      0.00
    0   20   20      2.39      0.00
    0   20   22     -4.00      0.00
    0   20   24     -4.53      0.00
    0   20   26      6.43      0.00
    0   20   28     -3.40      0.00
    0   20   30      1.81      0.00
    0   20   32      0.27      0.00
    0   20   34     -6.67      0.00
    0   20   36     -3.98      0.00
    0   20   38     -1.81      0.00
    0   20   40      7.86      0.00
    0   20   42      6.02      0.00
    0   22   22      4.89      0.00
    0   22   24      6.23      0.00
    0   22   26     -5.18      0.00
    0   22   28      1.74      0.00
    0   22   30      1.48      0.00
    0   22   32     -3.29      0.00
    0   22   34     -1.36      0.00
    0   22   36      2.35      0.00
    0   22   38     -1.53      0.00
    0   22   40     -5.17      0.00
    0   24   24     -6.15      0.00
    0   24   26      6.23      0.00
    0   24   28      0.60      0.00
    0   24   30     -0.25      0.00
    0   24   32     -1.79      0.00
    0   24   34     -2.32      0.00
    0   24   36      4.44      0.00
    0   24   38     -3.49      0.00
    0   24   40      0.73      0.00
    0   24   42     -5.44      0.00
    0   26   26     13.88      0.00
    0   26   28      0.98      0.00
    0   26   30     -1.44      0.00
    0   26   32     -2.02      0.00
    0   26   34      1.74      0.00
    0   26   40     -0.18      0.00
    0   28   28     -5.75      0.00
    0   28   30      1.79      0.00
    0   28   32     -0.18      0.00
    0   28   34      1.82      0.00
    0   30   30     -0.92      0.00
    0   30   32      4.58      0.00
    0   30   34      3.57      0.00
    0   30   36     10.34      0.00
    0   30   38      5.19      0.00
    0   32   32      0.75      0.00
    0   32   34     11.55      0.00
    0   34   34      6.85      0.00
    0   26   36     -5.67      0.00
    0   28   36      3.75      0.00
    0   28   42     -2.99      0.00
    0   30   42     -1.86      0.00
    0    0   44      2.79      0.00
    0    2   46      2.76      0.00
    0    2   48     -0.15      0.00
    0    4   48      3.91      0.00
    1    1    5    -16.04      0.00
    1    1    7   -127.05      0.00
    1    1    9    -77.66      0.00
    1    1   11    -63.36      0.00
    1    1   13     79.05      0.00
    1    1   15     55.84      0.00
    1    1   17     10.78      0.00
    1    1   19    -11.25      0.00
    1    1   21     43.22      0.00
    1    1   23      4.59      0.00
    1    1   25      3.14      0.00
    1    1   27      8.06      0.00
    1    1   29     -2.78      0.00
    1    1   31      7.29      0.00
    1    1   33      5.71      0.00
    1    1   35      5.70      0.00
    1    1   37      5.01      0.00
    1    1   39      6.08      0.00
    1    1   41     -6.25      0.00
    1    1   43     -2.97      0.00
    1    3    3   -101.33      0.00
    1    3    5   -267.04      0.00
    1    3    7    -25.35      0.00
    1    3    9      1.51      0.00
    1    3   11      5.47      0.00
    1    3   13     34.82      0.00
    1    3   15     -4.96      0.00
    1    3   17     43.74      0.00
    1    3   19     11.04      0.00
    1    3   21      4.35      0.00
    1    3   23    -10.62      0.00
    1    3   25      6.25      0.00
    1    3   27      6.88      0.00
    1    3   29     -0.40      0.00
    1    3   31      4.36      0.00
    1    3   33      3.57      0.00
    1    3   35      5.87      0.00
    1    3   37      0.77      0.00
    1    3   39     -7.73      0.00
    1    3   41     -1.62      0.00
    1    3   43      2.59      0.00
    1    3   45     -1.36      0.00
    1    3   47     -1.51      0.00
    1    5    7     74.39      0.00
    1    5    9     76.19      0.00
    1    5   11     24.56      0.00
    1    5   13     -3.50      0.00
    1    5   15    -71.41      0.00
    1    5   17     -8.70      0.00
    1    5   19     13.45      0.00
    1    5   21     -4.65      0.00
    1    5   23     20.49      0.00
    1    5   25     19.73      0.00
    1    5   27     -0.17      0.00
    1    5   29     -0.37      0.00
    1    5   31      0.67      0.00
    1    5   33     -9.01      0.00
    1    5   35      0.08      0.00
    1    5   37     -0.41      0.00
    1    5   39      7.52      0.00
    1    5   41      1.70      0.00
    1    5   43      4.67      0.00
    1    5   45     -4.27      0.00
    1    5   47    -18.42      0.00
    1    7    7    116.13      0.00
    1    7    9     90.57      0.00
    1    7   11     42.84      0.00
    1    7   13     -0.56      0.00
    1    7   15    -14.74      0.00
    1    7   17      4.14      0.00
    1    7   19     -6.58      0.00
    1    7   21      2.51      0.00
    1    7   23     14.01      0.00
    1    7   25      0.60      0.00
    1    7   27      6.05      0.00
    1    7   29      5.47      0.00
    1    7   31      1.08      0.00
    1    7   33     -0.69      0.00
    1    7   35      3.09      0.00
    1    7   37      1.54      0.00
    1    7   39     -1.28      0.00
    1    7   41      5.17      0.00
    1    7   43      3.18      0.00
    1    7   45      0.56      0.00
    1    7   47      3.24      0.00
    1    9    9     76.81      0.00
    1    9   11     28.00      0.00
    1    9   13     -8.39      0.00
    1    9   15      5.13      0.00
    1    9   17    -27.63      0.00
    1    9   19      6.50      0.00
    1    9   21     18.07      0.00
    1    9   23      5.80      0.00
    1    9   25     14.40      0.00
    1    9   27     30.00      0.00
    1    9   29      1.64      0.00
    1    9   31      2.96      0.00
    1    9   33      3.93      0.00
    1    9   35     -0.20      0.00
    1    9   37      1.10      0.00
    1    9   39     -1.71      0.00
    1    9   41     -5.38      0.00
    1    9   43     -6.36      0.00
    1    9   45     -1.38      0.00
    1    9   47     -4.90      0.00
    1   11   11    -16.55      0.00
    1   11   13     -4.10      0.00
    1   11   15    -19.59      0.00
    1   11   17      6.34      0.00
    1   11   19     12.90      0.00
    1   11   21      4.18      0.00
    1   11   23      4.90      0.00
    1   11   25     -4.23      0.00
    1   11   27     -1.97      0.00
    1   11   29      4.06      0.00
    1   11   31      0.38      0.00
    1   11   33     -2.76      0.00
    1   11   35      2.89      0.00
    1   11   37      1.56      0.00
    1   11   39     -1.06      0.00
    1   11   41      1.49      0.00
    1   11   43      7.54      0.00
    1   11   45     -2.24      0.00
    1   13   13      1.23      0.00
    1   13   15     15.43      0.00
    1   13   17     32.42      0.00
    1   13   19     24.48      0.00
    1   13   21      4.83      0.00
    1   13   23     -6.13      0.00
    1   13   25      0.57      0.00
    1   13   27      9.57      0.00
    1   13   29      5.10      0.00
    1   13   31      2.65      0.00
    1   13   33      1.71      0.00
    1   13   35      2.44      0.00
    1   13   37      2.41      0.00
    1   13   39      2.43      0.00
    1   13   41     -7.72      0.00
    1   13   43     -3.27      0.00
    1   13   45     -1.82      0.00
    1   15   15     15.22      0.00
    1   15   17     29.20      0.00
    1   15   19     14.34      0.00
    1   15   21      0.79      0.00
    1   15   23     -6.65      0.00
    1   15   25      2.00      0.00
    1   15   27      5.66      0.00
    1   15   29      2.73      0.00
    1   15   31      4.30      0.00
    1   15   33     -5.38      0.00
    1   15   35     -0.17      0.00
    1   15   37      2.51      0.00
    1   15   39      4.62      0.00
    1   15   41     -1.71      0.00
    1   17   17     31.77      0.00
    1   17   19     11.81      0.00
    1   17   21      4.62      0.00
    1   17   23      3.05      0.00
    1   17   25     -4.79      0.00
    1   17   27     -1.85      0.00
    1   17   29     -0.23      0.00
    1   17   31     -0.22      0.00
    1   17   33      2.82      0.00
    1   17   35      1.83      0.00
    1   17   37      2.36      0.00
    1   17   39      3.38      0.00
    1   17   41     -3.52      0.00
    1   19   19      5.96      0.00
    1   19   21      9.96      0.00
    1   19   23      1.58      0.00
    1   19   25     -4.06      0.00
    1   19   27      2.80      0.00
    1   19   29     -5.30      0.00
    1   19   31      3.05      0.00
    1   19   33      3.98      0.00
    1   19   35      0.55      0.00
    1   19   37      0.78      0.00
    1   19   39      0.00      0.00
    1   19   41    -14.61      0.00
    1   19   43     -2.46      0.00
    1   21   21      0.65      0.00
    1   21   23      2.30      0.00
    1   21   25      1.57      0.00
    1   21   27      2.09      0.00
    1   21   29      1.69      0.00
    1   21   31      1.61      0.00
    1   21   33      2.84      0.00
    1   21   35     -2.48      0.00
    1   21   37      4.11      0.00
    1   21   39      7.07      0.00
    1   21   41      4.60      0.00
    1   23   23      5.99      0.00
    1   23   25      5.79      0.00
    1   23   27     -0.83      0.00
    1   23   29      2.08      0.00
    1   23   31     -2.24      0.00
    1   23   33     -1.90      0.00
    1   23   35      0.61      0.00
    1   23   37      0.40      0.00
    1   23   39      3.60      0.00
    1   23   41      5.29      0.00
    1   25   25      4.44      0.00
    1   25   27      4.38      0.00
    1   25   29      1.98      0.00
    1   25   31     -3.80      0.00
    1   25   33     -1.69      0.00
    1   25   35      6.46      0.00
    1   25   37     -3.39      0.00
    1   25   39      2.63      0.00
    1   25   41     -0.82      0.00
    1   27   27      1.44      0.00
    1   27   29     -4.08      0.00
    1   27   31     -0.95      0.00
    1   27   33      1.73      0.00
    1   27   35     -0.60      0.00
    1   27   41      3.77      0.00
    1   29   29      8.53      0.00
    1   29   31      5.82      0.00
    1   29   33     -0.75      0.00
    1   29   35      3.00      0.00
    1   31   31      0.10      0.00
    1   31   33     -3.11      0.00
    1   31   37     -1.46      0.00
    1   33   33     -2.07      0.00
    1   33   35     -7.86      0.00
    1   29   41      1.79      0.00
    1   23   43      6.21      0.00
    1    1   45      6.35      0.00
    0    2    4   -469.19      0.00
    0    2    2    281.00      0.00
    2    2    2    214.16      0.00
    2    2    4    280.76      0.00
    2    2    6   -209.96      0.00
    2    2    8     52.58      0.00
    2    2   10     49.07      0.00
    2    2   12     18.84      0.00
    2    2   14     60.04      0.00
    2    2   16     20.79      0.00
    2    2   18     73.88      0.00
    2    2   20     21.33      0.00
    2    2   22    -12.10      0.00
    2    2   24     26.78      0.00
    2    2   26    -23.76      0.00
    2    2   28     -1.82      0.00
    2    2   30     10.23      0.00
    2    2   32    -18.66      0.00
    2    2   34      3.13      0.00
    2    2   36      5.57      0.00
    2    2   38     -4.18      0.00
    2    2   40     -3.29      0.00
    2    2   42     -3.61      0.00
    2    2   44     -0.56      0.00
    2    2   46     -0.27      0.00
    2    4    4   -118.16      0.00
    2    4    6   -134.98      0.00
    2    4    8     47.88      0.00
    2    4   10    -52.11      0.00
    2    4   12    -15.29      0.00
    2    4   14     -0.55      0.00
    2    4   16     -5.49      0.00
    2    4   18    -33.67      0.00
    2    4   20     16.93      0.00
    2    4   22     -2.93      0.00
    2    4   24     -7.21      0.00
    2    4   26      9.64      0.00
    2    4   28     13.61      0.00
    2    4   30     -9.63      0.00
    2    4   32      0.19      0.00
    2    4   34      0.06      0.00
    2    4   36     -1.90      0.00
    2    4   38     -0.18      0.00
    2    4   40      5.21      0.00
    2    4   42     -3.63      0.00
    2    4   44      0.52      0.00
    2    4   46      5.89      0.00
    2    6    6   -163.99      0.00
    2    6    8     91.21      0.00
    2    6   10    -55.06      0.00
    2    6   12    -24.38      0.00
    2    6   14     -8.13      0.00
    2    6   16    -40.85      0.00
    2    6   18     -2.22      0.00
    2    6   20      3.13      0.00
    2    6   22     -4.32      0.00
    2    6   24     14.31      0.00
    2    6   26      5.13      0.00
    2    6   28     10.00      0.00
    2    6   30      3.04      0.00
    2    6   32      3.79      0.00
    2    6   34      0.74      0.00
    2    6   36      1.56      0.00
    2    6   38      3.83      0.00
    2    6   40     -1.30      0.00
    2    6   42     -2.07      0.00
    2    6   44     -1.06      0.00
    2    6   46      6.88      0.00
    2    8    8     89.82      0.00
    2    8   10     93.32      0.00
    2    8   12     41.04      0.00
    2    8   14    -23.29      0.00
    2    8   16      0.37      0.00
    2    8   18     11.03      0.00
    2    8   20      0.77      0.00
    2    8   22     -5.54      0.00
    2    8   24     25.01      0.00
    2    8   26     -0.11      0.00
    2    8   28      3.20      0.00
    2    8   30     -0.41      0.00
    2    8   32     -3.72      0.00
    2    8   34     -2.76      0.00
    2    8   36      5.89      0.00
    2    8   38     -6.05      0.00
    2    8   40     -1.45      0.00
    2    8   42      1.02      0.00
    2    8   44     -3.36      0.00
    2    8   46     -6.94      0.00
    2   10   10    -17.63      0.00
    2   10   12     15.24      0.00
    2   10   14    -13.64      0.00
    2   10   16    -16.87      0.00
    2   10   18      1.45      0.00
    2   10   20      0.53      0.00
    2   10   22      7.64      0.00
    2   10   24      6.35      0.00
    2   10   26      1.36      0.00
    2   10   28      3.52      0.00
    2   10   30     -2.75      0.00
    2   10   32      2.15      0.00
    2   10   34      2.58      0.00
    2   10   36     -1.41      0.00
    2   10   38     -1.66      0.00
    2   10   40      1.10      0.00
    2   10   42     -5.19      0.00
    2   10   44     -1.69      0.00
    2   10   46      5.70      0.00
    2   12   12      3.92      0.00
    2   12   14      0.40      0.00
    2   12   16      9.06      0.00
    2   12   18     18.14      0.00
    2   12   20      6.43      0.00
    2   12   22     -9.86      0.00
    2   12   24      1.41      0.00
    2   12   26     -1.74      0.00
    2   12   28      7.03      0.00
    2   12   30      3.63      0.00
    2   12   32      3.55      0.00
    2   12   34     -0.99      0.00
    2   12   36     -4.66      0.00
    2   12   38     -4.59      0.00
    2   12   40     -6.41      0.00
    2   12   42     -2.19      0.00
    2   12   44      3.97      0.00
    2   12   46      0.73      0.00
    2   14   14    -26.60      0.00
    2   14   16      9.18      0.00
    2   14   18     23.82      0.00
    2   14   20     -5.48      0.00
    2   14   22     -3.99      0.00
    2   14   24     -9.13      0.00
    2   14   26     -3.80      0.00
    2   14   28      1.12      0.00
    2   14   30     -5.61      0.00
    2   14   32     14.02      0.00
    2   14   34      4.17      0.00
    2   14   36      3.32      0.00
    2   14   38      0.54      0.00
    2   14   40     -3.57      0.00
    2   14   42      9.12      0.00
    2   14   44      3.17      0.00
    2   14   46      3.92      0.00
    2   16   16     27.80      0.00
    2   16   18      8.41      0.00
    2   16   20      5.16      0.00
    2   16   22     -2.02      0.00
    2   16   24     -2.82      0.00
    2   16   26     -7.96      0.00
    2   16   28     -1.14      0.00
    2   16   30      8.37      0.00
    2   16   32      3.74      0.00
    2   16   34      1.97      0.00
    2   16   36     -5.34      0.00
    2   16   38     -1.27      0.00
    2   16   40     -5.80      0.00
    2   16   42      1.26      0.00
    2   18   18      3.72      0.00
    2   18   20      5.95      0.00
    2   18   22     -5.04      0.00
    2   18   24     -7.52      0.00
    2   18   26      3.21      0.00
    2   18   28      4.30      0.00
    2   18   30      7.79      0.00
    2   18   32      8.09      0.00
    2   18   34      2.30      0.00
    2   18   36      3.51      0.00
    2   18   38      4.30      0.00
    2   18   40     -4.58      0.00
    2   18   42      2.82      0.00
    2   18   44    -10.16      0.00
    2   20   20      6.61      0.00
    2   20   22      0.98      0.00
    2   20   24     -1.07      0.00
    2   20   26     -3.55      0.00
    2   20   28      0.18      0.00
    2   20   30      1.13      0.00
    2   20   32      3.18      0.00
    2   20   34      1.41      0.00
    2   20   36      1.16      0.00
    2   20   38      1.78      0.00
    2   20   40      1.25      0.00
    2   20   42     12.11      0.00
    2   22   22     -0.42      0.00
    2   22   24      6.93      0.00
    2   22   26      4.83      0.00
    2   22   28      2.40      0.00
    2   22   30     16.32      0.00
    2   22   32     -4.49      0.00
    2   22   34     -1.07      0.00
    2   22   36     -2.91      0.00
    2   22   38     -0.77      0.00
    2   22   40     -3.41      0.00
    2   24   24      3.42      0.00
    2   24   26      4.25      0.00
    2   24   28     10.03      0.00
    2   24   30     -4.10      0.00
    2   24   32     -1.39      0.00
    2   24   34     -4.04      0.00
    2   24   36     -0.82      0.00
    2   24   38      0.74      0.00
    2   24   40      1.70      0.00
    2   24   42      9.99      0.00
    2   26   26      5.93      0.00
    2   26   28     -0.57      0.00
    2   26   30      1.77      0.00
    2   26   32     -2.74      0.00
    2   26   34     -0.24      0.00
    2   26   36     -0.15      0.00
    2   26   40     -2.19      0.00
    2   28   28     -0.10      0.00
    2   28   30      1.75      0.00
    2   28   32     -0.27      0.00
    2   28   34      0.93      0.00
    2   30   30     -3.49      0.00
    2   30   32     -2.96      0.00
    2   30   34      8.54      0.00
    2   30   36      8.34      0.00
    2   30   38      6.53      0.00
    2   32   32      0.13      0.00
    2   32   34     -2.69      0.00
    2   34   34     14.51      0.00
    2   28   36      4.16      0.00
    2   28   42     -4.59      0.00
    2   30   42     -9.27      0.00
    2    2   48      0.05      0.00
    3    3    3    -35.75      0.00
    3    3    5   -100.89      0.00
    3    3    7    -66.58      0.00
    3    3    9     68.46      0.00
    3    3   11    -21.64      0.00
    3    3   13    -56.68      0.00
    3    3   15    -38.75      0.00
    3    3   17     23.82      0.00
    3    3   19      4.13      0.00
    3    3   21    -11.72      0.00
    3    3   23     10.32      0.00
    3    3   25     -4.67      0.00
    3    3   27      3.49      0.00
    3    3   29     -2.06      0.00
    3    3   31     -5.75      0.00
    3    3   33      2.91      0.00
    3    3   35      5.00      0.00
    3    3   37      3.27      0.00
    3    3   39     14.03      0.00
    3    3   41     -2.07      0.00
    3    3   43     13.48      0.00
    3    3   45     -6.99      0.00
    3    3   47    -17.99      0.00
    3    5    5    -62.23      0.00
    3    5    7     -7.49      0.00
    3    5    9     -8.85      0.00
    3    5   11     -5.82      0.00
    3    5   13     -4.19      0.00
    3    5   15    -21.42      0.00
    3    5   17    -12.31      0.00
    3    5   19    -50.71      0.00
    3    5   21      0.94      0.00
    3    5   23    -19.35      0.00
    3    5   25     -7.79      0.00
    3    5   27     13.97      0.00
    3    5   29      2.30      0.00
    3    5   31      4.40      0.00
    3    5   33     -3.25      0.00
    3    5   35     -2.86      0.00
    3    5   37     -6.59      0.00
    3    5   39     -6.64      0.00
    3    5   41     -1.35      0.00
    3    5   43      0.32      0.00
    3    5   45      0.14      0.00
    3    5   47     -4.72      0.00
    3    7    7      2.29      0.00
    3    7    9     13.41      0.00
    3    7   11     24.36      0.00
    3    7   13      1.79      0.00
    3    7   15    -38.44      0.00
    3    7   17    -16.82      0.00
    3    7   19      4.56      0.00
    3    7   21    -17.28      0.00
    3    7   23      1.22      0.00
    3    7   25      9.28      0.00
    3    7   27      1.80      0.00
    3    7   29     -0.63      0.00
    3    7   31     -1.34      0.00
    3    7   33      6.10      0.00
    3    7   35      4.62      0.00
    3    7   37      3.78      0.00
    3    7   39      0.89      0.00
    3    7   41     -7.15      0.00
    3    7   43     -2.49      0.00
    3    7   45      0.43      0.00
    3    7   47     -6.86      0.00
    3    9    9     43.15      0.00
    3    9   11     22.21      0.00
    3    9   13    -35.47      0.00
    3    9   15     -1.59      0.00
    3    9   17     30.26      0.00
    3    9   19      3.20      0.00
    3    9   21     17.26      0.00
    3    9   23     15.09      0.00
    3    9   25      5.18      0.00
    3    9   27     12.41      0.00
    3    9   29     -1.12      0.00
    3    9   31     -5.31      0.00
    3    9   33     -6.54      0.00
    3    9   35      6.65      0.00
    3    9   37      3.92      0.00
    3    9   39      4.62      0.00
    3    9   41     -2.36      0.00
    3    9   43      4.65      0.00
    3    9   45     -4.75      0.00
    3    9   47     -9.28      0.00
    3   11   11      7.92      0.00
    3   11   13     -5.35      0.00
    3   11   15     -5.55      0.00
    3   11   17     -5.21      0.00
    3   11   19    -12.49      0.00
    3   11   21     -7.82      0.00
    3   11   23     -9.43      0.00
    3   11   25      1.25      0.00
    3   11   27      2.77      0.00
    3   11   29      2.86      0.00
    3   11   31      1.17      0.00
    3   11   33      0.07      0.00
    3   11   35     -2.10      0.00
    3   11   37     -2.65      0.00
    3   11   39     -1.69      0.00
    3   11   41     -1.86      0.00
    3   11   43     -2.42      0.00
    3   11   45      6.91      0.00
    3   13   13     28.91      0.00
    3   13   15    -13.34      0.00
    3   13   17      3.90      0.00
    3   13   19     23.10      0.00
    3   13   21     -0.93      0.00
    3   13   23    -12.12      0.00
    3   13   25     12.83      0.00
    3   13   27      4.75      0.00
    3   13   29      2.52      0.00
    3   13   31      1.48      0.00
    3   13   33      0.72      0.00
    3   13   35      4.07      0.00
    3   13   37      1.35      0.00
    3   13   39     -0.97      0.00
    3   13   41      4.80      0.00
    3   13   43      1.63      0.00
    3   13   45     -3.72      0.00
    3   15   15     -1.65      0.00
    3   15   17     18.03      0.00
    3   15   19      0.79      0.00
    3   15   21     -8.05      0.00
    3   15   23     -1.25      0.00
    3   15   25     -3.62      0.00
    3   15   27      4.28      0.00
    3   15   29      1.90      0.00
    3   15   31     -2.87      0.00
    3   15   33     -3.67      0.00
    3   15   35      2.45      0.00
    3   15   37      0.44      0.00
    3   15   39      5.83      0.00
    3   15   41      4.42      0.00
    3   17   17     14.52      0.00
    3   17   19      1.08      0.00
    3   17   21      0.91      0.00
    3   17   23      0.70      0.00
    3   17   25     -3.98      0.00
    3   17   27      1.47      0.00
    3   17   29      7.54      0.00
    3   17   31      0.23      0.00
    3   17   33     -3.34      0.00
    3   17   35      1.64      0.00
    3   17   37     -1.48      0.00
    3   17   39     -1.80      0.00
    3   17   41     -2.26      0.00
    3   19   19     12.93      0.00
    3   19   21     -0.22      0.00
    3   19   23     -8.44      0.00
    3   19   25    -14.73      0.00
    3   19   27      4.60      0.00
    3   19   29      0.19      0.00
    3   19   31     -3.41      0.00
    3   19   33      4.07      0.00
    3   19   35     -0.10      0.00
    3   19   37      0.77      0.00
    3   19   39      6.63      0.00
    3   19   41      0.24      0.00
    3   19   43      2.26      0.00
    3   21   21      0.02      0.00
    3   21   23      5.59      0.00
    3   21   25      3.28      0.00
    3   21   27      3.02      0.00
    3   21   29      1.85      0.00
    3   21   31      3.18      0.00
    3   21   33     -0.81      0.00
    3   21   35      0.09      0.00
    3   21   37      6.13      0.00
    3   21   39      7.55      0.00
    3   21   41     -1.95      0.00
    3   23   23     11.40      0.00
    3   23   25     -0.91      0.00
    3   23   27      0.77      0.00
    3   23   29      5.97      0.00
    3   23   31      4.84      0.00
    3   23   33     -0.70      0.00
    3   23   35      6.64      0.00
    3   23   37     -1.14      0.00
    3   23   39      3.36      0.00
    3   23   41    -10.80      0.00
    3   25   25      0.70      0.00
    3   25   27      4.24      0.00
    3   25   29      0.62      0.00
    3   25   31     -1.40      0.00
    3   25   33     -3.49      0.00
    3   25   35      2.70      0.00
    3   25   37     -4.34      0.00
    3   25   39      2.47      0.00
    3   27   27     -3.62      0.00
    3   27   29     -2.87      0.00
    3   27   31      2.52      0.00
    3   27   33     -1.48      0.00
    3   27   35      4.70      0.00
    3   27   41     -1.64      0.00
    3   29   29      7.85      0.00
    3   29   31      4.19      0.00
    3   29   33     -3.59      0.00
    3   29   35     -0.12      0.00
    3   31   31     -1.20      0.00
    3   31   33     -4.17      0.00
    3   31   37     -7.10      0.00
    3   33   33      0.62      0.00
    3   33   35     -1.44      0.00
    3   29   41      3.27      0.00
    3   23   43     10.27      0.00
    4    4    4    144.06      0.00
    4    4    6   -116.56      0.00
    4    4    8    -33.62      0.00
    4    4   10     87.90      0.00
    4    4   12    -30.29      0.00
    4    4   14    -16.27      0.00
    4    4   16    -15.46      0.00
    4    4   18     18.57      0.00
    4    4   20     -1.20      0.00
    4    4   22    -11.78      0.00
    4    4   24     -8.64      0.00
    4    4   26     -5.07      0.00
    4    4   28     -3.62      0.00
    4    4   30     -6.59      0.00
    4    4   32     -3.18      0.00
    4    4   34     -0.07      0.00
    4    4   36      8.99      0.00
    4    4   38     -0.11      0.00
    4    4   40      0.22      0.00
    4    4   42      2.48      0.00
    4    4   44     -3.38      0.00
    4    4   46      6.51      0.00
    4    6    6   -126.51      0.00
    4    6    8    -28.21      0.00
    4    6   10     18.85      0.00
    4    6   12      1.69      0.00
    4    6   14    -34.03      0.00
    4    6   16     -2.90      0.00
    4    6   18      2.99      0.00
    4    6   20      0.04      0.00
    4    6   22    -11.96      0.00
    4    6   24      3.83      0.00
    4    6   26      1.67      0.00
    4    6   28      4.00      0.00
    4    6   30      4.02      0.00
    4    6   32     -3.15      0.00
    4    6   34     -4.57      0.00
    4    6   36     -0.80      0.00
    4    6   38      1.12      0.00
    4    6   40      6.51      0.00
    4    6   42     -1.79      0.00
    4    6   44      0.31      0.00
    4    6   46      2.89      0.00
    4    8    8     68.49      0.00
    4    8   10     16.17      0.00
    4    8   12     27.51      0.00
    4    8   14    -19.22      0.00
    4    8   16      6.31      0.00
    4    8   18     -0.47      0.00
    4    8   20      6.80      0.00
    4    8   22      4.83      0.00
    4    8   24      0.41      0.00
    4    8   26      4.23      0.00
    4    8   28     10.86      0.00
    4    8   30     -9.97      0.00
    4    8   32      3.56      0.00
    4    8   34      0.29      0.00
    4    8   36     -0.30      0.00
    4    8   38      1.34      0.00
    4    8   40     -1.69      0.00
    4    8   42      5.50      0.00
    4    8   44     -2.88      0.00
    4    8   46     -3.30      0.00
    4   10   10     -2.61      0.00
    4   10   12     -0.66      0.00
    4   10   14    -11.72      0.00
    4   10   16      2.77      0.00
    4   10   18      1.25      0.00
    4   10   20     11.68      0.00
    4   10   22      3.16      0.00
    4   10   24      7.18      0.00
    4   10   26      6.55      0.00
    4   10   28      3.30      0.00
    4   10   30      2.58      0.00
    4   10   32      1.87      0.00
    4   10   34      5.36      0.00
    4   10   36      3.06      0.00
    4   10   38     -3.23      0.00
    4   10   40      2.66      0.00
    4   10   42     -0.34      0.00
    4   10   44      1.05      0.00
    4   10   46      2.98      0.00
    4   12   12     18.65      0.00
    4   12   14    -27.11      0.00
    4   12   16     18.00      0.00
    4   12   18     -2.03      0.00
    4   12   20     -8.62      0.00
    4   12   22     -2.91      0.00
    4   12   24     -4.78      0.00
    4   12   26     -0.15      0.00
    4   12   28      7.90      0.00
    4   12   30     -3.64      0.00
    4   12   32     -4.53      0.00
    4   12   34     -1.16      0.00
    4   12   36     -0.81      0.00
    4   12   38      3.08      0.00
    4   12   40      2.62      0.00
    4   12   42      5.76      0.00
    4   12   44      2.24      0.00
    4   12   46      1.04      0.00
    4   14   14    -25.70      0.00
    4   14   16      9.45      0.00
    4   14   18      6.79      0.00
    4   14   20      7.52      0.00
    4   14   22      5.35      0.00
    4   14   24      0.69      0.00
    4   14   26      2.98      0.00
    4   14   28      8.56      0.00
    4   14   30     -1.07      0.00
    4   14   32      0.20      0.00
    4   14   34      4.74      0.00
    4   14   36      2.84      0.00
    4   14   38      5.11      0.00
    4   14   40     -2.58      0.00
    4   14   42     -1.62      0.00
    4   14   44      2.45      0.00
    4   14   46     -3.45      0.00
    4   16   16     16.09      0.00
    4   16   18      2.17      0.00
    4   16   20      4.44      0.00
    4   16   22      1.31      0.00
    4   16   24      3.20      0.00
    4   16   26      4.52      0.00
    4   16   28      5.16      0.00
    4   16   30      0.98      0.00
    4   16   32     -2.79      0.00
    4   16   34     -6.58      0.00
    4   16   36     -5.51      0.00
    4   16   38      1.98      0.00
    4   16   40      0.78      0.00
    4   16   42      2.46      0.00
    4   18   18      5.32      0.00
    4   18   20     -1.48      0.00
    4   18   22     -3.92      0.00
    4   18   24     -3.57      0.00
    4   18   26     -6.66      0.00
    4   18   28      0.89      0.00
    4   18   30      3.24      0.00
    4   18   32     -3.69      0.00
    4   18   34      2.85      0.00
    4   18   36      3.81      0.00
    4   18   38     -0.59      0.00
    4   18   40     -5.01      0.00
    4   18   42     -1.77      0.00
    4   18   44     -2.55      0.00
    4   20   20      3.12      0.00
    4   20   22      2.08      0.00
    4   20   24     -3.37      0.00
    4   20   26      2.03      0.00
    4   20   28     -0.94      0.00
    4   20   30     -2.45      0.00
    4   20   32      0.51      0.00
    4   20   34      0.45      0.00
    4   20   36     -3.89      0.00
    4   20   38     -2.34      0.00
    4   20   40     -8.14      0.00
    4   22   22     -1.13      0.00
    4   22   24      1.75      0.00
    4   22   26      3.43      0.00
    4   22   28      4.27      0.00
    4   22   30      7.01      0.00
    4   22   32      1.45      0.00
    4   22   34     -1.14      0.00
    4   22   36      0.29      0.00
    4   22   38      0.10      0.00
    4   22   40     -0.03      0.00
    4   24   24     -4.58      0.00
    4   24   26     -1.85      0.00
    4   24   28      4.01      0.00
    4   24   30      1.66      0.00
    4   24   32     -2.71      0.00
    4   24   34     -3.05      0.00
    4   24   36      1.25      0.00
    4   24   38     -3.63      0.00
    4   24   40      0.08      0.00
    4   24   42     -1.22      0.00
    4   26   26      8.78      0.00
    4   26   28     -1.11      0.00
    4   26   30     -4.27      0.00
    4   26   32      1.84      0.00
    4   26   34     -4.73      0.00
    4   26   36     -3.49      0.00
    4   26   40    -22.98      0.00
    4   28   28     -2.70      0.00
    4   28   30     -1.20      0.00
    4   28   32      2.63      0.00
    4   28   34      4.02      0.00
    4   30   30     -3.13      0.00
    4   30   32      2.96      0.00
    4   30   34     -1.57      0.00
    4   30   36      6.05      0.00
    4   30   38      3.12      0.00
    4   32   32     -1.74      0.00
    4   32   34      3.67      0.00
    4   34   34     -4.04      0.00
    4   28   36      6.86      0.00
    4   20   42     -2.24      0.00
    4   28   42     -3.13      0.00
    4   30   42      1.42      0.00
    1    5    5     95.83      0.00
    5    5    7     72.63      0.00
    5    5    9    102.91      0.00
    5    5   11     23.13      0.00
    5    5   13    -10.72      0.00
    5    5   15     11.67      0.00
    5    5   17    -63.49      0.00
    5    5   19      1.18      0.00
    5    5   21     25.57      0.00
    5    5   23     20.66      0.00
    5    5   25     17.09      0.00
    5    5   27     17.09      0.00
    5    5   29     -5.85      0.00
    5    5   31     -0.09      0.00
    5    5   33     -5.07      0.00
    5    5   35     -4.85      0.00
    5    5   37      3.41      0.00
    5    5   39     12.26      0.00
    5    5   41     -0.15      0.00
    5    5   43      0.50      0.00
    5    5   45     -0.21      0.00
    5    5   47     -6.65      0.00
    5    7    7     -3.44      0.00
    5    7    9    -10.48      0.00
    5    7   11     -4.99      0.00
    5    7   13     -9.37      0.00
    5    7   15      1.57      0.00
    5    7   17     11.27      0.00
    5    7   19     -3.10      0.00
    5    7   21      4.07      0.00
    5    7   23     -1.36      0.00
    5    7   25      0.40      0.00
    5    7   27      6.08      0.00
    5    7   29      5.51      0.00
    5    7   31     -0.77      0.00
    5    7   33     -5.37      0.00
    5    7   35      4.78      0.00
    5    7   37     -1.26      0.00
    5    7   39     -5.53      0.00
    5    7   41      2.80      0.00
    5    7   43      2.42      0.00
    5    7   45     -2.76      0.00
    5    7   47     11.46      0.00
    5    9    9     16.53      0.00
    5    9   11     46.85      0.00
    5    9   13    -23.42      0.00
    5    9   15     47.40      0.00
    5    9   17      8.60      0.00
    5    9   19     21.40      0.00
    5    9   21      5.12      0.00
    5    9   23      1.54      0.00
    5    9   25      8.70      0.00
    5    9   27     12.03      0.00
    5    9   29     -4.71      0.00
    5    9   31      3.52      0.00
    5    9   33     -3.95      0.00
    5    9   35     -1.76      0.00
    5    9   37      6.30      0.00
    5    9   39     -0.40      0.00
    5    9   41     -3.43      0.00
    5    9   43     -5.14      0.00
    5    9   45      3.28      0.00
    5    9   47      4.38      0.00
    5   11   11    -53.94      0.00
    5   11   13    -19.87      0.00
    5   11   15     19.53      0.00
    5   11   17    -11.23      0.00
    5   11   19      1.37      0.00
    5   11   21      8.00      0.00
    5   11   23      2.35      0.00
    5   11   25      4.56      0.00
    5   11   27     -3.38      0.00
    5   11   29      4.25      0.00
    5   11   31     -0.83      0.00
    5   11   33     -4.16      0.00
    5   11   35      2.15      0.00
    5   11   37      2.54      0.00
    5   11   39      5.75      0.00
    5   11   41      2.98      0.00
    5   11   43      7.10      0.00
    5   11   45      0.03      0.00
    5   13   13      2.32      0.00
    5   13   15      0.63      0.00
    5   13   17     -4.63      0.00
    5   13   19      3.38      0.00
    5   13   21      0.95      0.00
    5   13   23      2.51      0.00
    5   13   25     12.54      0.00
    5   13   27     12.10      0.00
    5   13   29     -2.40      0.00
    5   13   31      3.22      0.00
    5   13   33     -1.23      0.00
    5   13   35     -0.70      0.00
    5   13   37     -1.13      0.00
    5   13   39      1.10      0.00
    5   13   41      2.02      0.00
    5   13   43      3.63      0.00
    5   13   45      2.85      0.00
    5   15   15     -8.20      0.00
    5   15   17     -0.68      0.00
    5   15   19     -4.93      0.00
    5   15   21      1.29      0.00
    5   15   23      5.71      0.00
    5   15   25     10.09      0.00
    5   15   27      1.76      0.00
    5   15   29      4.90      0.00
    5   15   31     11.05      0.00
    5   15   33     -7.05      0.00
    5   15   35     -1.00      0.00
    5   15   37      1.77      0.00
    5   15   39     -2.13      0.00
    5   15   41      7.19      0.00
    5   17   17     -2.75      0.00
    5   17   19     -3.53      0.00
    5   17   21     12.44      0.00
    5   17   23     -1.22      0.00
    5   17   25     -4.06      0.00
    5   17   27      6.48      0.00
    5   17   29      4.40      0.00
    5   17   31      1.50      0.00
    5   17   33     -1.13      0.00
    5   17   35     -0.76      0.00
    5   17   37      0.09      0.00
    5   17   39      3.83      0.00
    5   17   41      2.79      0.00
    5   19   19     13.81      0.00
    5   19   21      5.84      0.00
    5   19   23     -5.07      0.00
    5   19   25      3.48      0.00
    5   19   27      4.80      0.00
    5   19   29     -0.43      0.00
    5   19   31      5.69      0.00
    5   19   33     -0.78      0.00
    5   19   35     -0.21      0.00
    5   19   37      0.25      0.00
    5   19   39      0.85      0.00
    5   19   41     -0.19      0.00
    5   19   43     -3.17      0.00
    5   21   21     -2.92      0.00
    5   21   23      2.32      0.00
    5   21   25     -0.11      0.00
    5   21   27     -0.42      0.00
    5   21   29      5.81      0.00
    5   21   31      4.29      0.00
    5   21   33     -0.09      0.00
    5   21   35     -3.53      0.00
    5   21   37     -1.36      0.00
    5   21   39     -2.62      0.00
    5   21   41      4.03      0.00
    5   23   23      3.23      0.00
    5   23   25      0.60      0.00
    5   23   27     -2.60      0.00
    5   23   29      0.14      0.00
    5   23   31      1.21      0.00
    5   23   33      4.93      0.00
    5   23   35     -1.05      0.00
    5   23   37      6.13      0.00
    5   23   39     -3.89      0.00
    5   23   41      0.43      0.00
    5   23   43      2.71      0.00
    5   25   25      0.67      0.00
    5   25   27     -1.88      0.00
    5   25   29      3.85      0.00
    5   25   31      1.63      0.00
    5   25   33      0.71      0.00
    5   25   35      5.17      0.00
    5   25   37     -2.59      0.00
    5   25   39      6.83      0.00
    5   27   27     -0.73      0.00
    5   27   29      0.47      0.00
    5   27   31     -0.91      0.00
    5   27   33     -2.05      0.00
    5   27   35     -5.99      0.00
    5   27   41      8.77      0.00
    5   29   29     -1.19      0.00
    5   29   31     -1.13      0.00
    5   29   33     -0.21      0.00
    5   29   35     -3.32      0.00
    5   31   31     -2.89      0.00
    5   31   33     -5.51      0.00
    5   31   37      4.30      0.00
    5   33   33      1.40      0.00
    5   29   41    -12.13      0.00
    6    6    6   -262.82      0.00
    6    6    8    -42.81      0.00
    6    6   10    -80.63      0.00
    6    6   12      1.20      0.00
    6    6   14     18.10      0.00
    6    6   16    -23.75      0.00
    6    6   18     27.38      0.00
    6    6   20     24.26      0.00
    6    6   22     11.57      0.00
    6    6   24     26.76      0.00
    6    6   26      7.72      0.00
    6    6   28      8.11      0.00
    6    6   30      3.74      0.00
    6    6   32      1.88      0.00
    6    6   34     -1.14      0.00
    6    6   36      5.47      0.00
    6    6   38     13.89      0.00
    6    6   40      6.42      0.00
    6    6   42     -0.99      0.00
    6    6   44      3.60      0.00
    6    6   46      1.12      0.00
    6    8    8     49.62      0.00
    6    8   10     -3.01      0.00
    6    8   12     38.41      0.00
    6    8   14     25.78      0.00
    6    8   16     32.66      0.00
    6    8   18     21.67      0.00
    6    8   20     26.04      0.00
    6    8   22      2.61      0.00
    6    8   24     -6.61      0.00
    6    8   26      7.98      0.00
    6    8   28      1.83      0.00
    6    8   30     -3.32      0.00
    6    8   32      9.16      0.00
    6    8   34      0.33      0.00
    6    8   36      0.92      0.00
    6    8   38     -4.15      0.00
    6    8   40      1.49      0.00
    6    8   42     -3.55      0.00
    6    8   44      1.26      0.00
    6    8   46      2.65      0.00
    6   10   10    -54.82      0.00
    6   10   12    -39.49      0.00
    6   10   14    -14.70      0.00
    6   10   16      4.74      0.00
    6   10   18      1.58      0.00
    6   10   20      2.31      0.00
    6   10   22      4.64      0.00
    6   10   24     10.28      0.00
    6   10   26     -1.30      0.00
    6   10   28      0.29      0.00
    6   10   30      3.20      0.00
    6   10   32      2.94      0.00
    6   10   34      0.04      0.00
    6   10   36      1.86      0.00
    6   10   38      2.19      0.00
    6   10   40      3.15      0.00
    6   10   42     -1.21      0.00
    6   10   44      0.28      0.00
    6   10   46      2.19      0.00
    6   12   12     20.44      0.00
    6   12   14     -6.78      0.00
    6   12   16    -10.05      0.00
    6   12   18      4.50      0.00
    6   12   20      6.55      0.00
    6   12   22     16.64      0.00
    6   12   24      9.71      0.00
    6   12   26      1.71      0.00
    6   12   28     -1.23      0.00
    6   12   30     -5.87      0.00
    6   12   32     -0.93      0.00
    6   12   34     -0.52      0.00
    6   12   36      1.68      0.00
    6   12   38      4.99      0.00
    6   12   40      0.15      0.00
    6   12   42     -3.03      0.00
    6   12   44     -2.32      0.00
    6   12   46     -7.30      0.00
    6   14   14      3.28      0.00
    6   14   16    -33.98      0.00
    6   14   18    -10.79      0.00
    6   14   20      8.31      0.00
    6   14   22     -6.34      0.00
    6   14   24      5.45      0.00
    6   14   26     14.71      0.00
    6   14   28      5.76      0.00
    6   14   30     -3.79      0.00
    6   14   32      8.30      0.00
    6   14   34     -4.57      0.00
    6   14   36     -5.80      0.00
    6   14   38     -0.73      0.00
    6   14   40      3.29      0.00
    6   14   42     -4.57      0.00
    6   14   44     -3.18      0.00
    6   14   46      6.59      0.00
    6   16   16     -0.23      0.00
    6   16   18     -6.77      0.00
    6   16   20    -19.03      0.00
    6   16   22     13.02      0.00
    6   16   24     11.48      0.00
    6   16   26     -3.96      0.00
    6   16   28      0.41      0.00
    6   16   30      3.56      0.00
    6   16   32     -3.98      0.00
    6   16   34     -4.06      0.00
    6   16   36     -2.56      0.00
    6   16   38      1.09      0.00
    6   16   40     -2.03      0.00
    6   16   42     -0.25      0.00
    6   18   18      8.05      0.00
    6   18   20      4.73      0.00
    6   18   22      1.90      0.00
    6   18   24      4.97      0.00
    6   18   26     -2.73      0.00
    6   18   28      4.34      0.00
    6   18   30     -3.77      0.00
    6   18   32      2.36      0.00
    6   18   34      2.62      0.00
    6   18   36     -1.34      0.00
    6   18   38      1.84      0.00
    6   18   40      1.42      0.00
    6   18   42      0.48      0.00
    6   18   44     -1.22      0.00
    6   20   20     -6.95      0.00
    6   20   22     -0.28      0.00
    6   20   24      2.95      0.00
    6   20   26      8.50      0.00
    6   20   28     -0.56      0.00
    6   20   30     -0.68      0.00
    6   20   32      3.16      0.00
    6   20   34     -2.55      0.00
    6   20   36     -2.89      0.00
    6   20   38     -2.54      0.00
    6   20   40     -0.97      0.00
    6   22   22      2.82      0.00
    6   22   24      6.29      0.00
    6   22   26     -0.39      0.00
    6   22   28     -1.07      0.00
    6   22   30      6.65      0.00
    6   22   32      3.35      0.00
    6   22   34      3.33      0.00
    6   22   36      2.04      0.00
    6   22   38     -1.93      0.00
    6   22   40      2.47      0.00
    6   24   24     -1.68      0.00
    6   24   26     -1.59      0.00
    6   24   28      2.79      0.00
    6   24   30      2.64      0.00
    6   24   32     -1.40      0.00
    6   24   34     -3.23      0.00
    6   24   36     -2.45      0.00
    6   24   38     -9.30      0.00
    6   24   40     -4.15      0.00
    6   24   42     -1.39      0.00
    6   26   26      7.54      0.00
    6   26   28     -0.71      0.00
    6   26   30     -2.48      0.00
    6   26   32      1.60      0.00
    6   26   34      7.21      0.00
    6   26   36     -1.59      0.00
    6   26   40     11.47      0.00
    6   28   28     -5.94      0.00
    6   28   30      0.12      0.00
    6   28   32     -1.23      0.00
    6   28   34     -3.57      0.00
    6   28   40      4.64      0.00
    6   30   30      1.77      0.00
    6   30   32     -3.29      0.00
    6   30   34      2.82      0.00
    6   30   36     -6.75      0.00
    6   32   32      2.91      0.00
    6   32   34      0.30      0.00
    6   28   36     -8.70      0.00
    6   20   42      2.08      0.00
    6   28   42      2.00      0.00
    7    7    7     -3.14      0.00
    7    7    9    -11.10      0.00
    7    7   11     14.77      0.00
    7    7   13     13.07      0.00
    7    7   15     20.77      0.00
    7    7   17     39.41      0.00
    7    7   19     53.66      0.00
    7    7   21    -17.62      0.00
    7    7   23      6.26      0.00
    7    7   25      2.36      0.00
    7    7   27     -1.80      0.00
    7    7   29      7.01      0.00
    7    7   31      4.10      0.00
    7    7   33      6.95      0.00
    7    7   35      2.46      0.00
    7    7   37      3.63      0.00
    7    7   39      3.99      0.00
    7    7   41     -2.22      0.00
    7    7   43      2.55      0.00
    7    7   45     -2.36      0.00
    7    7   47      2.50      0.00
    7    9    9    -47.52      0.00
    7    9   11      2.42      0.00
    7    9   13     27.08      0.00
    7    9   15     27.51      0.00
    7    9   17     32.71      0.00
    7    9   19     22.35      0.00
    7    9   21      3.03      0.00
    7    9   23    -18.00      0.00
    7    9   25      3.80      0.00
    7    9   27     -3.48      0.00
    7    9   29     -2.51      0.00
    7    9   31      3.46      0.00
    7    9   33      3.60      0.00
    7    9   35      3.89      0.00
    7    9   37      2.06      0.00
    7    9   39     -3.55      0.00
    7    9   41     -0.95      0.00
    7    9   43      0.40      0.00
    7    9   45      0.74      0.00
    7    9   47      2.78      0.00
    7   11   11    -10.75      0.00
    7   11   13      5.05      0.00
    7   11   15     44.63      0.00
    7   11   17      8.35      0.00
    7   11   19     12.06      0.00
    7   11   21     -0.10      0.00
    7   11   23     -0.35      0.00
    7   11   25      2.19      0.00
    7   11   27      2.33      0.00
    7   11   29     -0.14      0.00
    7   11   31     -0.43      0.00
    7   11   33      0.35      0.00
    7   11   35      2.21      0.00
    7   11   37     -1.00      0.00
    7   11   39      5.40      0.00
    7   11   41      2.79      0.00
    7   11   43      8.38      0.00
    7   11   45     -0.43      0.00
    7   13   13     13.47      0.00
    7   13   15     -5.79      0.00
    7   13   17      6.61      0.00
    7   13   19     11.23      0.00
    7   13   21      5.35      0.00
    7   13   23      2.38      0.00
    7   13   25     11.41      0.00
    7   13   27      7.99      0.00
    7   13   29      1.31      0.00
    7   13   31      3.02      0.00
    7   13   33      5.96      0.00
    7   13   35      0.05      0.00
    7   13   37      3.14      0.00
    7   13   39     -1.96      0.00
    7   13   41      0.64      0.00
    7   13   43     -1.29      0.00
    7   13   45     -0.81      0.00
    7   15   15    -30.28      0.00
    7   15   17    -16.69      0.00
    7   15   19     -5.36      0.00
    7   15   21      0.66      0.00
    7   15   23      1.57      0.00
    7   15   25      6.68      0.00
    7   15   27      5.02      0.00
    7   15   29      1.95      0.00
    7   15   31      3.07      0.00
    7   15   33     -0.72      0.00
    7   15   35     -0.05      0.00
    7   15   37      4.35      0.00
    7   15   39      3.11      0.00
    7   15   41      1.70      0.00
    7   17   17    -16.44      0.00
    7   17   19      8.77      0.00
    7   17   21      3.18      0.00
    7   17   23      6.65      0.00
    7   17   25      6.07      0.00
    7   17   27      6.73      0.00
    7   17   29      1.90      0.00
    7   17   31     -1.98      0.00
    7   17   33     -4.83      0.00
    7   17   35     -3.08      0.00
    7   17   37     -2.30      0.00
    7   17   39     -1.11      0.00
    7   17   41     -3.05      0.00
    7   19   19     12.01      0.00
    7   19   21      2.76      0.00
    7   19   23      4.87      0.00
    7   19   25     -1.83      0.00
    7   19   27      8.99      0.00
    7   19   29     -3.52      0.00
    7   19   31     -1.05      0.00
    7   19   33      5.06      0.00
    7   19   35     -1.75      0.00
    7   19   37      5.93      0.00
    7   19   39     -1.22      0.00
    7   19   41      5.43      0.00
    7   19   43      1.10      0.00
    7   21   21     -2.02      0.00
    7   21   23      2.36      0.00
    7   21   25      6.72      0.00
    7   21   27      2.76      0.00
    7   21   29      1.52      0.00
    7   21   31      0.42      0.00
    7   21   33      2.04      0.00
    7   21   35      2.11      0.00
    7   21   37     -1.26      0.00
    7   21   39      4.02      0.00
    7   23   23      4.57      0.00
    7   23   25     -4.18      0.00
    7   23   27     -3.95      0.00
    7   23   29      3.39      0.00
    7   23   31      3.85      0.00
    7   23   33     -0.82      0.00
    7   23   35      2.79      0.00
    7   23   37      3.86      0.00
    7   23   39      0.53      0.00
    7   23   41      0.28      0.00
    7   23   43     -5.09      0.00
    7   25   25     -6.68      0.00
    7   25   27      3.63      0.00
    7   25   29      4.26      0.00
    7   25   31      0.23      0.00
    7   25   33     -3.67      0.00
    7   25   35     -0.41      0.00
    7   25   37     -4.57      0.00
    7   25   39     -2.81      0.00
    7   27   27     -4.13      0.00
    7   27   29     -2.87      0.00
    7   27   31     -0.63      0.00
    7   27   33     -5.86      0.00
    7   27   35     -1.40      0.00
    7   27   39    -11.00      0.00
    7   29   29     -1.55      0.00
    7   29   31     -2.47      0.00
    7   29   33     -4.61      0.00
    7   29   35      5.21      0.00
    7   29   37      9.50      0.00
    7   31   31     -6.53      0.00
    7   31   33     -2.68      0.00
    7   33   33     -0.68      0.00
    7   27   41    -10.47      0.00
    7   29   41      0.39      0.00
    8    8    8    -13.13      0.00
    8    8   10     54.11      0.00
    8    8   12     35.88      0.00
    8    8   14      6.86      0.00
    8    8   16     63.74      0.00
    8    8   18     59.05      0.00
    8    8   20     20.21      0.00
    8    8   22    -10.11      0.00
    8    8   24     -1.34      0.00
    8    8   26     -4.01      0.00
    8    8   28      8.52      0.00
    8    8   30    -13.10      0.00
    8    8   32     -0.68      0.00
    8    8   34     -2.17      0.00
    8    8   36      6.40      0.00
    8    8   38      1.17      0.00
    8    8   40      0.31      0.00
    8    8   42      4.66      0.00
    8    8   44      0.21      0.00
    8    8   46     -1.96      0.00
    8   10   10     -4.25      0.00
    8   10   12     24.21      0.00
    8   10   14      2.18      0.00
    8   10   16     41.85      0.00
    8   10   18     59.28      0.00
    8   10   20     12.79      0.00
    8   10   22     10.13      0.00
    8   10   24     -3.04      0.00
    8   10   26    -10.26      0.00
    8   10   28      4.40      0.00
    8   10   30      0.16      0.00
    8   10   32     -2.30      0.00
    8   10   34      1.63      0.00
    8   10   36      3.37      0.00
    8   10   38     -4.28      0.00
    8   10   40      0.70      0.00
    8   10   42     -9.54      0.00
    8   10   44     -3.84      0.00
    8   10   46     -1.69      0.00
    8   12   12     38.52      0.00
    8   12   14     20.18      0.00
    8   12   16      4.11      0.00
    8   12   18      1.16      0.00
    8   12   20      8.36      0.00
    8   12   22     -8.60      0.00
    8   12   24     -4.96      0.00
    8   12   26      3.86      0.00
    8   12   28      1.56      0.00
    8   12   30     -3.82      0.00
    8   12   32      5.01      0.00
    8   12   34     -3.91      0.00
    8   12   36      0.50      0.00
    8   12   38      0.39      0.00
    8   12   40      1.35      0.00
    8   12   42     -0.28      0.00
    8   12   44      7.77      0.00
    8   12   46      6.43      0.00
    8   14   14    -13.26      0.00
    8   14   16    -20.82      0.00
    8   14   18      6.54      0.00
    8   14   20      0.45      0.00
    8   14   22      8.05      0.00
    8   14   24      9.42      0.00
    8   14   26      3.52      0.00
    8   14   28      1.70      0.00
    8   14   30      0.37      0.00
    8   14   32      1.66      0.00
    8   14   34      4.11      0.00
    8   14   36      9.72      0.00
    8   14   38      0.10      0.00
    8   14   40     -1.13      0.00
    8   14   42      0.93      0.00
    8   14   44      0.43      0.00
    8   14   46     -0.42      0.00
    8   16   16      2.36      0.00
    8   16   18     -6.73      0.00
    8   16   20     -3.39      0.00
    8   16   22      9.25      0.00
    8   16   24      2.85      0.00
    8   16   26      0.10      0.00
    8   16   28      2.98      0.00
    8   16   30      0.94      0.00
    8   16   32     -1.97      0.00
    8   16   34     -5.69      0.00
    8   16   36     -3.00      0.00
    8   16   38     -5.19      0.00
    8   16   40      1.60      0.00
    8   16   42     -0.50      0.00
    8   18   18    -14.14      0.00
    8   18   20      6.81      0.00
    8   18   22     -0.93      0.00
    8   18   24     -5.93      0.00
    8   18   26      7.89      0.00
    8   18   28      3.46      0.00
    8   18   30      0.96      0.00
    8   18   32     -2.04      0.00
    8   18   34      3.45      0.00
    8   18   36      4.66      0.00
    8   18   38      0.66      0.00
    8   18   40     -2.29      0.00
    8   18   42      0.15      0.00
    8   20   20      8.98      0.00
    8   20   22     -2.14      0.00
    8   20   24      0.94      0.00
    8   20   26     -1.19      0.00
    8   20   28     -4.98      0.00
    8   20   30     -0.45      0.00
    8   20   32      0.66      0.00
    8   20   34      0.85      0.00
    8   20   36      1.88      0.00
    8   20   38     -1.50      0.00
    8   20   40     -5.40      0.00
    8   22   22      6.75      0.00
    8   22   24      8.03      0.00
    8   22   26     -0.81      0.00
    8   22   28      3.05      0.00
    8   22   30      5.99      0.00
    8   22   32      1.55      0.00
    8   22   34     -1.04      0.00
    8   22   36      1.06      0.00
    8   22   38      2.30      0.00
    8   22   40     -4.10      0.00
    8   24   24      2.99      0.00
    8   24   26      0.67      0.00
    8   24   28      2.22      0.00
    8   24   30      0.22      0.00
    8   24   32      1.89      0.00
    8   24   34      2.27      0.00
    8   24   36      4.16      0.00
    8   24   38     -3.66      0.00
    8   24   40     -1.76      0.00
    8   24   42     -1.45      0.00
    8   26   26      2.44      0.00
    8   26   28     -0.54      0.00
    8   26   30      2.56      0.00
    8   26   32     -0.10      0.00
    8   26   34     -4.68      0.00
    8   26   36      1.05      0.00
    8   26   40     -3.22      0.00
    8   28   28      2.31      0.00
    8   28   30      1.05      0.00
    8   28   32     -5.32      0.00
    8   28   34     -1.98      0.00
    8   30   30      2.64      0.00
    8   30   32      5.46      0.00
    8   30   34     -1.32      0.00
    8   30   36      5.26      0.00
    8   32   32     -7.12      0.00
    8   28   36     -1.20      0.00
    8   28   40      3.20      0.00
    8   20   42     -1.48      0.00
    8   22   42      3.36      0.00
    8   28   42     -2.98      0.00
    9    9   11      2.07      0.00
    9    9   13    -40.26      0.00
    9    9   15     41.93      0.00
    9    9   17     31.14      0.00
    9    9   19     13.86      0.00
    9    9   21     15.96      0.00
    9    9   23      8.18      0.00
    9    9   25    -10.40      0.00
    9    9   27     -4.24      0.00
    9    9   29    -19.00      0.00
    9    9   31     -1.18      0.00
    9    9   33     -5.35      0.00
    9    9   35      5.94      0.00
    9    9   37      6.83      0.00
    9    9   39     -2.72      0.00
    9    9   41      4.92      0.00
    9    9   43      8.17      0.00
    9    9   45     -3.62      0.00
    9    9   47     -6.18      0.00
    9   11   11      4.24      0.00
    9   11   13     16.74      0.00
    9   11   15     24.76      0.00
    9   11   17      6.19      0.00
    9   11   19      0.10      0.00
    9   11   21      7.18      0.00
    9   11   23     -6.73      0.00
    9   11   25      4.23      0.00
    9   11   27     -0.62      0.00
    9   11   29     -4.66      0.00
    9   11   31      0.40      0.00
    9   11   33      5.11      0.00
    9   11   35     -1.26      0.00
    9   11   37     -2.81      0.00
    9   11   39     -0.44      0.00
    9   11   41      0.19      0.00
    9   11   43     -4.87      0.00
    9   11   45      2.04      0.00
    9   13   13      2.31      0.00
    9   13   15    -11.11      0.00
    9   13   17      6.50      0.00
    9   13   19      5.90      0.00
    9   13   21      5.06      0.00
    9   13   23     -2.40      0.00
    9   13   25      1.43      0.00
    9   13   27      2.26      0.00
    9   13   29      0.24      0.00
    9   13   31      1.07      0.00
    9   13   33     -3.69      0.00
    9   13   35      4.54      0.00
    9   13   37      2.74      0.00
    9   13   39     -3.36      0.00
    9   13   41      0.84      0.00
    9   13   43     -0.05      0.00
    9   13   45     -7.17      0.00
    9   15   15    -18.21      0.00
    9   15   17    -10.76      0.00
    9   15   19      5.78      0.00
    9   15   21      9.13      0.00
    9   15   23     11.65      0.00
    9   15   25      3.10      0.00
    9   15   27      4.49      0.00
    9   15   29      0.20      0.00
    9   15   31     -1.98      0.00
    9   15   33     -0.54      0.00
    9   15   35      2.19      0.00
    9   15   37     -2.90      0.00
    9   15   39      0.65      0.00
    9   15   41     -1.52      0.00
    9   15   43     -5.47      0.00
    9   17   17     -2.76      0.00
    9   17   19     -2.84      0.00
    9   17   21      9.76      0.00
    9   17   23      6.96      0.00
    9   17   25     -0.61      0.00
    9   17   27      1.88      0.00
    9   17   29      1.64      0.00
    9   17   31      3.74      0.00
    9   17   33      1.31      0.00
    9   17   35      2.49      0.00
    9   17   37     -1.97      0.00
    9   17   39     -2.44      0.00
    9   17   41      1.44      0.00
    9   17   43      0.08      0.00
    9   19   19      0.33      0.00
    9   19   21     -2.23      0.00
    9   19   23      3.39      0.00
    9   19   25     -5.73      0.00
    9   19   27     -1.63      0.00
    9   19   29     -2.77      0.00
    9   19   31     -2.99      0.00
    9   19   33     -0.94      0.00
    9   19   35      0.89      0.00
    9   19   37      3.87      0.00
    9   19   39      0.04      0.00
    9   19   41      4.11      0.00
    9   21   21      6.16      0.00
    9   21   23      3.11      0.00
    9   21   25      5.22      0.00
    9   21   27      2.73      0.00
    9   21   29     -5.62      0.00
    9   21   31     -0.55      0.00
    9   21   33     -0.65      0.00
    9   21   35      1.47      0.00
    9   21   37      0.73      0.00
    9   21   39      7.10      0.00
    9   23   23      1.03      0.00
    9   23   25     -5.76      0.00
    9   23   27     -1.25      0.00
    9   23   29      5.97      0.00
    9   23   31      5.40      0.00
    9   23   33     -2.10      0.00
    9   23   35     -0.05      0.00
    9   23   37      2.38      0.00
    9   23   39      0.23      0.00
    9   23   41     -1.31      0.00
    9   25   25     -1.61      0.00
    9   25   27      4.69      0.00
    9   25   29      4.32      0.00
    9   25   31      3.57      0.00
    9   25   33     -3.53      0.00
    9   25   35     -3.99      0.00
    9   25   37     -0.29      0.00
    9   25   39      3.68      0.00
    9   27   27      3.64      0.00
    9   27   29     -3.48      0.00
    9   27   31      2.42      0.00
    9   27   33      2.71      0.00
    9   27   35      1.98      0.00
    9   27   39      6.38      0.00
    9   29   29     -1.83      0.00
    9   29   31     -6.73      0.00
    9   29   33     -0.43      0.00
    9   29   35     -0.31      0.00
    9   29   37     10.86      0.00
    9   31   31     -3.41      0.00
    9   31   33     -0.50      0.00
    9   21   41      0.86      0.00
    9   27   41     -5.73      0.00
    9   29   41      1.60      0.00
    9   19   43      2.29      0.00
   10   10   10    -16.83      0.00
   10   10   12    -32.67      0.00
   10   10   14     18.83      0.00
   10   10   16     27.27      0.00
   10   10   18     10.59      0.00
   10   10   20     18.77      0.00
   10   10   22     -6.35      0.00
   10   10   24      8.00      0.00
   10   10   26     -1.84      0.00
   10   10   28      5.22      0.00
   10   10   30     13.58      0.00
   10   10   32      1.34      0.00
   10   10   34     -2.20      0.00
   10   10   36      6.75      0.00
   10   10   38      1.77      0.00
   10   10   40      2.17      0.00
   10   10   42      0.71      0.00
   10   10   44     -4.72      0.00
   10   12   12     -0.09      0.00
   10   12   14     -6.40      0.00
   10   12   16      3.82      0.00
   10   12   18     -3.48      0.00
   10   12   20     -9.28      0.00
   10   12   22     11.21      0.00
   10   12   24     -4.97      0.00
   10   12   26     -3.55      0.00
   10   12   28     -3.00      0.00
   10   12   30      2.32      0.00
   10   12   32      1.81      0.00
   10   12   34      0.49      0.00
   10   12   36      2.88      0.00
   10   12   38     -1.63      0.00
   10   12   40     -3.83      0.00
   10   12   42     -4.77      0.00
   10   12   44     -0.02      0.00
   10   14   14      4.16      0.00
   10   14   16     -7.47      0.00
   10   14   18     -1.73      0.00
   10   14   20      9.77      0.00
   10   14   22      2.55      0.00
   10   14   24      8.57      0.00
   10   14   26     -4.11      0.00
   10   14   28      2.34      0.00
   10   14   30      2.50      0.00
   10   14   32      3.93      0.00
   10   14   34      2.03      0.00
   10   14   36      2.58      0.00
   10   14   38     -0.89      0.00
   10   14   40     -4.08      0.00
   10   14   42     -0.54      0.00
   10   14   44     -8.14      0.00
   10   16   16     -3.24      0.00
   10   16   18     -7.80      0.00
   10   16   20    -10.63      0.00
   10   16   22      8.63      0.00
   10   16   24      6.73      0.00
   10   16   26      2.97      0.00
   10   16   28      0.27      0.00
   10   16   30      2.65      0.00
   10   16   32      2.20      0.00
   10   16   34     -4.64      0.00
   10   16   36      1.46      0.00
   10   16   38      4.21      0.00
   10   16   40     -5.49      0.00
   10   16   42      0.19      0.00
   10   18   18      4.45      0.00
   10   18   20     10.61      0.00
   10   18   22     -4.30      0.00
   10   18   24      2.96      0.00
   10   18   26     -1.37      0.00
   10   18   28     -1.12      0.00
   10   18   30     -0.16      0.00
   10   18   32      0.19      0.00
   10   18   34      2.64      0.00
   10   18   36      0.41      0.00
   10   18   38      4.55      0.00
   10   18   40     -2.04      0.00
   10   18   42     -1.47      0.00
   10   20   20      4.48      0.00
   10   20   22      7.53      0.00
   10   20   24      1.98      0.00
   10   20   26     -0.70      0.00
   10   20   28      0.06      0.00
   10   20   30     -1.47      0.00
   10   20   32     -2.06      0.00
   10   20   34      2.51      0.00
   10   20   36     -3.01      0.00
   10   20   38      0.91      0.00
   10   20   40     -1.05      0.00
   10   22   22     10.66      0.00
   10   22   24      2.48      0.00
   10   22   26      2.21      0.00
   10   22   28     -1.92      0.00
   10   22   30     -0.36      0.00
   10   22   32      3.10      0.00
   10   22   34     -4.16      0.00
   10   22   36      1.93      0.00
   10   22   38     -0.81      0.00
   10   22   40     -0.01      0.00
   10   24   24      3.09      0.00
   10   24   26     -4.98      0.00
   10   24   28     -1.53      0.00
   10   24   30      4.08      0.00
   10   24   32     -5.31      0.00
   10   24   34      3.37      0.00
   10   24   36      2.55      0.00
   10   24   38      3.41      0.00
   10   24   40     -3.35      0.00
   10   26   26      2.40      0.00
   10   26   28      0.65      0.00
   10   26   30      0.17      0.00
   10   26   32     -7.15      0.00
   10   26   34      0.03      0.00
   10   26   38     -6.91      0.00
   10   28   28     -2.11      0.00
   10   28   30     -0.58      0.00
   10   28   32      1.27      0.00
   10   28   34     -3.80      0.00
   10   30   30      6.82      0.00
   10   30   32      4.49      0.00
   10   30   34      0.90      0.00
   10   30   36      3.43      0.00
   10   28   36     -8.48      0.00
   10   26   40     -2.80      0.00
   10   28   40     -2.85      0.00
   10   20   42      7.79      0.00
   10   22   42      1.80      0.00
   10   10   46     16.68      0.00
   10   12   46      1.48      0.00
    1   11   47      3.73      0.00
    3   11   47     -2.79      0.00
    7   11   47      8.39      0.00
   11   11   11      7.99      0.00
   11   11   13    -14.82      0.00
   11   11   15     16.69      0.00
   11   11   17     12.03      0.00
   11   11   19     -5.93      0.00
   11   11   21     -5.33      0.00
   11   11   23      5.00      0.00
   11   11   25    -11.04      0.00
   11   11   27     -8.85      0.00
   11   11   29      7.52      0.00
   11   11   31      1.05      0.00
   11   11   33     -6.63      0.00
   11   11   35      2.95      0.00
   11   11   37     -1.23      0.00
   11   11   39     11.47      0.00
   11   11   41      0.73      0.00
   11   11   43     11.98      0.00
   11   11   45    -13.65      0.00
   11   13   13     25.66      0.00
   11   13   15     -5.35      0.00
   11   13   17     -9.07      0.00
   11   13   19     -2.00      0.00
   11   13   21      0.61      0.00
   11   13   23     -6.05      0.00
   11   13   25      9.48      0.00
   11   13   27     12.70      0.00
   11   13   29     -0.73      0.00
   11   13   31      3.77      0.00
   11   13   33      2.75      0.00
   11   13   35     -2.90      0.00
   11   13   37     -0.87      0.00
   11   13   39      5.10      0.00
   11   13   41     -1.30      0.00
   11   13   43     -7.60      0.00
   11   13   45      2.04      0.00
   11   15   15    -14.68      0.00
   11   15   17      5.72      0.00
   11   15   19     -7.58      0.00
   11   15   21     -6.10      0.00
   11   15   23      3.65      0.00
   11   15   25      6.63      0.00
   11   15   27     -1.20      0.00
   11   15   29      6.45      0.00
   11   15   31      8.22      0.00
   11   15   33     -4.69      0.00
   11   15   35      0.66      0.00
   11   15   37     -5.30      0.00
   11   15   39      3.36      0.00
   11   15   41      0.35      0.00
   11   15   43      3.59      0.00
   11   15   45      4.16      0.00
   11   17   17     15.33      0.00
   11   17   19     -5.37      0.00
   11   17   21      9.67      0.00
   11   17   23      4.05      0.00
   11   17   25     -7.43      0.00
   11   17   27     -1.38      0.00
   11   17   29      1.37      0.00
   11   17   31      3.33      0.00
   11   17   33      1.30      0.00
   11   17   35      2.34      0.00
   11   17   37     -1.70      0.00
   11   17   39      2.97      0.00
   11   17   41      4.70      0.00
   11   19   19      9.43      0.00
   11   19   21     12.20      0.00
   11   19   23      4.74      0.00
   11   19   25      1.14      0.00
   11   19   27     -3.46      0.00
   11   19   29     -6.78      0.00
   11   19   31     -2.70      0.00
   11   19   33      3.16      0.00
   11   19   35     -1.32      0.00
   11   19   37      0.30      0.00
   11   19   39     -1.96      0.00
   11   19   41      1.29      0.00
   11   21   21     -0.63      0.00
   11   21   23      6.72      0.00
   11   21   25      8.98      0.00
   11   21   27     -1.61      0.00
   11   21   29      6.75      0.00
   11   21   31      3.78      0.00
   11   21   33      0.42      0.00
   11   21   35     -0.75      0.00
   11   21   37     -3.11      0.00
   11   21   39      4.83      0.00
   11   23   23      2.56      0.00
   11   23   25      1.64      0.00
   11   23   27     -1.65      0.00
   11   23   29      1.83      0.00
   11   23   31     -0.42      0.00
   11   23   33      2.55      0.00
   11   23   35      1.51      0.00
   11   23   37      6.22      0.00
   11   23   39     -7.32      0.00
   11   23   41     11.41      0.00
   11   25   25      2.50      0.00
   11   25   27      5.09      0.00
   11   25   29     -1.87      0.00
   11   25   31     -3.32      0.00
   11   25   33      0.49      0.00
   11   25   35     -0.66      0.00
   11   25   37     -4.52      0.00
   11   27   27      2.25      0.00
   11   27   29      0.53      0.00
   11   27   31     -0.68      0.00
   11   27   33      0.20      0.00
   11   27   39     -0.90      0.00
   11   29   29     -3.57      0.00
   11   29   31     -7.16      0.00
   11   29   33     -3.68      0.00
   11   29   35     15.71      0.00
   11   31   31      7.91      0.00
   11   31   33      5.54      0.00
   11   27   35     10.16      0.00
   11   25   39      3.21      0.00
   11   27   41     10.17      0.00
    5   11   47     10.11      0.00
   12   12   12      2.07      0.00
   12   12   14     11.38      0.00
   12   12   16      1.78      0.00
   12   12   18     -7.79      0.00
   12   12   20      1.63      0.00
   12   12   22     -5.46      0.00
   12   12   24     -1.67      0.00
   12   12   26      4.66      0.00
   12   12   28      1.75      0.00
   12   12   30     -6.14      0.00
   12   12   32      1.77      0.00
   12   12   34     -1.43      0.00
   12   12   36     -0.98      0.00
   12   12   38      1.77      0.00
   12   12   40      3.44      0.00
   12   12   42     -1.75      0.00
   12   12   44      1.12      0.00
   12   14   14     19.16      0.00
   12   14   16     -6.26      0.00
   12   14   18      7.02      0.00
   12   14   20     -6.93      0.00
   12   14   22     -7.22      0.00
   12   14   24     -9.46      0.00
   12   14   26     12.14      0.00
   12   14   28      7.10      0.00
   12   14   30      0.34      0.00
   12   14   32      9.70      0.00
   12   14   34     -0.42      0.00
   12   14   36      2.59      0.00
   12   14   38      0.81      0.00
   12   14   40      2.04      0.00
   12   14   42     -0.79      0.00
   12   14   44      2.59      0.00
   12   16   16     -0.59      0.00
   12   16   18     -3.66      0.00
   12   16   20    -12.10      0.00
   12   16   22     -1.66      0.00
   12   16   24      6.87      0.00
   12   16   26     -4.43      0.00
   12   16   28      0.69      0.00
   12   16   30      3.90      0.00
   12   16   32      4.35      0.00
   12   16   34      1.43      0.00
   12   16   36      1.21      0.00
   12   16   38     -5.95      0.00
   12   16   40     -2.47      0.00
   12   16   42     -4.12      0.00
   12   18   18     10.50      0.00
   12   18   20      5.84      0.00
   12   18   22      3.04      0.00
   12   18   24      0.35      0.00
   12   18   26     -0.40      0.00
   12   18   28      0.20      0.00
   12   18   30     -3.56      0.00
   12   18   32      1.09      0.00
   12   18   34     -2.40      0.00
   12   18   36      0.53      0.00
   12   18   38      2.19      0.00
   12   18   40      5.07      0.00
   12   18   42      5.94      0.00
   12   20   20      3.30      0.00
   12   20   22      1.05      0.00
   12   20   24     -0.37      0.00
   12   20   26      7.07      0.00
   12   20   28     -1.77      0.00
   12   20   30      0.20      0.00
   12   20   32      4.82      0.00
   12   20   34     -5.26      0.00
   12   20   36      1.06      0.00
   12   20   38     -3.82      0.00
   12   20   40      2.53      0.00
   12   22   22      7.01      0.00
   12   22   24      8.60      0.00
   12   22   26     -0.02      0.00
   12   22   28      5.23      0.00
   12   22   30      0.61      0.00
   12   22   32     -3.10      0.00
   12   22   34      1.22      0.00
   12   22   36     -2.66      0.00
   12   22   38     -0.89      0.00
   12   22   40      1.51      0.00
   12   24   24      0.67      0.00
   12   24   26      0.43      0.00
   12   24   28      2.43      0.00
   12   24   30      1.22      0.00
   12   24   32     -5.89      0.00
   12   24   34     -3.00      0.00
   12   24   36      5.08      0.00
   12   24   38     -1.78      0.00
   12   26   26      8.07      0.00
   12   26   28      4.70      0.00
   12   26   30     -0.43      0.00
   12   26   32      0.27      0.00
   12   26   34      6.11      0.00
   12   26   38      6.88      0.00
   12   28   28     -5.36      0.00
   12   28   30      0.35      0.00
   12   28   32      4.28      0.00
   12   28   34     -2.33      0.00
   12   28   36     -5.27      0.00
   12   30   30      0.00      0.00
   12   30   32     -2.12      0.00
   12   30   34      7.34      0.00
   12   26   40      4.47      0.00
   12   28   40     -3.89      0.00
   13   13   13     53.39      0.00
   13   13   15     23.76      0.00
   13   13   17     18.95      0.00
   13   13   19      3.27      0.00
   13   13   21     -1.32      0.00
   13   13   23     -2.54      0.00
   13   13   25      2.46      0.00
   13   13   27     -0.21      0.00
   13   13   29      6.55      0.00
   13   13   31      5.96      0.00
   13   13   33      1.22      0.00
   13   13   35      5.02      0.00
   13   13   37      0.98      0.00
   13   13   39     -5.73      0.00
   13   13   41      2.88      0.00
   13   13   43     -1.69      0.00
   13   13   45     -6.65      0.00
   13   15   15     11.27      0.00
   13   15   17     11.80      0.00
   13   15   19     -5.37      0.00
   13   15   21     -2.71      0.00
   13   15   23     -4.76      0.00
   13   15   25      3.26      0.00
   13   15   27      2.94      0.00
   13   15   29     -0.53      0.00
   13   15   31      4.14      0.00
   13   15   33      0.85      0.00
   13   15   35     -0.29      0.00
   13   15   37      0.89      0.00
   13   15   39      6.95      0.00
   13   15   41      0.31      0.00
   13   15   43     -1.36      0.00
   13   17   17      8.63      0.00
   13   17   19      6.36      0.00
   13   17   21      1.27      0.00
   13   17   23      0.69      0.00
   13   17   25      2.41      0.00
   13   17   27      0.49      0.00
   13   17   29      2.70      0.00
   13   17   31      3.07      0.00
   13   17   33      1.29      0.00
   13   17   35     -0.68      0.00
   13   17   37     -2.48      0.00
   13   17   39      6.13      0.00
   13   17   41     -1.85      0.00
   13   19   19      5.24      0.00
   13   19   21      5.53      0.00
   13   19   23      2.06      0.00
   13   19   25     -6.49      0.00
   13   19   27      0.18      0.00
   13   19   29      7.43      0.00
   13   19   31      3.35      0.00
   13   19   33      4.66      0.00
   13   19   35      0.89      0.00
   13   19   37     -2.01      0.00
   13   19   39     -1.31      0.00
   13   19   41      3.95      0.00
   13   21   21     12.27      0.00
   13   21   23     -0.89      0.00
   13   21   25      2.86      0.00
   13   21   27      3.23      0.00
   13   21   29     -0.48      0.00
   13   21   31     -0.27      0.00
   13   21   33     -2.00      0.00
   13   21   35     -2.06      0.00
   13   21   37     -4.79      0.00
   13   21   39      7.89      0.00
   13   23   23      1.52      0.00
   13   23   25      3.48      0.00
   13   23   27      1.86      0.00
   13   23   29      1.22      0.00
   13   23   31      3.31      0.00
   13   23   33     -4.11      0.00
   13   23   35     -2.94      0.00
   13   23   37      2.13      0.00
   13   23   39      1.23      0.00
   13   25   25      8.01      0.00
   13   25   27      4.57      0.00
   13   25   29     -0.85      0.00
   13   25   31     -0.07      0.00
   13   25   33     -2.15      0.00
   13   25   35      0.56      0.00
   13   25   37     -3.62      0.00
   13   27   27      0.18      0.00
   13   27   29      0.95      0.00
   13   27   31     -1.23      0.00
   13   27   33      2.03      0.00
   13   29   29      3.99      0.00
   13   29   31     -1.19      0.00
   13   29   33     -0.91      0.00
   13   31   33     -0.44      0.00
   13   25   39      4.59      0.00
   13   27   39      6.57      0.00
   13   21   41     -4.70      0.00
   14   14   14     27.51      0.00
   14   14   16     23.62      0.00
   14   14   18     19.35      0.00
   14   14   20      3.88      0.00
   14   14   22     -5.76      0.00
   14   14   24      5.66      0.00
   14   14   26      3.12      0.00
   14   14   28     10.27      0.00
   14   14   30      4.50      0.00
   14   14   32     -0.72      0.00
   14   14   34      2.43      0.00
   14   14   36      3.79      0.00
   14   14   38     -0.64      0.00
   14   14   40     -8.28      0.00
   14   14   42      0.68      0.00
   14   14   44     -5.48      0.00
   14   16   16     11.65      0.00
   14   16   18      8.08      0.00
   14   16   20     -1.89      0.00
   14   16   22      3.90      0.00
   14   16   24     -2.28      0.00
   14   16   26      1.37      0.00
   14   16   28      4.68      0.00
   14   16   30     -2.73      0.00
   14   16   32      5.28      0.00
   14   16   34     -1.92      0.00
   14   16   36     -1.05      0.00
   14   16   38     -6.64      0.00
   14   16   40      0.33      0.00
   14   16   42      3.93      0.00
   14   18   18     10.40      0.00
   14   18   20     13.49      0.00
   14   18   22      9.83      0.00
   14   18   24     -0.35      0.00
   14   18   26     -2.18      0.00
   14   18   28      0.67      0.00
   14   18   30      1.22      0.00
   14   18   32      2.30      0.00
   14   18   34     -0.30      0.00
   14   18   36      1.01      0.00
   14   18   38      0.15      0.00
   14   18   40    -10.70      0.00
   14   18   42     -1.91      0.00
   14   20   20      8.74      0.00
   14   20   22      5.18      0.00
   14   20   24      0.92      0.00
   14   20   26     -1.07      0.00
   14   20   28      0.11      0.00
   14   20   30      3.13      0.00
   14   20   32      1.23      0.00
   14   20   34     -2.64      0.00
   14   20   36      0.43      0.00
   14   20   38      2.55      0.00
   14   20   40     -0.98      0.00
   14   22   22      4.64      0.00
   14   22   24      6.24      0.00
   14   22   26     -1.06      0.00
   14   22   28      4.18      0.00
   14   22   30      0.27      0.00
   14   22   32      2.52      0.00
   14   22   34     -2.42      0.00
   14   22   36     -0.45      0.00
   14   22   38     -3.42      0.00
   14   22   40      1.66      0.00
   14   24   24     -0.53      0.00
   14   24   26      2.12      0.00
   14   24   28     -0.50      0.00
   14   24   30      3.00      0.00
   14   24   32      3.40      0.00
   14   24   34      3.78      0.00
   14   24   36     -3.02      0.00
   14   24   38      0.78      0.00
   14   26   26      7.34      0.00
   14   26   28      0.00      0.00
   14   26   30      5.98      0.00
   14   26   32      4.88      0.00
   14   26   34     -9.41      0.00
   14   28   28     -5.71      0.00
   14   28   30     -1.46      0.00
   14   28   32      2.28      0.00
   14   30   30     -2.94      0.00
   14   30   34      2.99      0.00
   14   30   32      6.00      0.00
   14   26   38     -4.71      0.00
    0   14   46      5.95      0.00
    1   15   43     -0.28      0.00
    1   15   45      2.98      0.00
    3   15   43     -5.14      0.00
    3   15   45     -5.18      0.00
    5   15   43      5.95      0.00
    5   15   45      3.92      0.00
    7   15   43      7.26      0.00
    7   15   45      4.71      0.00
   15   15   15     12.20      0.00
   15   15   17     13.73      0.00
   15   15   19      3.67      0.00
   15   15   21      0.78      0.00
   15   15   23      9.06      0.00
   15   15   25     -1.08      0.00
   15   15   27     -2.42      0.00
   15   15   29      0.16      0.00
   15   15   31      0.75      0.00
   15   15   33     -1.07      0.00
   15   15   35      1.07      0.00
   15   15   37     -3.30      0.00
   15   15   39     10.10      0.00
   15   15   41     -1.96      0.00
   15   15   43      0.70      0.00
   15   17   17     17.56      0.00
   15   17   19     -1.40      0.00
   15   17   21      6.46      0.00
   15   17   23     -0.21      0.00
   15   17   25      1.27      0.00
   15   17   27     -0.68      0.00
   15   17   29      4.73      0.00
   15   17   31      6.39      0.00
   15   17   33      0.19      0.00
   15   17   35     -3.46      0.00
   15   17   37     -0.47      0.00
   15   17   39      3.85      0.00
   15   17   41      2.96      0.00
   15   19   19      4.17      0.00
   15   19   21      7.30      0.00
   15   19   23     -0.31      0.00
   15   19   25     -3.78      0.00
   15   19   27      0.72      0.00
   15   19   29      2.10      0.00
   15   19   31     -1.87      0.00
   15   19   33      7.51      0.00
   15   19   35      3.70      0.00
   15   19   37      0.56      0.00
   15   19   39      3.18      0.00
   15   19   41      0.87      0.00
   15   21   21      9.96      0.00
   15   21   23      0.45      0.00
   15   21   25      1.54      0.00
   15   21   27      3.02      0.00
   15   21   29      0.94      0.00
   15   21   31     -2.69      0.00
   15   21   33      3.25      0.00
   15   21   35     -0.70      0.00
   15   21   37      3.54      0.00
   15   21   39      3.94      0.00
   15   23   23      2.24      0.00
   15   23   25      3.32      0.00
   15   23   27      1.22      0.00
   15   23   29      4.08      0.00
   15   23   31     -2.14      0.00
   15   23   33     -8.63      0.00
   15   23   35      1.31      0.00
   15   23   37      5.47      0.00
   15   25   25     -1.97      0.00
   15   25   27     -2.15      0.00
   15   25   29     -1.94      0.00
   15   25   31     -7.38      0.00
   15   25   33      1.08      0.00
   15   25   35      3.96      0.00
   15   27   27     -0.03      0.00
   15   27   29     -3.05      0.00
   15   27   31      5.90      0.00
   15   27   33      4.59      0.00
   15   29   29      3.40      0.00
   15   29   31      5.17      0.00
   15   29   33    -11.53      0.00
   15   29   35     -8.54      0.00
    2   16   44      6.16      0.00
    4   16   44      7.49      0.00
    6   16   44     -2.42      0.00
    8   16   44      1.19      0.00
   16   16   16     -0.60      0.00
   16   16   18      1.28      0.00
   16   16   20     -9.80      0.00
   16   16   22     -3.88      0.00
   16   16   24     21.81      0.00
   16   16   26      1.27      0.00
   16   16   28      3.97      0.00
   16   16   30      4.92      0.00
   16   16   32      8.88      0.00
   16   16   34      3.08      0.00
   16   16   36     -0.06      0.00
   16   16   38     -4.28      0.00
   16   16   40     -2.84      0.00
   16   18   18      8.46      0.00
   16   18   20     -0.79      0.00
   16   18   22      2.51      0.00
   16   18   24      4.66      0.00
   16   18   26     -6.52      0.00
   16   18   28     -2.05      0.00
   16   18   30      0.47      0.00
   16   18   32      0.39      0.00
   16   18   34     -5.24      0.00
   16   18   36      0.61      0.00
   16   18   38     -4.96      0.00
   16   18   40     -2.19      0.00
   16   20   20      2.10      0.00
   16   20   22      1.11      0.00
   16   20   24      1.72      0.00
   16   20   26     -2.50      0.00
   16   20   28      7.17      0.00
   16   20   30     -2.96      0.00
   16   20   32     -2.89      0.00
   16   20   34     -1.70      0.00
   16   20   36     -4.70      0.00
   16   20   38     -4.53      0.00
   16   20   40      2.97      0.00
   16   22   22     -5.18      0.00
   16   22   24      2.85      0.00
   16   22   26      2.33      0.00
   16   22   28      2.81      0.00
   16   22   30      0.44      0.00
   16   22   32      0.88      0.00
   16   22   34      0.67      0.00
   16   22   36      0.79      0.00
   16   22   38      3.51      0.00
   16   22   40      6.98      0.00
   16   24   24      2.03      0.00
   16   24   26     -1.26      0.00
   16   24   28     -0.92      0.00
   16   24   30     -1.49      0.00
   16   24   32     -5.70      0.00
   16   24   34     -5.57      0.00
   16   24   36     -7.05      0.00
   16   26   26     -0.80      0.00
   16   26   28      1.31      0.00
   16   26   30      2.55      0.00
   16   26   32     -5.86      0.00
   16   28   28     -0.10      0.00
   16   28   30     -1.30      0.00
   16   28   32     -5.41      0.00
   16   28   34      4.99      0.00
   16   30   32      3.94      0.00
   16   26   34      5.04      0.00
   16   30   34      8.06      0.00
   16   16   42     -7.22      0.00
    0   16   44     -9.73      0.00
    1   17   43      4.02      0.00
    3   17   43     -3.75      0.00
    5   17   43      1.83      0.00
    7   17   43     -4.02      0.00
   17   17   17     -3.78      0.00
   17   17   19     -1.29      0.00
   17   17   21      2.44      0.00
   17   17   23     -1.18      0.00
   17   17   25     -4.38      0.00
   17   17   27     -0.06      0.00
   17   17   29      4.32      0.00
   17   17   31     -2.53      0.00
   17   17   33      1.70      0.00
   17   17   35      3.97      0.00
   17   17   37     -1.02      0.00
   17   17   39      1.13      0.00
   17   17   41      4.35      0.00
   17   19   19      2.21      0.00
   17   19   21      1.43      0.00
   17   19   23     -5.20      0.00
   17   19   25      3.52      0.00
   17   19   27     -5.98      0.00
   17   19   29     -1.48      0.00
   17   19   31     -0.28      0.00
   17   19   33      7.09      0.00
   17   19   35      1.40      0.00
   17   19   37      4.99      0.00
   17   19   39      2.30      0.00
   17   19   41     -3.36      0.00
   17   21   21     -4.53      0.00
   17   21   23      1.56      0.00
   17   21   25      5.41      0.00
   17   21   27      0.34      0.00
   17   21   29      3.97      0.00
   17   21   31     -0.31      0.00
   17   21   33     -3.10      0.00
   17   21   35     -0.19      0.00
   17   21   37     -4.55      0.00
   17   21   39      2.71      0.00
   17   23   23      0.61      0.00
   17   23   25     -1.22      0.00
   17   23   27     -0.76      0.00
   17   23   29      2.21      0.00
   17   23   31     -4.38      0.00
   17   23   33      0.70      0.00
   17   23   35      1.71      0.00
   17   23   37     -3.75      0.00
   17   23   39    -12.88      0.00
   17   25   25      1.73      0.00
   17   25   27     -0.60      0.00
   17   25   29     -4.58      0.00
   17   25   31     -0.32      0.00
   17   25   33      0.72      0.00
   17   25   35      1.04      0.00
   17   27   27      0.43      0.00
   17   27   29      1.53      0.00
   17   27   31     -0.86      0.00
   17   29   29      1.70      0.00
   17   29   31      3.90      0.00
   17   29   33     -3.66      0.00
   17   27   33      1.33      0.00
   11   17   43     -0.34      0.00
   16   18   42      3.41      0.00
   18   18   18     12.73      0.00
   18   18   20     -4.99      0.00
   18   18   22      5.96      0.00
   18   18   24      4.11      0.00
   18   18   26    -11.80      0.00
   18   18   28      4.12      0.00
   18   18   30      1.02      0.00
   18   18   32      0.27      0.00
   18   18   34      6.32      0.00
   18   18   36      2.15      0.00
   18   18   38      3.46      0.00
   18   18   40     -1.84      0.00
   18   20   20     -1.31      0.00
   18   20   22     -1.57      0.00
   18   20   24     -3.17      0.00
   18   20   26      0.05      0.00
   18   20   28      1.04      0.00
   18   20   30      1.30      0.00
   18   20   32      0.57      0.00
   18   20   34     -0.13      0.00
   18   20   36      2.74      0.00
   18   20   38     -4.30      0.00
   18   22   22     -2.12      0.00
   18   22   24      2.87      0.00
   18   22   26     -3.34      0.00
   18   22   28      3.39      0.00
   18   22   30     -1.21      0.00
   18   22   32     -2.36      0.00
   18   22   34     -3.47      0.00
   18   22   36      4.64      0.00
   18   22   38      8.87      0.00
   18   24   24      6.37      0.00
   18   24   26     -0.90      0.00
   18   24   28      2.24      0.00
   18   24   30      2.14      0.00
   18   24   32     -3.81      0.00
   18   24   34      3.28      0.00
   18   24   36      4.59      0.00
   18   26   26      3.20      0.00
   18   26   28      0.57      0.00
   18   26   30     -1.38      0.00
   18   26   32     -0.86      0.00
   18   28   28      0.35      0.00
   18   28   30      3.81      0.00
   18   28   32      8.40      0.00
   18   28   34      4.57      0.00
   18   26   34     -0.12      0.00
    0   18   44    -17.20      0.00
   10   18   44     -1.28      0.00
   19   19   19     -8.84      0.00
   19   19   21     -1.92      0.00
   19   19   23      0.93      0.00
   19   19   25      0.84      0.00
   19   19   27      1.29      0.00
   19   19   29      2.01      0.00
   19   19   31      2.42      0.00
   19   19   33      1.44      0.00
   19   19   35     -4.99      0.00
   19   19   37      2.58      0.00
   19   19   39     -1.00      0.00
   19   21   21      4.60      0.00
   19   21   23     -2.39      0.00
   19   21   25      1.42      0.00
   19   21   27     -2.79      0.00
   19   21   29      3.82      0.00
   19   21   31     -0.53      0.00
   19   21   33     15.06      0.00
   19   21   35      0.99      0.00
   19   21   37      2.67      0.00
   19   21   39      4.28      0.00
   19   23   23     -4.35      0.00
   19   23   25      1.08      0.00
   19   23   27     -3.89      0.00
   19   23   29     -3.23      0.00
   19   23   31      4.65      0.00
   19   23   33     -0.94      0.00
   19   23   35     -1.69      0.00
   19   25   25      5.65      0.00
   19   25   27     -0.44      0.00
   19   25   29      1.38      0.00
   19   25   31      1.42      0.00
   19   27   27     -2.90      0.00
   19   27   29     -2.01      0.00
   19   27   31     -1.36      0.00
   19   27   33     -0.85      0.00
   19   29   29     -5.74      0.00
   19   29   31     -2.66      0.00
   19   25   33      1.23      0.00
   19   29   33      2.42      0.00
   11   19   43     -6.54      0.00
    6   20   44      2.55      0.00
   18   20   40     -7.79      0.00
   20   20   20     -5.37      0.00
   20   20   22      0.99      0.00
   20   20   24     -2.25      0.00
   20   20   26     -4.73      0.00
   20   20   28     -0.80      0.00
   20   20   30     -4.07      0.00
   20   20   32     -0.64      0.00
   20   20   34      3.40      0.00
   20   20   36     -2.97      0.00
   20   20   38      1.93      0.00
   20   22   22      0.30      0.00
   20   22   24      6.43      0.00
   20   22   26     -0.73      0.00
   20   22   28     -0.14      0.00
   20   22   30     -0.03      0.00
   20   22   32     -0.37      0.00
   20   22   34     -2.34      0.00
   20   22   36     -2.65      0.00
   20   22   38     -1.46      0.00
   20   24   24      0.09      0.00
   20   24   26      1.77      0.00
   20   24   28     -0.40      0.00
   20   24   30     -1.88      0.00
   20   24   32     -4.04      0.00
   20   24   34      6.99      0.00
   20   26   26      4.60      0.00
   20   26   28      0.74      0.00
   20   26   30      1.69      0.00
   20   26   32      5.63      0.00
   20   28   28     -4.09      0.00
   20   28   30      6.09      0.00
   20   28   32     -1.69      0.00
   20   30   30      4.61      0.00
   20   26   34      7.58      0.00
    1   21   43     -3.59      0.00
    3   21   43     -2.96      0.00
    5   21   43     -6.55      0.00
    7   21   41     -1.45      0.00
    7   21   43     -5.88      0.00
   11   21   41      1.95      0.00
   15   21   41     -7.23      0.00
   21   21   21      7.66      0.00
   21   21   23      2.76      0.00
   21   21   25      0.69      0.00
   21   21   27      1.23      0.00
   21   21   29      4.91      0.00
   21   21   31      0.51      0.00
   21   21   33      2.39      0.00
   21   21   35      2.40      0.00
   21   21   37     -0.35      0.00
   21   23   23      3.27      0.00
   21   23   25     -3.99      0.00
   21   23   27     -0.29      0.00
   21   23   29      5.29      0.00
   21   23   31      0.85      0.00
   21   23   33     -2.18      0.00
   21   23   35     -2.20      0.00
   21   23   37      2.97      0.00
   21   25   25     -1.27      0.00
   21   25   27     -4.09      0.00
   21   25   29     -4.20      0.00
   21   25   31     -3.49      0.00
   21   27   27      3.57      0.00
   21   27   29     -1.95      0.00
   21   27   31     -7.11      0.00
   21   27   33      4.04      0.00
   21   29   29    -18.38      0.00
   21   29   31     -0.07      0.00
   21   25   33     -6.39      0.00
    9   21   43     -3.33      0.00
   11   21   43     -1.59      0.00
    2   22   42     -0.18      0.00
    4   22   42     -0.24      0.00
    6   22   42     -2.80      0.00
   22   22   22      7.14      0.00
   22   22   24      1.52      0.00
   22   22   26      4.71      0.00
   22   22   28      2.57      0.00
   22   22   30      4.13      0.00
   22   22   32      7.08      0.00
   22   22   34      5.93      0.00
   22   22   36      2.97      0.00
   22   24   24      4.44      0.00
   22   24   26     -1.14      0.00
   22   24   28      2.41      0.00
   22   24   30      1.90      0.00
   22   24   34      5.30      0.00
   22   26   26      3.35      0.00
   22   26   28     -1.01      0.00
   22   26   30      3.49      0.00
   22   26   32     -6.12      0.00
   22   28   28      4.06      0.00
   22   28   30      4.23      0.00
   22   30   30      8.94      0.00
   22   24   32      4.58      0.00
   22   28   32     -2.25      0.00
   12   22   42      4.18      0.00
   15   23   39     -8.02      0.00
   23   23   23      0.40      0.00
   23   23   25     -0.01      0.00
   23   23   27      0.19      0.00
   23   23   29      0.20      0.00
   23   23   31      2.34      0.00
   23   23   33     -8.25      0.00
   23   23   35      1.83      0.00
   23   25   25     -0.70      0.00
   23   25   27      0.63      0.00
   23   25   29      0.19      0.00
   23   25   31      0.48      0.00
   23   25   33      9.08      0.00
   23   27   27      0.16      0.00
   23   27   29     -2.08      0.00
   23   29   29     -7.14      0.00
   23   27   31     -0.23      0.00
   23   29   31     -8.69      0.00
    9   23   43      5.08      0.00
   16   24   38      2.45      0.00
   24   24   24     -0.18      0.00
   24   24   26     -1.16      0.00
   24   24   28      1.33      0.00
   24   24   30      7.20      0.00
   24   24   32     -4.87      0.00
   24   26   26      8.23      0.00
   24   26   28      3.65      0.00
   24   26   30      1.47      0.00
   24   26   32     -1.21      0.00
   24   28   28      1.85      0.00
   24   28   30      5.94      0.00
   24   24   34      4.65      0.00
   20   24   36     -5.89      0.00
   12   24   42      4.30      0.00
    3   25   41     -4.68      0.00
    5   25   41      5.33      0.00
    7   25   41     -5.11      0.00
    9   25   41     -2.62      0.00
   15   25   37      0.65      0.00
   25   25   25      2.20      0.00
   25   25   27     -3.38      0.00
   25   25   29     -4.61      0.00
   25   25   31      3.52      0.00
   25   25   33      2.50      0.00
   25   27   27      2.64      0.00
   25   27   29      3.58      0.00
   25   29   29     -2.04      0.00
   19   25   35    -14.13      0.00
   11   25   41     -3.37      0.00
    0   26   38     -1.97      0.00
    2   26   38     -1.01      0.00
    4   26   38     -3.28      0.00
    4   26   42      0.21      0.00
    6   26   38     -0.27      0.00
    8   26   38      4.50      0.00
   10   26   36      5.95      0.00
   12   26   36      0.25      0.00
   14   26   36      9.57      0.00
   16   26   36      3.14      0.00
   26   26   26     10.43      0.00
   26   26   28      3.96      0.00
   26   28   28     -2.10      0.00
    1   27   37      3.68      0.00
    1   27   39      0.09      0.00
    3   27   37     -7.76      0.00
    3   27   39     15.69      0.00
    5   27   37      1.46      0.00
    5   27   39     -8.55      0.00
    7   27   37     -2.20      0.00
    9   27   37      4.43      0.00
   13   27   35      3.41      0.00
   17   27   35     -8.66      0.00
   27   27   27     13.50      0.00
   27   27   29      0.39      0.00
   11   27   37     18.30      0.00
    0   28   38     -3.11      0.00
    2   28   38      2.26      0.00
    4   28   38      3.29      0.00
    6   28   38    -12.22      0.00
    8   28   38     -6.85      0.00
   10   28   38     -6.76      0.00
   14   28   34      7.09      0.00
   12   28   38     -0.14      0.00
    2   28   40     -4.28      0.00
    1   29   37      4.73      0.00
    3   29   37     -1.17      0.00
    3   29   39     -1.44      0.00
    5   29   37      7.54      0.00
   11   29   37     17.03      0.00
    7   29   39      3.34      0.00
   26   26   30     14.67      0.00
   16   30   30     -1.00      0.00
   18   30   32     -3.15      0.00
   12   30   36      3.00      0.00
    6   30   38     -9.40      0.00
    1   31   35      0.70      0.00
    1   31   39      2.16      0.00
    3   31   35     -4.08      0.00
    5   31   35      0.53      0.00
    7   31   35      0.31      0.00
    9   31   35     -2.13      0.00
   13   31   31      7.24      0.00
   17   31   31     -5.87      0.00
   15   31   33    -15.69      0.00
    0   32   36     12.84      0.00
    4   32   36      3.19      0.00
   12   32   32     -4.83      0.00
   12   32   34      9.33      0.00
   14   32   32      7.29      0.00
    0   32   38      1.18      0.00
    5   33   35     -8.71      0.00
   11   33   33      2.38      0.00
    1   33   37      2.11      0.00
    8   32   34     -6.87      0.00
   10   32   34      7.55      0.00
    6   34   34      2.72      0.00
   15   27   35     -3.22      0.00
    7   33   35     -5.47      0.00
    2   32   36      9.14      0.00
   14   28   36     15.31      0.00
   19   23   37     -1.94      0.00
   13   27   37      1.22      0.00
   13   29   37     -1.17      0.00
    9   31   37     -7.43      0.00
   10   30   38     -0.36      0.00
   18   24   38     10.62      0.00
    5   29   39     -8.49      0.00
    4   28   40      4.38      0.00
   12   24   40      0.97      0.00
   13   25   41     -6.69      0.00
    0   22   42     -7.01      0.00
    1    1    1   -355.86      0.00
    0    0    2     30.07      0.00
    1    1    3     40.56      0.00
    0    0    4   1477.69      0.00
    0    4    4    889.82      0.00
    5    5    5    463.49      0.00
    9    9    9   -146.23      0.00
    0    0   10    831.11      0.00
    0    0   18    340.62      0.00
   18   30   30     -1.98      0.00
   15   31   31     -2.90      0.00
   19   31   31     10.09      0.00
   10   32   32     -3.39      0.00
   16   32   32      1.90      0.00
    9   33   33     17.12      0.00
   21   25   35      0.21      0.00
   13   29   35     -2.01      0.00
   11   31   35      4.26      0.00
   18   26   36      4.25      0.00
   17   25   37     -8.86      0.00
   13   17   43     -5.33      0.00
   10   16   44     -5.55      0.00
    0    0   46     19.64      0.00
    1    1   47     -0.77      0.00
    0    0   48     15.92      0.00
    0    0    0      0.00      0.00
# SQUEEZE RESULTS (Version = 120916)
# Note: Data are Listed for all Voids in the P1 Unit Cell
# i.e. Centre of Gravity, Solvent Accessible Volume,
# Recovered number of Electrons in the Void and
# Details about the Squeezed Material
loop_
  _platon_squeeze_void_nr
  _platon_squeeze_void_average_x
  _platon_squeeze_void_average_y
  _platon_squeeze_void_average_z
  _platon_squeeze_void_volume
  _platon_squeeze_void_count_electrons
  _platon_squeeze_void_content
   1 -0.019 -0.045 -0.024     26452      4404 ' '
   2  0.250  0.250  0.250       329       110 ' '
   3  0.750  0.250  0.250       329       110 ' '
   4  0.250  0.250  0.750       329       110 ' '
   5  0.750  0.250  0.750       329       110 ' '
   6  0.250  0.750  0.250       329       110 ' '
   7  0.750  0.750  0.250       329       110 ' '
   8  0.250  0.750  0.750       329       110 ' '
   9  0.750  0.750  0.750       329       110 ' '
# Missing Reflections Below sin(th)/lambda = 0.25
loop_
  _platon_missing_refln_index_h
  _platon_missing_refln_index_k
  _platon_missing_refln_index_l
  _platon_missing_refln_theta
    1    1    1     0.960
    0    0    2     1.108
    1    1    3     1.838
    0    0    4     2.217
    0    4    4     3.136
    5    5    5     4.804
    9    9    9     8.670
    0    0   10     5.549
    0    0   18    10.024
_platon_squeeze_void_probe_radius                  1.20
_platon_squeeze_details
)
TITL Fm-3m in Fm-3m
CELL   36.7480   36.7480   36.7480     90.00     90.00     90.00
SPGR Fm-3m
# Solvent Accessible Volume =     29039
# Electrons Found in S.A.V. =      5181
# Note: Atoms in Void as Cxxx and Qxxx all others
C101 0.500 0.500 0.000 !       3.42 eA-3
C102 0.939 0.061 0.061 !       2.05 eA-3
C103 0.500 0.307 0.193 !       1.30 eA-3
C104 0.609 0.500 0.000 !       1.28 eA-3
C105 0.264 0.500 0.000 !       1.25 eA-3
C106 0.707 0.300 0.200 !       1.24 eA-3
C107 1.000 0.500 0.063 !       0.87 eA-3
Q108 1.000 0.345 0.345 !       0.86 eA-3
C109 0.500 0.498 0.133 !       0.86 eA-3
C110 0.781 0.258 0.231 !       0.82 eA-3
C111 0.515 0.016-0.001 !       0.79 eA-3
C112 0.845 0.342 0.158 !       0.79 eA-3
C113 0.500 0.502 0.461 !       0.78 eA-3
C114 1.000 0.269 0.185 !       0.78 eA-3
C115 0.105 0.396 0.106 !       0.75 eA-3
C116 1.000 0.289 0.211 !       0.75 eA-3
C117 1.000 0.500 0.000 !       0.74 eA-3
C118 0.233 0.264 0.236 !       0.74 eA-3
C119 0.767 0.236 0.264 !       0.74 eA-3
C120 1.000 0.495 0.094 !       0.74 eA-3
C121 1.000 0.502 0.219 !       0.72 eA-3
C122 0.739 0.739 0.739 !       0.71 eA-3
C123 0.500 0.020 0.059 !       0.70 eA-3
C124 1.000 0.320 0.180 !       0.68 eA-3
C125 0.488 0.480 0.456 !       0.66 eA-3
C126 0.305 0.305 0.305 !       0.64 eA-3
C127 0.791 0.202 0.298 !       0.63 eA-3
C128 0.708 0.062-0.002 !       0.62 eA-3
C129 0.817 0.502 0.203 !       0.58 eA-3
Q130 0.838 0.334 0.166 !       0.53 eA-3
Q131 0.500 0.120 0.328 !       0.50 eA-3
)
;
_shelx_fab_checksum              10115
_platon_squeeze_void_probe_radius 1.20
loop_
_space_group_symop_operation_xyz
'x, y, z'
'-x, -y, z'
'-x, y, -z'
'x, -y, -z'
'z, x, y'
'z, -x, -y'
'-z, -x, y'
'-z, x, -y'
'y, z, x'
'-y, z, -x'
'y, -z, -x'
'-y, -z, x'
'y, x, -z'
'-y, -x, -z'
'y, -x, z'
'-y, x, z'
'x, z, -y'
'-x, z, y'
'-x, -z, -y'
'x, -z, y'
'z, y, -x'
'z, -y, x'
'-z, y, x'
'-z, -y, -x'
'x, y+1/2, z+1/2'
'-x, -y+1/2, z+1/2'
'-x, y+1/2, -z+1/2'
'x, -y+1/2, -z+1/2'
'z, x+1/2, y+1/2'
'z, -x+1/2, -y+1/2'
'-z, -x+1/2, y+1/2'
'-z, x+1/2, -y+1/2'
'y, z+1/2, x+1/2'
'-y, z+1/2, -x+1/2'
'y, -z+1/2, -x+1/2'
'-y, -z+1/2, x+1/2'
'y, x+1/2, -z+1/2'
'-y, -x+1/2, -z+1/2'
'y, -x+1/2, z+1/2'
'-y, x+1/2, z+1/2'
'x, z+1/2, -y+1/2'
'-x, z+1/2, y+1/2'
'-x, -z+1/2, -y+1/2'
'x, -z+1/2, y+1/2'
'z, y+1/2, -x+1/2'
'z, -y+1/2, x+1/2'
'-z, y+1/2, x+1/2'
'-z, -y+1/2, -x+1/2'
'x+1/2, y, z+1/2'
'-x+1/2, -y, z+1/2'
'-x+1/2, y, -z+1/2'
'x+1/2, -y, -z+1/2'
'z+1/2, x, y+1/2'
'z+1/2, -x, -y+1/2'
'-z+1/2, -x, y+1/2'
'-z+1/2, x, -y+1/2'
'y+1/2, z, x+1/2'
'-y+1/2, z, -x+1/2'
'y+1/2, -z, -x+1/2'
'-y+1/2, -z, x+1/2'
'y+1/2, x, -z+1/2'
'-y+1/2, -x, -z+1/2'
'y+1/2, -x, z+1/2'
'-y+1/2, x, z+1/2'
'x+1/2, z, -y+1/2'
'-x+1/2, z, y+1/2'
'-x+1/2, -z, -y+1/2'
'x+1/2, -z, y+1/2'
'z+1/2, y, -x+1/2'
'z+1/2, -y, x+1/2'
'-z+1/2, y, x+1/2'
'-z+1/2, -y, -x+1/2'
'x+1/2, y+1/2, z'
'-x+1/2, -y+1/2, z'
'-x+1/2, y+1/2, -z'
'x+1/2, -y+1/2, -z'
'z+1/2, x+1/2, y'
'z+1/2, -x+1/2, -y'
'-z+1/2, -x+1/2, y'
'-z+1/2, x+1/2, -y'
'y+1/2, z+1/2, x'
'-y+1/2, z+1/2, -x'
'y+1/2, -z+1/2, -x'
'-y+1/2, -z+1/2, x'
'y+1/2, x+1/2, -z'
'-y+1/2, -x+1/2, -z'
'y+1/2, -x+1/2, z'
'-y+1/2, x+1/2, z'
'x+1/2, z+1/2, -y'
'-x+1/2, z+1/2, y'
'-x+1/2, -z+1/2, -y'
'x+1/2, -z+1/2, y'
'z+1/2, y+1/2, -x'
'z+1/2, -y+1/2, x'
'-z+1/2, y+1/2, x'
'-z+1/2, -y+1/2, -x'
'-x, -y, -z'
'x, y, -z'
'x, -y, z'
'-x, y, z'
'-z, -x, -y'
'-z, x, y'
'z, x, -y'
'z, -x, y'
'-y, -z, -x'
'y, -z, x'
'-y, z, x'
'y, z, -x'
'-y, -x, z'
'y, x, z'
'-y, x, -z'
'y, -x, -z'
'-x, -z, y'
'x, -z, -y'
'x, z, y'
'-x, z, -y'
'-z, -y, x'
'-z, y, -x'
'z, -y, -x'
'z, y, x'
'-x, -y+1/2, -z+1/2'
'x, y+1/2, -z+1/2'
'x, -y+1/2, z+1/2'
'-x, y+1/2, z+1/2'
'-z, -x+1/2, -y+1/2'
'-z, x+1/2, y+1/2'
'z, x+1/2, -y+1/2'
'z, -x+1/2, y+1/2'
'-y, -z+1/2, -x+1/2'
'y, -z+1/2, x+1/2'
'-y, z+1/2, x+1/2'
'y, z+1/2, -x+1/2'
'-y, -x+1/2, z+1/2'
'y, x+1/2, z+1/2'
'-y, x+1/2, -z+1/2'
'y, -x+1/2, -z+1/2'
'-x, -z+1/2, y+1/2'
'x, -z+1/2, -y+1/2'
'x, z+1/2, y+1/2'
'-x, z+1/2, -y+1/2'
'-z, -y+1/2, x+1/2'
'-z, y+1/2, -x+1/2'
'z, -y+1/2, -x+1/2'
'z, y+1/2, x+1/2'
'-x+1/2, -y, -z+1/2'
'x+1/2, y, -z+1/2'
'x+1/2, -y, z+1/2'
'-x+1/2, y, z+1/2'
'-z+1/2, -x, -y+1/2'
'-z+1/2, x, y+1/2'
'z+1/2, x, -y+1/2'
'z+1/2, -x, y+1/2'
'-y+1/2, -z, -x+1/2'
'y+1/2, -z, x+1/2'
'-y+1/2, z, x+1/2'
'y+1/2, z, -x+1/2'
'-y+1/2, -x, z+1/2'
'y+1/2, x, z+1/2'
'-y+1/2, x, -z+1/2'
'y+1/2, -x, -z+1/2'
'-x+1/2, -z, y+1/2'
'x+1/2, -z, -y+1/2'
'x+1/2, z, y+1/2'
'-x+1/2, z, -y+1/2'
'-z+1/2, -y, x+1/2'
'-z+1/2, y, -x+1/2'
'z+1/2, -y, -x+1/2'
'z+1/2, y, x+1/2'
'-x+1/2, -y+1/2, -z'
'x+1/2, y+1/2, -z'
'x+1/2, -y+1/2, z'
'-x+1/2, y+1/2, z'
'-z+1/2, -x+1/2, -y'
'-z+1/2, x+1/2, y'
'z+1/2, x+1/2, -y'
'z+1/2, -x+1/2, y'
'-y+1/2, -z+1/2, -x'
'y+1/2, -z+1/2, x'
'-y+1/2, z+1/2, x'
'y+1/2, z+1/2, -x'
'-y+1/2, -x+1/2, z'
'y+1/2, x+1/2, z'
'-y+1/2, x+1/2, -z'
'y+1/2, -x+1/2, -z'
'-x+1/2, -z+1/2, y'
'x+1/2, -z+1/2, -y'
'x+1/2, z+1/2, y'
'-x+1/2, z+1/2, -y'
'-z+1/2, -y+1/2, x'
'-z+1/2, y+1/2, -x'
'z+1/2, -y+1/2, -x'
'z+1/2, y+1/2, x'
loop_
_atom_site_label
_atom_site_type_symbol
_atom_site_fract_x
_atom_site_fract_y
_atom_site_fract_z
_atom_site_U_iso_or_equiv
_atom_site_adp_type
_atom_site_occupancy
_atom_site_site_symmetry_order
_atom_site_calc_flag
_atom_site_refinement_flags_posn
_atom_site_refinement_flags_adp
_atom_site_refinement_flags_occupancy
C1 C 0.19423(11) 0.10749(16) 0.19423(11) 0.1078(19) Uani 1 2 d S T P
C2 C 0.22335(11) 0.11036(16) 0.22335(11) 0.1075(19) Uani 1 2 d S T P
C3 C 0.21263(16) 0.11049(16) 0.25952(15) 0.136(2) Uani 1 1 d . . .
C1C C 0.08640(16) 0.08640(16) 0.2325(2) 0.205(8) Uani 1 2 d S T P
H1C H 0.0970 0.0970 0.2536 0.246 Uiso 1 2 calc R U P
C2C C 0.09820(17) 0.05710(18) 0.2151(2) 0.171(3) Uani 1 1 d . . .
H2C H 0.1181 0.0420 0.2217 0.206 Uiso 1 1 calc R U .
C3C C 0.07652(18) 0.05332(13) 0.1867(2) 0.146(2) Uani 1 1 d . . .
H3C H 0.0789 0.0349 0.1688 0.175 Uiso 1 1 calc R U .
Cl1 Cl 0.0000 0.11458(6) 0.11458(6) 0.1225(9) Uani 1 4 d S T P
N1 N 0.1784(4) 0.1131(7) 0.2738(5) 0.183(13) Uani 0.25 1 d . . P
H1A H 0.1595 0.1151 0.2592 0.219 Uiso 0.25 1 calc R U P
H1B H 0.1753 0.1129 0.2975 0.219 Uiso 0.25 1 calc R U P
O1 O 0.16142(8) 0.10566(8) 0.20564(8) 0.0973(8) Uani 1 1 d . . .
O1C O 0.14394(8) 0.14394(8) 0.14394(8) 0.0897(17) Uani 1 6 d S T P
O2C O 0.07676(9) 0.13577(6) 0.13577(6) 0.0844(10) Uani 1 2 d S T P
H2C0 H 0.0520 0.1305 0.1305 0.101 Uiso 1 2 calc R U P
Zr1 Zr 0.11094(2) 0.11094(2) 0.17523(2) 0.0824(4) Uani 1 2 d S T P
loop_
_atom_site_aniso_label
_atom_site_aniso_U_11
_atom_site_aniso_U_22
_atom_site_aniso_U_33
_atom_site_aniso_U_23
_atom_site_aniso_U_13
_atom_site_aniso_U_12
C1 0.113(3) 0.097(4) 0.113(3) -0.0038(19) -0.038(4) -0.0038(19)
C2 0.104(3) 0.115(4) 0.104(3) 0.0038(19) -0.035(4) 0.0038(19)
C3 0.118(4) 0.184(5) 0.107(3) 0.006(3) -0.042(3) -0.009(3)
C1C 0.275(12) 0.275(12) 0.066(4) -0.003(2) -0.003(2) -0.195(13)
C2C 0.100(4) 0.155(6) 0.259(9) 0.110(6) -0.012(5) 0.000(4)
C3C 0.157(5) 0.111(3) 0.170(5) -0.023(3) 0.074(4) -0.032(4)
Cl1 0.1009(16) 0.1333(14) 0.1333(14) 0.0112(13) 0.000 0.000
N1 0.053(7) 0.39(4) 0.108(13) -0.064(15) -0.023(7) 0.017(11)
O1 0.0856(17) 0.114(2) 0.0918(17) -0.0050(13) -0.0176(14) -0.0040(14)
O1C 0.0897(17) 0.0897(17) 0.0897(17) -0.0122(15) -0.0122(15) -0.0122(15)
O2C 0.0818(19) 0.0857(13) 0.0857(13) -0.0078(16) -0.0060(11) -0.0060(11)
Zr1 0.0855(4) 0.0855(4) 0.0764(5) -0.00541(15) -0.00541(15) -0.0058(2)
loop_
_atom_type_symbol
_atom_type_description
_atom_type_scat_dispersion_real
_atom_type_scat_dispersion_imag
_atom_type_scat_source
C C 0.0030 0.0016 'International Tables Vol C Tables 4.2.6.8 and 6.1.1.4'
H H 0.0000 0.0000 'International Tables Vol C Tables 4.2.6.8 and 6.1.1.4'
N N 0.0059 0.0032 'International Tables Vol C Tables 4.2.6.8 and 6.1.1.4'
O O 0.0105 0.0059 'International Tables Vol C Tables 4.2.6.8 and 6.1.1.4'
Cl Cl 0.1456 0.1550 'International Tables Vol C Tables 4.2.6.8 and 6.1.1.4'
Zr Zr -3.5084 0.5477 'International Tables Vol C Tables 4.2.6.8 and 6.1.1.4'
loop_
_geom_angle_atom_site_label_1
_geom_angle_atom_site_label_2
_geom_angle_atom_site_label_3
_geom_angle
_geom_angle_site_symmetry_1
_geom_angle_site_symmetry_3
O1 C1 O1 128.0(5) 120 .
O1 C1 C2 115.9(3) 120 .
O1 C1 C2 115.9(3) . .
C3 C2 C3 123.0(7) . 120
C3 C2 C1 118.4(3) . .
C3 C2 C1 118.4(3) 120 .
N1 C3 C2 129.1(8) . .
N1 C3 C3 112.3(7) . 166
C2 C3 C3 118.5(3) . 166
C2C C1C C2C 107.4(9) 110 .
C2C C1C Zr1 76.4(5) 110 .
C2C C1C Zr1 76.4(5) . .
C3C C2C C1C 105.6(6) . .
C3C C2C Zr1 74.5(4) . .
C1C C2C Zr1 72.7(5) . .
C3C C3C C2C 110.6(4) 110 .
C3C C3C Zr1 76.06(14) 110 .
C2C C3C Zr1 74.9(4) . .
C1 O1 Zr1 129.2(3) . .
Zr1 O1C Zr1 108.01(15) . 9
Zr1 O1C Zr1 108.01(15) . 5
Zr1 O1C Zr1 108.01(15) 9 5
Zr1 O2C Zr1 103.69(14) . 9
O1C Zr1 O2C 73.44(12) . .
O1C Zr1 O2C 73.44(12) . 5
O2C Zr1 O2C 92.40(17) . 5
O1C Zr1 O1 80.65(13) . .
O2C Zr1 O1 153.34(11) . .
O2C Zr1 O1 86.08(11) 5 .
O1C Zr1 O1 80.65(13) . 110
O2C Zr1 O1 86.08(11) . 110
O2C Zr1 O1 153.34(11) 5 110
O1 Zr1 O1 83.58(15) . 110
O1C Zr1 C1C 155.1(2) . .
O2C Zr1 C1C 121.63(12) . .
O2C Zr1 C1C 121.63(12) 5 .
O1 Zr1 C1C 80.81(16) . .
O1 Zr1 C1C 80.81(16) 110 .
O1C Zr1 C3C 152.59(18) . .
O2C Zr1 C3C 100.3(2) . .
O2C Zr1 C3C 80.31(14) 5 .
O1 Zr1 C3C 105.6(2) . .
O1 Zr1 C3C 126.17(15) 110 .
C1C Zr1 C3C 50.3(2) . .
O1C Zr1 C3C 152.59(18) . 110
O2C Zr1 C3C 80.31(14) . 110
O2C Zr1 C3C 100.3(2) 5 110
O1 Zr1 C3C 126.17(15) . 110
O1 Zr1 C3C 105.6(2) 110 110
C1C Zr1 C3C 50.3(2) . 110
C3C Zr1 C3C 27.9(3) . 110
O1C Zr1 C2C 154.03(15) . .
O2C Zr1 C2C 128.88(17) . .
O2C Zr1 C2C 90.7(2) 5 .
O1 Zr1 C2C 77.78(18) . .
O1 Zr1 C2C 110.9(2) 110 .
C1C Zr1 C2C 30.9(2) . .
C3C Zr1 C2C 30.6(2) . .
C3C Zr1 C2C 49.03(17) 110 .
O1C Zr1 C2C 154.03(15) . 110
O2C Zr1 C2C 90.7(2) . 110
O2C Zr1 C2C 128.87(17) 5 110
O1 Zr1 C2C 110.9(2) . 110
O1 Zr1 C2C 77.78(18) 110 110
C1C Zr1 C2C 30.9(2) . 110
C3C Zr1 C2C 49.03(17) . 110
C3C Zr1 C2C 30.6(2) 110 110
C2C Zr1 C2C 50.4(3) . 110
O1C Zr1 Zr1 36.00(7) . 9
O2C Zr1 Zr1 38.16(7) . 9
O2C Zr1 Zr1 86.30(8) 5 9
O1 Zr1 Zr1 115.25(8) . 9
O1 Zr1 Zr1 76.12(8) 110 9
C1C Zr1 Zr1 149.75(2) . 9
C3C Zr1 Zr1 135.85(19) . 9
C3C Zr1 Zr1 118.46(12) 110 9
C2C Zr1 Zr1 166.33(17) . 9
C2C Zr1 Zr1 123.07(18) 110 9
O1C Zr1 Zr1 36.00(7) . 5
O2C Zr1 Zr1 86.30(8) . 5
O2C Zr1 Zr1 38.16(7) 5 5
O1 Zr1 Zr1 76.12(8) . 5
O1 Zr1 Zr1 115.25(8) 110 5
C1C Zr1 Zr1 149.75(2) . 5
C3C Zr1 Zr1 118.46(12) . 5
C3C Zr1 Zr1 135.85(19) 110 5
C2C Zr1 Zr1 123.07(18) . 5
C2C Zr1 Zr1 166.33(17) 110 5
Zr1 Zr1 Zr1 60.0 9 5
loop_
_geom_bond_atom_site_label_1
_geom_bond_atom_site_label_2
_geom_bond_distance
_geom_bond_site_symmetry_2
C1 O1 1.278(4) 120
C1 O1 1.278(4) .
C1 C2 1.517(8) .
C2 C3 1.386(6) .
C2 C3 1.386(6) 120
C3 N1 1.365(16) .
C3 C3 1.447(10) 166
C1C C2C 1.325(9) 110
C1C C2C 1.325(9) .
C1C Zr1 2.462(8) .
C2C C3C 1.320(9) .
C2C Zr1 2.507(6) .
C3C C3C 1.206(11) 110
C3C Zr1 2.502(5) .
O1 Zr1 2.174(3) .
O1C Zr1 2.065(2) .
O1C Zr1 2.065(2) 9
O1C Zr1 2.065(2) 5
O2C Zr1 2.124(2) .
O2C Zr1 2.125(2) 9
Zr1 O2C 2.125(2) 5
Zr1 O1 2.174(3) 110
Zr1 C3C 2.502(5) 110
Zr1 C2C 2.507(6) 110
Zr1 Zr1 3.3411(10) 9
Zr1 Zr1 3.3411(10) 5
loop_
_platon_squeeze_void_nr
_platon_squeeze_void_average_x
_platon_squeeze_void_average_y
_platon_squeeze_void_average_z
_platon_squeeze_void_volume
_platon_squeeze_void_count_electrons
_platon_squeeze_void_content
1 -0.019 -0.045 -0.024 26452 4404 ' '
2 0.250 0.250 0.250 329 110 ' '
3 0.750 0.250 0.250 329 110 ' '
4 0.250 0.250 0.750 329 110 ' '
5 0.750 0.250 0.750 329 110 ' '
6 0.250 0.750 0.250 329 110 ' '
7 0.750 0.750 0.250 329 110 ' '
8 0.250 0.750 0.750 329 110 ' '
9 0.750 0.750 0.750 329 110 ' '
