#------------------------------------------------------------------------------
#$Date: 2017-12-29 11:03:35 +0200 (Fri, 29 Dec 2017) $
#$Revision: 204579 $
#$URL: file:///home/coder/svn-repositories/cod/cif/1/54/85/1548555.cif $
#------------------------------------------------------------------------------
#
# This file is available in the Crystallography Open Database (COD),
# http://www.crystallography.net/
#
# All data on this site have been placed in the public domain by the
# contributors.
#
data_1548555
loop_
_publ_author_name
'Marina Barsukova'
'Tatiana Goncharova'
'Denis Samsonenko'
'Danil Dybtsev'
'Andrei Potapov'
_publ_section_title
;
 Synthesis, Crystal Structure, and Luminescent Properties of New Zinc(II)
 and Cadmium(II) Metal-Organic Frameworks Based on Flexible
 Bis(imidazol-1-yl)alkane Ligands
;
_journal_name_full               Crystals
_journal_page_first              132
_journal_paper_doi               10.3390/cryst6100132
_journal_volume                  6
_journal_year                    2016
_chemical_formula_sum            'C22 H27 N5 O5 Zn'
_chemical_formula_weight         506.85
_space_group_crystal_system      monoclinic
_space_group_IT_number           14
_space_group_name_Hall           '-P 2ybc'
_space_group_name_H-M_alt        'P 1 21/c 1'
_symmetry_space_group_name_Hall  '-P 2ybc'
_symmetry_space_group_name_H-M   'P 1 21/c 1'
_atom_sites_solution_hydrogens   geom
_atom_sites_solution_primary     direct
_atom_sites_solution_secondary   difmap
_cell_angle_alpha                90
_cell_angle_beta                 105.3925(17)
_cell_angle_gamma                90
_cell_formula_units_Z            4
_cell_length_a                   10.73257(16)
_cell_length_b                   23.2562(3)
_cell_length_c                   9.76351(17)
_cell_measurement_reflns_used    13981
_cell_measurement_temperature    130(2)
_cell_measurement_theta_max      30.75
_cell_measurement_theta_min      4.02
_cell_volume                     2349.55(6)
_computing_cell_refinement
;
CrysAlisPro, Agilent Technologies,
Version 1.171.37.35 (release 13-08-2014 CrysAlis171 .NET)
(compiled Aug 13 2014,18:06:01)
;
_computing_data_collection
;
CrysAlisPro, Agilent Technologies,
Version 1.171.37.35 (release 13-08-2014 CrysAlis171 .NET)
(compiled Aug 13 2014,18:06:01)
;
_computing_data_reduction
;
CrysAlisPro, Agilent Technologies,
Version 1.171.37.35 (release 13-08-2014 CrysAlis171 .NET)
(compiled Aug 13 2014,18:06:01)
;
_computing_molecular_graphics    'ShelXle (H\"ubschle, 2011)'
_computing_publication_material  'CIFTAB-2013 (Sheldrick, 2013)'
_computing_structure_refinement  'SHELXL-2013 (Sheldrick, 2013)'
_computing_structure_solution    'SHELXS-2013 (Sheldrick, 2013)'
_diffrn_ambient_temperature      130(2)
_diffrn_detector                 'CCD plate'
_diffrn_detector_area_resol_mean 10.6168
_diffrn_detector_type            AtlasS2
_diffrn_measured_fraction_theta_full 0.998
_diffrn_measured_fraction_theta_max 0.907
_diffrn_measurement_device       'four-circle diffractometer'
_diffrn_measurement_device_type  'New Xcalibur, AtlasS2'
_diffrn_measurement_method       '\w scans'
_diffrn_radiation_monochromator  graphite
_diffrn_radiation_probe          x-ray
_diffrn_radiation_source         'fine-focus sealed tube'
_diffrn_radiation_type           MoK\a
_diffrn_radiation_wavelength     0.71073
_diffrn_reflns_av_R_equivalents  0.0160
_diffrn_reflns_av_unetI/netI     0.0162
_diffrn_reflns_Laue_measured_fraction_full 0.998
_diffrn_reflns_Laue_measured_fraction_max 0.907
_diffrn_reflns_limit_h_max       14
_diffrn_reflns_limit_h_min       -15
_diffrn_reflns_limit_k_max       32
_diffrn_reflns_limit_k_min       -32
_diffrn_reflns_limit_l_max       9
_diffrn_reflns_limit_l_min       -14
_diffrn_reflns_number            24131
_diffrn_reflns_point_group_measured_fraction_full 0.998
_diffrn_reflns_point_group_measured_fraction_max 0.907
_diffrn_reflns_theta_full        26.500
_diffrn_reflns_theta_max         30.991
_diffrn_reflns_theta_min         3.404
_diffrn_source                   'sealed X-ray tube'
_exptl_absorpt_coefficient_mu    1.088
_exptl_absorpt_correction_T_max  1.00000
_exptl_absorpt_correction_T_min  0.85550
_exptl_absorpt_correction_type   multi-scan
_exptl_absorpt_process_details
;
CrysAlisPro, Agilent Technologies,
Version 1.171.37.35 (release 13-08-2014 CrysAlis171 .NET)
(compiled Aug 13 2014,18:06:01)
Empirical absorption correction using spherical harmonics,
 implemented in SCALE3 ABSPACK scaling algorithm.
;
_exptl_crystal_colour            yellow
_exptl_crystal_density_diffrn    1.433
_exptl_crystal_description       block
_exptl_crystal_F_000             1056
_exptl_crystal_size_max          0.34
_exptl_crystal_size_mid          0.31
_exptl_crystal_size_min          0.21
_refine_diff_density_max         1.227
_refine_diff_density_min         -0.532
_refine_diff_density_rms         0.072
_refine_ls_extinction_coef       .
_refine_ls_extinction_method     none
_refine_ls_goodness_of_fit_ref   1.075
_refine_ls_hydrogen_treatment    constr
_refine_ls_matrix_type           full
_refine_ls_number_parameters     310
_refine_ls_number_reflns         6791
_refine_ls_number_restraints     30
_refine_ls_restrained_S_all      1.111
_refine_ls_R_factor_all          0.0409
_refine_ls_R_factor_gt           0.0374
_refine_ls_shift/su_max          0.000
_refine_ls_shift/su_mean         0.000
_refine_ls_structure_factor_coef Fsqd
_refine_ls_weighting_details
'w=1/[\s^2^(Fo^2^)+(0.0551P)^2^+1.9547P] where P=(Fo^2^+2Fc^2^)/3'
_refine_ls_weighting_scheme      calc
_refine_ls_wR_factor_gt          0.1059
_refine_ls_wR_factor_ref         0.1082
_reflns_Friedel_coverage         0.000
_reflns_Friedel_fraction_full    .
_reflns_Friedel_fraction_max     .
_reflns_number_gt                6249
_reflns_number_total             6791
_reflns_threshold_expression     >2\s(I)
_cod_data_source_file            1.cif
_cod_data_source_block           bmo280_3
_cod_database_code               1548555
_shelx_space_group_comment
;
The symmetry employed for this shelxl refinement is uniquely defined
by the following loop, which should always be used as a source of
symmetry information in preference to the above space-group names.
They are only intended as comments.
;
_shelx_estimated_absorpt_t_min   0.709
_shelx_estimated_absorpt_t_max   0.804
_shelxl_version_number           2013-3
_shelx_res_file
;
TITL bmo280_3 in P2(1)/c; 130K; Xcalibur
CELL 0.71073  10.73257  23.2562   9.76351  90.0000 105.3925  90.0000
ZERR    4.00   0.00016   0.0003   0.00017   0.0000   0.0017   0.0000
LATT   1
SYMM -X, 0.50000+Y, 0.50000-Z
SFAC C  H   N  O  Zn
UNIT 88 108 20 20 4
 
LIST 4 ! automatically inserted. Change 6 to 4 for CHECKCIF!!
TEMP -143
 
L.S. 6
FMAP 2
PLAN 5
BOND $H
 
REM [Zn(C11H16N4)(C8H4O4)]*C3H7NO
 
SIMU 0.01 0.02 O12 O12'
SIMU 0.003 0.005 O1D > C13D
 
ACTA 53
SIZE 0.34 0.31 0.21
 
WGHT    0.055100    1.954750
FVAR       4.25472   0.41249
ZN1   5    0.329591    0.100659   -0.031610    11.00000    0.02277    0.01507 =
         0.01470   -0.00043   -0.00157   -0.00022
O11   4    0.400382    0.052286    0.135051    11.00000    0.05723    0.03962 =
         0.01759    0.00747    0.00646    0.01730
O12   4    0.318534    0.110986    0.264961    21.00000    0.08180    0.06011 =
         0.03462    0.01496    0.00816    0.04550
O12'  4    0.261725    0.085617    0.238698   -21.00000    0.05003    0.08509 =
         0.03997    0.03371    0.02126    0.04313
C11   1    0.365615    0.061963    0.244361    11.00000    0.02994    0.03490 =
         0.02431    0.00967    0.00685    0.00839
C12   1    0.435548    0.029442    0.377008    11.00000    0.02228    0.02388 =
         0.01652    0.00162    0.00251    0.00110
C13   1    0.421583    0.046539    0.509081    11.00000    0.02861    0.02546 =
         0.02133    0.00177    0.00660    0.00701
AFIX  43
H13   2    0.368169    0.078457    0.515467    11.00000   -1.20000
AFIX   0
C14   1    0.514462   -0.017044    0.368617    11.00000    0.02764    0.02542 =
         0.01661   -0.00076    0.00471    0.00228
AFIX  43
H14   2    0.524756   -0.028716    0.279017    11.00000   -1.20000
AFIX   0
O21   4    0.201889    0.049655   -0.156579    11.00000    0.03305    0.02488 =
         0.01553    0.00028   -0.00141   -0.00941
O22   4    0.232232    0.109914   -0.321052    11.00000    0.03270    0.02070 =
         0.02133   -0.00098    0.00341   -0.00695
C21   1    0.180435    0.067006   -0.285644    11.00000    0.02181    0.01772 =
         0.01683   -0.00212    0.00027   -0.00035
C22   1    0.086960    0.032222   -0.396108    11.00000    0.02187    0.01705 =
         0.01557   -0.00086   -0.00033   -0.00070
C23   1    0.084035    0.038451   -0.539803    11.00000    0.02345    0.02086 =
         0.01832    0.00048    0.00295   -0.00339
AFIX  43
H23   2    0.140995    0.064677   -0.567012    11.00000   -1.20000
AFIX   0
C24   1    0.002386   -0.006169   -0.357613    11.00000    0.02477    0.02111 =
         0.01447    0.00044    0.00186   -0.00091
AFIX  43
H24   2    0.003802   -0.010316   -0.260413    11.00000   -1.20000
AFIX   0
N11   3    0.503067    0.110604   -0.074544    11.00000    0.02401    0.01994 =
         0.02283    0.00091   -0.00053   -0.00111
N12   3    0.703332    0.094202   -0.079843    11.00000    0.02349    0.02235 =
         0.02572    0.00047    0.00169   -0.00223
N13   3    1.140213    0.242357    0.421329    11.00000    0.02856    0.02068 =
         0.02623   -0.00009    0.00623   -0.00459
N14   3    1.262399    0.319330    0.471386    11.00000    0.02680    0.01746 =
         0.02044    0.00218    0.00137   -0.00070
C101  1    0.607559    0.078715   -0.023018    11.00000    0.02383    0.01939 =
         0.02041   -0.00131    0.00112   -0.00207
AFIX  43
H101  2    0.613662    0.048916    0.045001    11.00000   -1.20000
AFIX   0
C102  1    0.534812    0.148168   -0.168898    11.00000    0.02922    0.02446 =
         0.03428    0.00932    0.00000   -0.00136
AFIX  43
H102  2    0.478736    0.176332   -0.223141    11.00000   -1.20000
AFIX   0
C103  1    0.658815    0.138688   -0.172358    11.00000    0.03075    0.02923 =
         0.03331    0.00940    0.00418   -0.00530
AFIX  43
H103  2    0.705363    0.158785   -0.227640    11.00000   -1.20000
AFIX   0
C104  1    0.832878    0.068130   -0.047878    11.00000    0.02410    0.02672 =
         0.03342   -0.00429    0.00529    0.00063
AFIX  23
H10A  2    0.846809    0.051286   -0.135758    11.00000   -1.20000
H10B  2    0.838383    0.036686    0.021828    11.00000   -1.20000
AFIX   0
C105  1    0.938358    0.112202    0.011946    11.00000    0.02193    0.03050 =
         0.03504   -0.00339    0.00716   -0.00350
AFIX  23
H10C  2    0.935641    0.142258   -0.060596    11.00000   -1.20000
H10D  2    1.023522    0.092958    0.030987    11.00000   -1.20000
AFIX   0
C106  1    0.926099    0.140875    0.148344    11.00000    0.02404    0.02218 =
         0.03173   -0.00014    0.00597   -0.00350
AFIX  23
H10E  2    0.921392    0.110805    0.218570    11.00000   -1.20000
H10F  2    0.844701    0.163206    0.127748    11.00000   -1.20000
AFIX   0
C107  1    1.039577    0.180904    0.212518    11.00000    0.02454    0.02671 =
         0.03359   -0.00385    0.00711   -0.00475
AFIX  23
H10G  2    1.121668    0.159492    0.225945    11.00000   -1.20000
H10H  2    1.039866    0.213052    0.146135    11.00000   -1.20000
AFIX   0
C108  1    1.030797    0.204783    0.354091    11.00000    0.03128    0.02760 =
         0.03522   -0.00297    0.01111   -0.01044
AFIX  23
H10I  2    0.949413    0.226822    0.339625    11.00000   -1.20000
H10J  2    1.027560    0.172415    0.418914    11.00000   -1.20000
AFIX   0
C109  1    1.241432    0.228407    0.534489    11.00000    0.04087    0.02233 =
         0.04026    0.01053    0.00034   -0.00130
AFIX  43
H109  2    1.256811    0.192438    0.582122    11.00000   -1.20000
AFIX   0
C110  1    1.315479    0.276454    0.564887    11.00000    0.03727    0.02539 =
         0.03725    0.01070   -0.00890   -0.00247
AFIX  43
H110  2    1.392488    0.279829    0.639717    11.00000   -1.20000
AFIX   0
C111  1    1.155984    0.297315    0.386199    11.00000    0.02562    0.01977 =
         0.02116    0.00066    0.00457   -0.00096
AFIX  43
H111  2    1.098671    0.317540    0.310681    11.00000   -1.20000
AFIX   0
O1D   4    0.872280    0.192058    0.655429    11.00000    0.06003    0.10392 =
         0.04370    0.00892   -0.00635   -0.03733
N1D   3    0.726273    0.160716    0.458290    11.00000    0.03572    0.03681 =
         0.04209   -0.00009    0.00225   -0.00422
C11D  1    0.786562    0.202039    0.545704    11.00000    0.05422    0.05192 =
         0.04687    0.00216    0.00866   -0.01582
AFIX  43
H11D  2    0.762514    0.240876    0.522554    11.00000   -1.20000
AFIX   0
C12D  1    0.756668    0.101297    0.487012    11.00000    0.05106    0.04446 =
         0.08311    0.00204    0.01917    0.00266
AFIX 137
H12A  2    0.761561    0.082006    0.399353    11.00000   -1.50000
H12B  2    0.689218    0.083211    0.523089    11.00000   -1.50000
H12C  2    0.840049    0.097966    0.558275    11.00000   -1.50000
AFIX   0
C13D  1    0.622388    0.173920    0.334195    11.00000    0.07006    0.07542 =
         0.07062    0.00108   -0.01798   -0.00278
AFIX  37
H13A  2    0.627145    0.148169    0.256291    11.00000   -1.50000
H13B  2    0.630311    0.213879    0.305766    11.00000   -1.50000
H13C  2    0.539257    0.168666    0.356372    11.00000   -1.50000
AFIX   0
HKLF 4
 
REM  bmo280_3 in P2(1)/c; 130K; Xcalibur
REM R1 =  0.0374 for    6249 Fo > 4sig(Fo)  and  0.0409 for all    6791 data
REM    310 parameters refined using     30 restraints
 
END
 
WGHT      0.0551      1.9547
 
REM Highest difference peak  1.227,  deepest hole -0.532,  1-sigma level  0.072
Q1    1   0.8330  0.1383  0.5574  11.00000  0.05    1.23
Q2    1   0.8935  0.1510  0.6578  11.00000  0.05    0.92
Q3    1   0.6607  0.1279  0.3285  11.00000  0.05    0.77
Q4    1   0.7010  0.2200  0.4652  11.00000  0.05    0.67
Q5    1   0.3842  0.1040 -0.0774  11.00000  0.05    0.66
;
_shelx_res_checksum              83428
_shelx_hkl_file
;
 -15   0   4 4266.71 367.668   2
 -15   0   5 457.220 182.856   2
 -15  -1   3 947.990 203.043   2
 -15  -1   5 9240.23 529.451   2
 -15  -1   6 4321.37 380.706   2
 -15   2   1 382.680 146.464   3
 -15  -2   2 1530.33 251.380   2
 -15  -2   3 157.044 141.269   2
 -15  -2   4 400.932 144.551   2
 -15  -2   6 363.279 156.286   2
 -15   3   1 445.772 141.915   3
 -15  -3   2 969.359 217.756   2
 -15  -3   3 678.369 170.039   2
 -15  -3   5 782.755 181.157   2
 -15  -3   6 3084.60 317.656   2
 -15  -4   3 437.979 154.294   2
 -15  -4   4 6045.64 417.277   2
 -15  -4   5 1384.37 220.215   2
 -15  -4   6 7050.43 454.574   2
 -15  -5   2 436.472 157.654   2
 -15  -5   3 4518.81 362.800   2
 -15  -6   2 1057.43 211.575   2
 -15  -6   3 662.508 171.004   2
 -14   0  -1-291.930 150.075   3
 -14   0  -1 222.847 151.335   1
 -14   0   0 1436.47 221.968   2
 -14   0   0 1717.40 241.220   1
 -14   0   0 1333.20 205.582   3
 -14   0   1 136.534 130.338   2
 -14   0   1 3.18639 117.422   1
 -14   0   1-58.4933 86.5341   3
 -14   0   2 372.044 153.217   2
 -14   0   2 191.145 116.817   1
 -14   0   3-159.178 131.482   1
 -14   0   3 40.0599 103.058   2
 -14   0   4 1264.02 221.079   2
 -14   0   4 1087.16 219.723   1
 -14   0   5-20.3785 122.348   1
 -14   1  -2 817.852 176.157   3
 -14  -1  -1 6662.96 455.324   1
 -14   1  -1 6604.92 427.998   3
 -14   1  -1 6274.79 430.638   1
 -14   1   0 288.051 138.649   1
 -14  -1   0-29.3170 91.7248   3
 -14  -1   0 200.698 122.878   1
 -14   1   0 175.301 111.179   3
 -14   1   0 274.574 134.651   2
 -14   1   1 3376.85 304.320   3
 -14  -1   1 3622.12 338.957   2
 -14   1   1 3873.23 356.777   2
 -14   1   1 3390.62 317.438   1
 -14  -1   1 3637.85 336.984   1
 -14  -1   1 3618.24 306.323   3
 -14   1   2 1220.84 212.070   2
 -14  -1   2 1095.21 197.339   1
 -14   1   2 1166.46 197.199   1
 -14  -1   2 1644.38 233.294   2
 -14   1   3 31.5602 110.100   1
 -14  -1   3 58.4487 119.844   1
 -14  -1   3 36.2166 114.610   2
 -14   1   3 26.7564 96.5012   2
 -14   1   4 1568.24 235.578   2
 -14  -1   4 1787.62 244.609   1
 -14  -1   4 1976.00 252.053   2
 -14   1   4 1523.79 238.210   1
 -14   1   5 1353.38 225.855   1
 -14  -1   5 1549.11 224.474   2
 -14  -1   5 1171.69 200.178   1
 -14   2  -2 884.770 188.092   3
 -14   2  -2 974.456 182.320   1
 -14   2  -1 2604.97 295.144   1
 -14  -2  -1 2889.11 318.663   2
 -14   2  -1 2380.17 272.164   3
 -14  -2   0 12.9065 120.925   2
 -14   2   0-10.9486 102.463   3
 -14   2   0-70.4818 124.285   1
 -14   2   0 138.496 127.465   2
 -14  -2   0 199.981 110.744   1
 -14   2   1 9870.09 546.014   2
 -14   2   1 8862.91 506.340   1
 -14  -2   1 8841.44 507.748   2
 -14  -2   1 9784.06 545.855   1
 -14   2   1 8398.39 466.483   3
 -14   2   2 238.270 144.683   1
 -14  -2   2 176.333 125.633   1
 -14  -2   2 327.828 157.048   2
 -14   2   3 3547.10 330.037   2
 -14  -2   3 3901.26 342.040   1
 -14   2   3 3804.35 334.189   1
 -14  -2   3 3561.21 321.892   2
 -14  -2   4 650.731 162.496   2
 -14   2   4 982.697 202.314   1
 -14  -2   4 836.966 194.158   1
 -14   2   5 4286.41 377.869   1
 -14  -2   5 3781.54 348.426   1
 -14   3  -2 1127.60 207.827   1
 -14   3  -1 1129.19 203.265   1
 -14  -3  -1 1002.50 201.472   2
 -14   3  -1 1128.71 199.713   3
 -14  -3   0 3515.56 334.002   1
 -14   3   0 3316.08 310.451   3
 -14  -3   0 3531.70 333.426   2
 -14   3   0 4061.61 344.947   1
 -14  -3   1 385.866 161.461   2
 -14   3   1 421.457 132.692   3
 -14   3   1 354.382 147.384   2
 -14  -3   1 477.916 162.212   1
 -14   3   1 308.973 141.893   1
 -14   3   2 6795.23 443.831   1
 -14   3   2 6185.04 433.232   2
 -14  -3   2 6463.63 445.938   1
 -14  -3   2 6012.50 417.093   2
 -14  -3   3 223.675 128.402   1
 -14   3   3 131.505 114.665   2
 -14  -3   3 95.4544 125.803   2
 -14   3   3 160.155 121.099   1
 -14  -3   4 5912.96 402.510   2
 -14   3   4 6590.42 438.748   2
 -14  -3   4 6313.59 438.533   1
 -14   3   4 6104.30 422.808   1
 -14   3   5 93.4294 127.177   1
 -14  -3   5-47.0044 129.580   1
 -14   4  -2 2915.24 306.910   1
 -14   4  -1 149.774 130.608   1
 -14  -4  -1 78.5212 119.749   2
 -14   4  -1 347.426 136.847   3
 -14   4   0 4435.14 368.203   3
 -14   4   0 4778.34 374.004   1
 -14  -4   1 6028.14 431.979   1
 -14  -4   1 6852.86 443.787   2
 -14   4   1 6277.25 448.193   2
 -14   4   1 6055.73 413.699   1
 -14   4   2 65.8808 109.192   2
 -14  -4   2 408.476 162.224   1
 -14   4   2 87.1234 104.608   1
 -14   4   3 189.542 116.099   2
 -14   4   3 73.2251 101.685   1
 -14  -4   3-98.9208 142.812   1
 -14  -4   4 228.323 123.236   2
 -14   4   4-38.6760 114.305   2
 -14  -4   4-65.8510 132.640   1
 -14   4   4 312.136 142.054   1
 -14  -4   5 499.991 169.702   1
 -14   4   5 879.301 201.307   1
 -14  -4   5 500.255 143.125   2
 -14   5  -1 944.202 191.493   1
 -14   5  -1 1427.84 229.982   3
 -14  -5  -1 952.622 188.228   2
 -14   5   0 361.615 152.828   1
 -14  -5   0 131.091 123.284   2
 -14   5   0 81.9402 116.472   3
 -14  -5   1 304.720 156.357   2
 -14   5   1 191.320 117.853   1
 -14   5   1 158.033 125.196   2
 -14   5   2 1133.68 215.344   2
 -14  -5   2 1385.63 234.722   1
 -14  -5   2 1320.95 208.710   2
 -14   5   2 1188.57 200.977   1
 -14  -5   3 153.227 118.446   1
 -14  -5   3 512.468 161.829   2
 -14   5   3 203.091 130.849   1
 -14   5   3 468.830 173.757   2
 -14  -5   4 142.847 114.563   2
 -14   5   4 142.343 130.068   1
 -14  -5   4 52.8271 124.989   1
 -14  -5   5 484.128 166.141   1
 -14   5   5 683.185 193.043   1
 -14  -5   5 458.452 143.105   2
 -14  -5   6 1678.28 224.206   2
 -14   6  -1 271.629 129.352   1
 -14  -6  -1-67.2218 144.092   2
 -14  -6   0 3997.16 346.814   2
 -14   6   0 3563.50 346.417   3
 -14   6   0 3290.75 315.491   1
 -14  -6   1 265.865 130.351   2
 -14   6   1 374.756 135.209   1
 -14  -6   2-95.6808 108.733   2
 -14   6   2-41.5595 101.491   1
 -14   6   2 200.536 137.929   2
 -14  -6   3 1513.41 239.579   1
 -14   6   3 1539.02 231.660   2
 -14   6   3 1352.86 216.345   1
 -14  -6   3 1406.12 214.508   2
 -14   6   4 182.301 120.223   2
 -14  -6   4 181.294 121.562   2
 -14   6   4 239.721 136.940   1
 -14  -6   4 15.7761 126.254   1
 -14  -6   5 87.5034 108.597   2
 -14   6   5 218.830 138.441   1
 -14  -6   6 113.767 110.412   2
 -14   7  -1 2269.12 260.627   1
 -14  -7   0 1833.18 240.297   2
 -14   7   0 1529.63 227.505   1
 -14   7   0 1736.31 250.256   3
 -14  -7   1-5.20715 117.513   2
 -14   7   1 225.243 135.090   1
 -14   7   2 5144.02 376.347   1
 -14  -7   2 5408.80 382.704   2
 -14   7   3 2718.86 304.609   2
 -14   7   3 2788.79 293.821   1
 -14  -7   3 2595.85 263.858   2
 -14   7   4 728.136 181.614   1
 -14  -7   4 453.990 139.206   2
 -14   7   4 889.928 193.507   2
 -14  -7   5 158.929 111.484   2
 -14  -8   0 1300.32 221.320   2
 -14   8   0 978.355 190.457   1
 -14  -8   1 295.459 121.517   2
 -14   8   1 304.349 125.830   1
 -14   8   2 398.452 145.120   1
 -14  -8   2 394.152 142.386   2
 -14  -8   3 884.148 178.860   2
 -14   8   4 170.085 115.442   1
 -14   9   0 2824.80 286.166   1
 -14   9   1 103.419 125.414   1
 -14   9   2 4056.54 344.695   1
 -14   9   3 257.419 132.199   1
 -14  10   0 3596.03 311.034   1
 -14  10   1 349.525 142.697   1
 -14  10   2 445.056 148.079   1
 -14  11   1 836.939 178.060   1
 -13   0  -4 520.343 159.077   3
 -13   0  -3 41.9294 106.511   3
 -13   0  -2 718.014 167.939   3
 -13   0  -2 725.220 178.821   1
 -13   0  -2 805.297 193.275   2
 -13   0  -1 133.601 131.707   1
 -13   0  -1 219.508 139.375   2
 -13   0  -1-42.4517 102.367   3
 -13   0   0 167.572 117.659   1
 -13   0   0 90.0320 103.687   3
 -13   0   0 199.178 139.951   2
 -13   0   1-59.1862 106.498   2
 -13   0   1-178.539 121.699   1
 -13   0   2 1258.26 198.184   1
 -13   0   2 1842.72 232.463   2
 -13   0   3 58.9727 112.491   1
 -13   0   3 279.984 134.921   2
 -13   0   4 11984.1 562.671   1
 -13   0   4 12386.5 552.282   2
 -13   0   5-29.6890 103.116   1
 -13   0   6 8666.07 496.039   1
 -13   0   7-58.5179 127.504   1
 -13  -1  -4 4068.04 344.285   3
 -13   1  -4 3957.47 355.947   3
 -13   1  -3 2140.66 259.599   3
 -13  -1  -3 2070.54 252.340   3
 -13   1  -3 2147.39 270.797   1
 -13   1  -2 5838.56 403.808   1
 -13  -1  -2 6303.04 444.244   2
 -13   1  -2 6384.82 448.315   2
 -13  -1  -2 6214.42 401.975   3
 -13   1  -1 615.870 160.899   1
 -13  -1  -1 762.042 176.896   2
 -13  -1  -1 554.495 128.633   3
 -13  -1  -1 624.420 165.134   1
 -13   1  -1 648.392 175.904   2
 -13   1  -1 587.261 142.781   3
 -13   1   0 6877.09 405.262   3
 -13   1   0 7149.39 433.009   1
 -13  -1   0 7492.27 465.131   2
 -13  -1   0 6870.90 397.845   3
 -13   1   0 7603.45 468.681   2
 -13  -1   0 7477.84 446.747   1
 -13   1   1 2068.01 251.949   2
 -13  -1   1 2365.78 270.922   2
 -13   1   1 2170.77 253.195   1
 -13  -1   1 1975.56 222.622   3
 -13  -1   1 1831.05 235.076   1
 -13   1   2 2323.34 255.441   2
 -13   1   2 2529.05 265.741   1
 -13  -1   2 1797.07 231.263   1
 -13  -1   2 2318.86 253.840   2
 -13  -1   3 688.348 151.585   1
 -13   1   3 865.004 167.701   1
 -13  -1   3 1016.77 191.598   2
 -13   1   3 791.303 170.422   2
 -13  -1   4 987.996 189.209   2
 -13   1   4 1000.17 206.896   1
 -13  -1   4 672.816 173.364   1
 -13  -1   5 3770.47 325.805   1
 -13   1   5 4522.31 354.811   1
 -13  -1   6 431.487 155.306   1
 -13   1   6 825.308 180.189   1
 -13   1   7 114.396 123.952   1
 -13  -1   7 97.3756 114.000   1
 -13  -1   8 1712.66 251.647   1
 -13   2  -4 2024.30 249.628   1
 -13   2  -4 2277.94 284.515   3
 -13   2  -3 11527.3 577.684   3
 -13   2  -3 10652.0 535.584   1
 -13  -2  -2 382.141 151.942   2
 -13   2  -2 512.983 179.733   2
 -13  -2  -2 265.974 112.090   3
 -13   2  -2 434.408 140.091   3
 -13   2  -2 322.294 127.517   1
 -13   2  -1 6840.93 421.689   3
 -13  -2  -1 7415.09 464.818   2
 -13   2  -1 7720.02 448.809   1
 -13  -2  -1 7243.66 404.909   3
 -13   2   0 116.443 140.583   1
 -13   2   0 1.44829 95.4446   3
 -13  -2   0 150.613 128.129   1
 -13   2   0-8.91845 105.618   2
 -13  -2   0 9.03124 77.8617   3
 -13  -2   0-1.44511 109.901   2
 -13  -2   1 9112.20 484.741   2
 -13  -2   1 9415.86 498.513   1
 -13  -2   1 9154.09 440.742   3
 -13   2   1 9646.93 493.644   1
 -13   2   1 9437.51 507.475   2
 -13   2   2 289.507 103.605   1
 -13  -2   2 468.505 150.780   1
 -13  -2   2 957.757 184.347   2
 -13   2   2 586.586 142.236   2
 -13   2   3 7399.20 443.583   2
 -13   2   3 7113.03 425.896   1
 -13  -2   3 6922.65 411.148   2
 -13  -2   3 7144.39 441.850   1
 -13  -2   4 1290.39 202.460   2
 -13  -2   4 1545.99 225.463   1
 -13   2   4 1455.63 227.742   1
 -13  -2   5 687.801 169.478   1
 -13   2   5 857.838 178.087   1
 -13  -2   6 2154.33 259.716   1
 -13   2   6 2090.45 261.002   1
 -13   2   7 80.0647 124.852   1
 -13  -2   7 168.411 144.516   1
 -13  -2   8 500.864 167.456   1
 -13   3  -3 258.179 118.695   1
 -13   3  -3 40.2600 107.912   3
 -13  -3  -2 9507.30 535.474   2
 -13   3  -2 9580.60 521.586   3
 -13   3  -2 9542.86 491.911   1
 -13   3  -2 9950.09 567.124   2
 -13   3  -1 322.143 125.624   1
 -13  -3  -1-13.1900 92.8536   3
 -13   3  -1 135.385 122.679   2
 -13  -3  -1 51.8924 102.350   2
 -13   3   0 7030.90 427.908   3
 -13  -3   0 6495.25 430.129   1
 -13  -3   0 6785.14 376.693   3
 -13   3   0 7253.97 460.778   2
 -13  -3   0 6483.25 422.033   2
 -13   3   0 7221.69 435.676   1
 -13  -3   1 449.496 137.855   1
 -13   3   1 734.057 163.495   1
 -13  -3   1 1059.06 192.798   2
 -13  -3   1 1109.19 174.127   3
 -13   3   1 1067.41 196.464   2
 -13   3   2 3028.94 297.092   2
 -13  -3   2 3210.70 307.078   1
 -13   3   2 2898.65 280.577   1
 -13  -3   2 3000.24 291.203   2
 -13   3   3 2303.90 258.901   1
 -13   3   3 1574.77 225.937   2
 -13  -3   3 2132.42 262.236   1
 -13  -3   3 2058.40 235.282   2
 -13  -3   4 4338.49 322.389   2
 -13  -3   4 4524.66 357.369   1
 -13   3   4 4711.65 362.856   1
 -13  -3   5 7906.44 467.626   1
 -13   3   5 8642.37 482.198   1
 -13   3   6 996.254 206.232   1
 -13  -3   6 1159.60 206.484   1
 -13  -3   7 322.587 154.982   1
 -13  -3   8 61.9083 114.171   1
 -13   4  -3 609.327 184.154   3
 -13   4  -3 503.204 156.651   1
 -13   4  -2 996.621 225.706   2
 -13   4  -2 847.460 178.931   1
 -13   4  -2 665.724 170.530   3
 -13  -4  -2 737.042 183.812   2
 -13  -4  -1 4003.50 337.299   2
 -13   4  -1 4902.19 399.394   2
 -13   4  -1 3998.19 327.357   1
 -13   4  -1 3551.05 325.096   3
 -13   4   0 980.792 202.908   2
 -13   4   0 626.531 158.187   3
 -13   4   0 741.068 171.344   1
 -13  -4   0 800.527 178.674   2
 -13  -4   1 654.236 157.522   2
 -13  -4   1 995.667 156.726   3
 -13   4   1 632.100 162.752   1
 -13  -4   1 592.729 161.876   1
 -13   4   1 525.730 150.124   2
 -13  -4   2 9214.77 498.501   1
 -13   4   2 8962.24 491.124   2
 -13  -4   2 9440.19 478.712   2
 -13   4   2 9796.94 493.964   1
 -13  -4   3 1441.76 220.485   1
 -13  -4   3 1433.30 194.734   2
 -13   4   3 1550.33 221.174   1
 -13   4   3 1349.03 210.420   2
 -13  -4   4 8239.33 436.621   2
 -13   4   4 7993.01 462.894   1
 -13  -4   4 7772.88 469.636   1
 -13   4   5 187.485 125.985   1
 -13  -4   5 238.579 146.041   1
 -13  -4   6-146.761 133.144   1
 -13   4   6 254.175 150.526   1
 -13  -4   7 451.306 161.763   1
 -13  -4   8 737.855 185.880   1
 -13   5  -3 990.773 180.400   1
 -13   5  -3 1025.00 211.288   3
 -13   5  -2 428.796 133.381   1
 -13   5  -2 646.462 163.901   3
 -13   5  -1 161.176 129.064   1
 -13   5  -1 384.249 164.124   3
 -13  -5  -1 48.2825 102.099   2
 -13   5   0 138.598 108.690   3
 -13   5   0-116.922 136.399   1
 -13  -5   0 14.4253 103.727   2
 -13   5   0 270.228 148.674   2
 -13   5   1 811.067 169.530   1
 -13   5   1 732.556 170.047   2
 -13  -5   1 743.331 164.479   2
 -13  -5   1 641.070 172.357   1
 -13  -5   2-143.127 114.335   2
 -13   5   2 13.9412 91.3656   1
 -13  -5   2-76.9832 115.634   1
 -13   5   2-7.88782 113.951   2
 -13   5   3 530.690 163.323   2
 -13  -5   3 140.663 124.218   1
 -13   5   3 409.653 142.604   1
 -13  -5   3 152.705 89.3187   2
 -13  -5   4 27.8752 84.4164   2
 -13  -5   4-80.3516 112.858   1
 -13   5   4 148.294 117.033   1
 -13  -5   5 3486.93 289.115   2
 -13  -5   5 3581.02 331.652   1
 -13   5   5 4032.15 342.721   1
 -13  -5   6 1323.04 219.302   1
 -13  -5   7 5957.53 417.618   1
 -13  -5   8 514.976 171.113   1
 -13   6  -2 1693.53 223.654   1
 -13   6  -2 2355.00 284.015   3
 -13  -6  -1 11295.9 557.845   2
 -13   6  -1 10849.2 558.905   3
 -13   6   0 442.662 152.872   3
 -13   6   0 55.8071 97.0140   1
 -13  -6   0 312.616 140.048   2
 -13   6   0 633.060 175.467   2
 -13   6   1 7091.15 461.296   2
 -13  -6   1 6883.64 417.784   2
 -13   6   1 7035.46 417.740   1
 -13   6   2 64.5759 110.317   1
 -13  -6   2 123.232 148.500   1
 -13  -6   2 158.763 112.921   2
 -13   6   2-64.7615 105.033   2
 -13   6   3 1674.65 222.153   1
 -13  -6   3 1593.24 238.088   1
 -13  -6   3 1468.74 198.997   2
 -13   6   3 1501.72 218.624   2
 -13  -6   4 211.997 145.685   1
 -13   6   4 251.042 134.000   1
 -13  -6   4 122.171 98.2202   2
 -13  -6   5 3100.21 303.598   1
 -13   6   5 3765.83 331.176   1
 -13  -6   5 3847.87 302.590   2
 -13  -6   6 174.336 122.476   1
 -13  -6   7 2210.68 268.525   1
 -13  -6   8 4646.06 380.395   1
 -13   7  -2 6734.03 401.489   1
 -13   7  -2 7085.28 471.300   3
 -13   7  -1 801.454 200.492   3
 -13   7  -1 811.824 170.086   1
 -13   7  -1 859.473 208.975   2
 -13  -7  -1 593.782 149.913   2
 -13  -7   0 5321.78 379.104   2
 -13   7   0 5482.81 374.239   1
 -13   7   0 5374.14 397.794   3
 -13  -7   1 153.406 129.016   2
 -13   7   1-68.7535 97.8256   1
 -13   7   1 23.0202 132.699   2
 -13  -7   2 1820.96 219.749   2
 -13   7   2 1945.10 229.405   1
 -13   7   2 1966.45 252.951   2
 -13  -7   2 2830.39 298.297   1
 -13  -7   3 143.840 116.443   2
 -13  -7   3-120.139 122.693   1
 -13   7   3 264.015 127.511   1
 -13   7   3 138.533 121.298   2
 -13  -7   4 5516.27 348.680   2
 -13  -7   4 5619.50 404.793   1
 -13   7   4 6092.13 408.529   1
 -13  -7   5 2302.73 265.189   1
 -13  -7   5 2562.85 247.431   2
 -13  -7   6 0.16428 122.484   1
 -13  -7   7 607.465 156.610   1
 -13   8  -2 304.071 148.616   3
 -13  -8  -2 459.121 133.360   5
 -13   8  -1 8887.40 547.043   2
 -13  -8  -1 8179.30 426.743   5
 -13   8  -1 8830.35 526.407   3
 -13   8  -1 7947.70 435.639   1
 -13  -8   0 1642.68 220.898   2
 -13   8   0 2091.18 277.271   2
 -13   8   0 2075.76 263.813   3
 -13   8   0 1683.09 207.446   1
 -13   8   1 15311.8 676.755   2
 -13  -8   1 14468.7 587.661   2
 -13   8   1 14463.7 592.619   1
 -13  -8   2 964.202 164.236   2
 -13   8   2 835.805 156.818   1
 -13  -8   2 1127.44 202.393   1
 -13   8   2 972.826 202.042   2
 -13   8   3 6044.55 401.960   1
 -13  -8   3 5085.19 386.823   1
 -13  -8   3 5318.75 343.305   2
 -13   8   3 6267.50 437.098   2
 -13  -8   4 342.094 143.472   1
 -13  -8   4 35.9420 87.5232   2
 -13   8   4 58.7301 118.710   1
 -13  -8   5-337.660 164.993   1
 -13  -8   6-256.739 119.700   1
 -13  -8   6 217.604 105.327   2
 -13  -8   7 354.970 153.467   1
 -13  -8   8 236.921 150.243   1
 -13  -9  -3 3141.79 307.302   5
 -13  -9  -2-11.8274 101.374   5
 -13   9  -1 48.4492 143.718   3
 -13   9  -1 408.257 142.484   1
 -13  -9  -1 216.835 118.362   5
 -13   9   0 4847.62 397.241   2
 -13   9   0 5136.57 355.868   1
 -13  -9   0 5218.78 339.288   5
 -13  -9   0 5308.29 364.204   2
 -13  -9   1 3104.65 255.360   5
 -13   9   1 3415.21 334.899   2
 -13  -9   1 2993.71 276.873   2
 -13   9   1 2986.02 282.224   1
 -13   9   2 3330.82 330.047   2
 -13   9   2 2624.79 270.634   1
 -13  -9   2 3317.52 278.565   2
 -13  -9   3 7892.56 476.369   1
 -13  -9   3 7728.55 404.005   2
 -13   9   3 8676.25 511.533   2
 -13   9   3 8084.38 457.787   1
 -13  -9   4 70.1578 84.8924   2
 -13  -9   4-42.1506 115.550   1
 -13  -9   5 4736.27 378.519   1
 -13  -9   6 115.777 120.638   1
 -13  -9   7 6299.68 437.962   1
 -13 -10  -3 458.912 155.864   5
 -13 -10  -2 1910.66 243.504   5
 -13  10  -1 302.026 142.175   3
 -13 -10  -1 216.845 123.624   5
 -13  10  -1 184.078 118.745   1
 -13  10   0 53.2659 152.786   2
 -13 -10   0 151.889 129.837   2
 -13 -10   0 38.0174 99.3721   5
 -13  10   0 142.445 111.508   1
 -13 -10   1 42.9885 109.737   2
 -13 -10   1 159.246 110.732   5
 -13  10   1-43.5813 117.113   2
 -13  10   1 105.005 129.480   1
 -13  10   2 5825.02 384.655   1
 -13 -10   2 5880.66 349.409   5
 -13  10   2 6296.69 446.286   2
 -13 -10   2 6160.58 375.354   2
 -13 -10   3 261.369 145.050   1
 -13  10   3 151.438 130.668   2
 -13 -10   4 3857.28 342.775   1
 -13 -10   5-35.2368 109.278   1
 -13 -10   6 1201.42 222.686   1
 -13 -10   7 721.516 200.816   1
 -13 -11  -2 9244.55 500.816   5
 -13 -11  -1 177.889 111.065   5
 -13  11   0 10074.7 489.054   1
 -13 -11   0 10121.5 484.663   5
 -13 -11   1 3062.29 277.317   5
 -13  11   1 2775.14 279.660   1
 -13  11   1 2571.64 309.481   2
 -13 -11   2 2786.06 257.714   5
 -13  11   2 2902.37 324.012   2
 -13 -11   3 2726.83 240.796   5
 -13 -11   3 3112.84 317.015   1
 -13  11   3 2791.23 317.259   2
 -13 -11   4 1232.14 202.351   1
 -13 -11   5 4754.98 384.238   1
 -13 -11   7 8819.20 513.012   1
 -13 -12  -2 305.916 139.459   5
 -13 -12  -1 4764.74 355.406   5
 -13  12   0 134.391 124.362   1
 -13 -12   0-113.722 116.592   5
 -13 -12   1 16206.3 608.578   5
 -13 -12   2 765.306 153.824   5
 -13  12   2 380.942 150.889   2
 -13 -12   3 3712.33 288.054   5
 -13 -12   3 3962.42 362.605   1
 -13  12   3 3759.97 363.322   2
 -13 -12   4 647.797 178.038   1
 -13 -12   5 1162.59 214.769   1
 -13 -12   6 130.629 133.743   1
 -13 -13  -2 3686.86 333.850   5
 -13 -13  -1 927.793 182.260   5
 -13 -13   0 7160.23 427.456   5
 -13 -13   1 1539.70 220.382   5
 -13 -13   2 7210.83 409.785   5
 -13 -13   3 1575.77 192.586   5
 -13 -13   4 873.487 205.924   1
 -13 -13   5 2371.19 295.136   1
 -13 -14  -1 2132.79 254.184   5
 -13 -14   0 2216.88 255.345   5
 -13 -14   1 2424.71 260.646   5
 -13 -14   2 2144.93 242.995   5
 -13 -14   3 843.574 167.152   5
 -13 -15  -1 374.760 156.233   5
 -13 -15   0 114.978 121.760   5
 -13 -15   1 3994.19 332.604   5
 -13 -15   2 147.206 102.575   5
 -13 -15   3 8006.31 451.282   5
 -13 -16   0 179.443 135.803   5
 -13 -16   1 6091.58 411.342   5
 -13 -16   2 1392.39 217.941   5
 -13 -16   3 257.839 131.509   5
 -13 -17   1 1078.56 204.542   5
 -13 -17   2 4595.80 362.425   5
 -13 -17   3 6637.05 432.898   5
 -13 -18   2 2205.17 266.807   5
 -13 -18   3 3993.40 342.674   5
 -12   0  -5 208.057 157.643   3
 -12   0  -4 2460.62 269.355   3
 -12   0  -3 185.638 144.704   2
 -12   0  -3 174.484 121.987   3
 -12   0  -2 31394.0 848.512   3
 -12   0  -2 33152.0 951.759   2
 -12   0  -1-21.8815 90.4492   3
 -12   0  -1-100.858 133.623   2
 -12   0   0 33291.8 897.564   2
 -12   0   0 33933.1 831.805   3
 -12   0   0 33643.0 872.399   1
 -12   0   1 95.3053 102.523   1
 -12   0   1 131.835 102.401   2
 -12   0   2 23271.0 718.330   2
 -12   0   2 22801.9 718.677   1
 -12   0   3 83.6429 100.576   1
 -12   0   3 289.917 140.177   2
 -12   0   4 10422.7 497.287   1
 -12   0   5 220.621 128.607   1
 -12   0   6 11421.7 538.316   1
 -12   0   7 433.475 160.635   1
 -12  -1  -5 1855.42 247.885   3
 -12   1  -5 1987.13 258.923   3
 -12  -1  -4 1729.74 234.141   3
 -12   1  -4 1631.12 226.303   3
 -12   1  -3 5227.21 383.251   3
 -12  -1  -3 5382.90 410.291   2
 -12  -1  -3 4935.79 316.618   5
 -12  -1  -3 5133.01 363.535   3
 -12   1  -3 5268.33 404.508   2
 -12   1  -2 1278.21 199.309   3
 -12  -1  -2 1662.63 216.737   3
 -12  -1  -2 1192.34 210.831   2
 -12  -1  -2 1540.84 177.169   5
 -12   1  -2 1731.93 248.437   2
 -12  -1  -1 1342.66 204.364   2
 -12   1  -1 1160.25 175.830   3
 -12   1  -1 1260.49 195.975   1
 -12   1  -1 1325.04 205.598   2
 -12   1   0 412.774 145.548   1
 -12   1   0 26.0586 80.8823   3
 -12  -1   0 394.512 139.428   2
 -12   1   0 361.436 150.241   2
 -12  -1   0 328.174 126.651   3
 -12  -1   0 386.050 142.662   1
 -12  -1   1 5470.96 359.997   2
 -12   1   1 5000.18 345.951   1
 -12   1   1 5015.13 350.569   2
 -12  -1   1 5475.74 363.661   1
 -12   1   2 165.106 105.501   2
 -12   1   2-36.6638 99.6653   1
 -12  -1   2 72.0159 101.433   1
 -12  -1   2 110.156 110.070   2
 -12   1   3 8192.86 435.234   1
 -12  -1   3 8825.39 437.612   2
 -12  -1   3 8258.57 440.902   1
 -12   1   3 8134.19 435.022   2
 -12   1   4 4880.70 346.756   1
 -12  -1   4 4724.57 346.573   1
 -12  -1   5 412.061 140.301   1
 -12   1   5 575.612 151.023   1
 -12   1   6 12024.3 549.640   1
 -12  -1   6 12024.2 547.491   1
 -12   1   7 243.438 133.415   1
 -12  -1   7 437.778 163.920   1
 -12  -2  -5 7271.22 430.293   5
 -12   2  -5 8053.72 494.164   3
 -12   2  -4 218.411 139.297   3
 -12  -2  -4 219.628 126.198   3
 -12  -2  -4 235.108 135.320   5
 -12   2  -3 3421.23 341.853   2
 -12  -2  -3 3301.16 294.146   3
 -12  -2  -3 3275.45 266.665   5
 -12   2  -3 3190.04 297.397   3
 -12   2  -2 4646.43 373.769   2
 -12  -2  -2 4436.95 317.065   3
 -12   2  -2 4000.48 315.352   1
 -12  -2  -2 4769.94 297.645   5
 -12   2  -2 4603.36 345.909   3
 -12  -2  -2 4782.81 364.207   2
 -12   2  -1 402.754 119.714   3
 -12  -2  -1 687.119 122.230   5
 -12   2  -1 721.598 168.418   1
 -12  -2  -1 621.750 124.507   3
 -12   2  -1 649.448 165.153   2
 -12  -2  -1 783.343 165.863   2
 -12  -2   0 11050.5 462.206   3
 -12   2   0 11719.5 516.203   1
 -12   2   0 11992.4 549.257   2
 -12  -2   0 11211.9 396.227   5
 -12  -2   0 11358.1 520.954   2
 -12   2   0 11327.0 495.303   3
 -12   2   1 2853.00 272.211   1
 -12  -2   1 3283.30 287.346   2
 -12  -2   1 2985.42 282.565   1
 -12   2   1 2863.43 276.628   2
 -12  -2   2 31.9030 111.860   1
 -12   2   2-76.1032 113.463   1
 -12  -2   2 46.5116 89.9344   2
 -12   2   2 69.4606 96.4237   2
 -12  -2   3 2754.54 254.920   2
 -12   2   3 2570.02 251.384   1
 -12  -2   3 2441.22 256.885   1
 -12   2   3 2760.71 264.083   2
 -12  -2   4 233.544 143.693   1
 -12   2   4 71.4065 122.265   1
 -12   2   5 19024.2 668.788   1
 -12  -2   5 18232.1 657.998   1
 -12  -2   6 4691.71 356.456   1
 -12   2   6 4686.19 352.732   1
 -12   2   7 7509.63 446.890   1
 -12  -2   7 7508.61 445.545   1
 -12  -2   8 705.649 188.598   1
 -12  -3  -5 240.937 114.619   5
 -12   3  -4 8956.65 513.355   3
 -12  -3  -4 9892.08 495.922   3
 -12  -3  -4 9538.17 468.715   5
 -12   3  -4 8915.14 462.279   1
 -12   3  -3 296.053 139.935   1
 -12  -3  -3 233.456 102.984   5
 -12   3  -3 297.657 141.842   2
 -12  -3  -3 481.338 141.572   3
 -12   3  -3 312.044 131.359   3
 -12  -3  -2 284.120 122.974   2
 -12   3  -2 444.507 139.940   3
 -12   3  -2 239.836 151.460   2
 -12  -3  -2 305.602 109.390   3
 -12   3  -2 533.852 154.188   1
 -12  -3  -2 266.975 89.8478   5
 -12   3  -1 9161.31 455.231   1
 -12  -3  -1 8806.85 385.973   5
 -12  -3  -1 8274.77 404.910   3
 -12   3  -1 8330.06 481.535   2
 -12   3  -1 8484.28 450.065   3
 -12  -3  -1 8441.70 464.107   2
 -12   3   0 2478.38 260.068   1
 -12   3   0 1842.17 219.374   3
 -12  -3   0 2007.11 204.237   3
 -12  -3   0 2055.47 240.323   2
 -12   3   0 2093.02 246.185   2
 -12  -3   0 2108.28 187.503   5
 -12   3   1 14873.6 573.918   1
 -12  -3   1 13992.3 578.474   1
 -12  -3   1 14147.1 560.470   2
 -12   3   1 13775.5 582.806   2
 -12  -3   1 14330.5 502.699   3
 -12  -3   1 14701.8 436.208   5
 -12   3   2 1458.00 204.693   2
 -12   3   2 1218.85 185.926   1
 -12  -3   2 1155.52 189.851   1
 -12  -3   2 1213.19 178.140   2
 -12  -3   3 0.13849 115.218   1
 -12  -3   3 234.925 124.364   2
 -12   3   3 196.759 120.532   1
 -12   3   3-3.10909 87.2637   2
 -12   3   4 16039.7 608.448   1
 -12  -3   4 15685.4 614.496   1
 -12  -3   5 822.390 171.568   1
 -12   3   5 980.290 182.673   1
 -12  -3   6 5924.55 385.909   1
 -12   3   6 6536.69 417.125   1
 -12  -3   7 4732.42 357.119   1
 -12  -3   8 14397.9 622.287   1
 -12  -4  -5 5250.19 377.935   5
 -12   4  -4 2101.15 234.900   1
 -12   4  -4 2066.98 264.596   3
 -12  -4  -4 2122.19 234.745   5
 -12   4  -3 2077.93 258.794   3
 -12   4  -3 2237.80 248.155   1
 -12   4  -3 1963.90 267.708   2
 -12  -4  -3 2010.34 217.596   3
 -12  -4  -3 1999.40 218.406   5
 -12   4  -2 2555.08 253.846   1
 -12  -4  -2 2627.32 239.690   5
 -12   4  -2 2580.11 295.715   2
 -12   4  -2 2764.16 286.914   3
 -12  -4  -2 2496.98 230.924   3
 -12  -4  -2 2729.04 277.674   2
 -12   4  -1 418.051 149.934   2
 -12  -4  -1 547.809 117.278   5
 -12   4  -1 452.240 137.578   1
 -12   4  -1 517.336 155.932   3
 -12  -4  -1 355.368 103.273   3
 -12  -4  -1 439.283 139.494   2
 -12   4   0 6216.22 406.283   2
 -12  -4   0 6198.01 336.577   3
 -12  -4   0 6259.51 386.941   2
 -12   4   0 6251.72 379.911   1
 -12  -4   0 6098.27 313.074   5
 -12  -4   1 516.230 121.398   3
 -12  -4   1 425.103 98.5745   5
 -12   4   1 459.725 141.477   2
 -12  -4   1 563.147 153.123   2
 -12   4   1 460.175 133.709   1
 -12   4   2 9391.39 461.305   1
 -12   4   2 9152.56 467.664   2
 -12  -4   2 9613.74 448.217   2
 -12  -4   2 9292.24 344.899   5
 -12  -4   2 9284.64 477.009   1
 -12   4   3 155.239 100.820   1
 -12  -4   3 48.0392 104.510   1
 -12  -4   3 148.842 94.1115   2
 -12  -4   4 6858.84 378.377   2
 -12  -4   4 6501.64 400.629   1
 -12   4   4 6562.38 398.696   1
 -12  -4   5 1510.71 214.924   1
 -12   4   5 2140.33 246.861   1
 -12   4   6 1592.98 222.715   1
 -12  -4   6 1678.40 227.628   1
 -12  -4   7 2292.36 261.556   1
 -12  -4   8 476.563 153.702   1
 -12  -5  -5 151.997 137.791   5
 -12   5  -4 163.958 116.141   3
 -12  -5  -4 175.648 115.551   5
 -12   5  -3 4863.57 386.966   3
 -12   5  -3 4472.14 320.978   1
 -12  -5  -3 4534.56 325.065   5
 -12   5  -3 4741.94 398.366   2
 -12  -5  -2 171.703 94.4799   3
 -12  -5  -2 68.0078 91.9817   5
 -12   5  -2 203.512 125.979   3
 -12   5  -2-126.702 108.938   1
 -12  -5  -2-212.136 153.253   2
 -12   5  -2-10.7455 113.798   2
 -12   5  -1 11951.8 509.616   1
 -12   5  -1 11573.8 544.882   3
 -12  -5  -1 12109.7 545.892   2
 -12   5  -1 12842.6 598.815   2
 -12  -5  -1 12091.0 465.157   5
 -12   5   0 326.857 118.705   1
 -12  -5   0 359.756 103.167   5
 -12   5   0 295.962 130.365   2
 -12  -5   0 534.481 124.156   3
 -12  -5   0 195.393 110.472   2
 -12  -5   1 10787.1 488.992   2
 -12  -5   1 11169.5 410.878   5
 -12   5   1 10846.3 488.390   1
 -12  -5   1 11252.0 430.307   3
 -12   5   1 11496.4 536.259   2
 -12  -5   2 2207.61 228.732   2
 -12  -5   2 2151.35 246.222   1
 -12  -5   2 2286.04 188.830   5
 -12   5   2 2261.29 242.412   2
 -12   5   2 2147.98 234.016   1
 -12  -5   3 5402.00 330.547   2
 -12  -5   3 5988.54 383.198   1
 -12  -5   3 5878.33 273.606   5
 -12   5   3 5569.99 361.677   1
 -12  -5   4 1236.58 184.097   2
 -12  -5   4 1114.65 193.442   1
 -12   5   4 1343.76 208.051   1
 -12   5   5 10317.8 506.870   1
 -12  -5   5 10486.5 506.257   1
 -12  -5   6 103.408 116.444   1
 -12  -5   7 4743.70 359.306   1
 -12  -5   8 1251.78 207.945   1
 -12  -6  -5 3335.41 312.631   5
 -12  -6  -4 5607.88 384.625   5
 -12   6  -4 5710.36 427.252   3
 -12   6  -3 5455.85 347.632   1
 -12   6  -3 6194.07 430.592   3
 -12  -6  -3 5855.36 371.328   5
 -12   6  -3 5765.43 434.293   2
 -12   6  -2 3611.46 323.131   3
 -12   6  -2 3472.03 340.310   2
 -12   6  -2 3765.95 298.286   1
 -12  -6  -2 3228.06 267.194   5
 -12   6  -1 1323.79 206.966   3
 -12  -6  -1 1090.28 179.356   2
 -12   6  -1 1120.27 173.821   1
 -12   6  -1 1157.75 211.795   2
 -12  -6  -1 1246.99 166.883   5
 -12  -6   0 8020.06 370.957   5
 -12  -6   0 8143.78 364.076   3
 -12   6   0 8631.05 484.739   2
 -12  -6   0 8545.37 447.338   2
 -12   6   0 8409.09 427.537   1
 -12  -6   1 758.821 121.033   5
 -12  -6   1 818.508 135.955   3
 -12   6   1 543.649 153.549   2
 -12  -6   1 884.006 166.840   2
 -12   6   1 719.076 149.832   1
 -12  -6   2 6599.56 371.136   2
 -12   6   2 6023.27 366.840   1
 -12   6   2 6007.78 394.434   2
 -12  -6   2 6087.33 395.281   1
 -12  -6   2 6040.55 299.839   5
 -12  -6   3 169.510 80.4077   5
 -12  -6   3-17.9441 93.9955   2
 -12  -6   3-138.284 128.855   1
 -12   6   3 34.6575 94.7326   1
 -12  -6   4 11102.2 522.994   1
 -12  -6   4 11450.4 469.294   2
 -12  -6   4 11348.9 389.314   5
 -12   6   4 11474.0 517.940   1
 -12   6   5 1202.75 205.277   1
 -12  -6   5 1351.53 202.680   1
 -12  -6   6 2391.30 261.054   1
 -12  -6   7 9972.06 507.375   1
 -12  -6   8 779.065 180.121   1
 -12  -6   9 3097.95 311.847   1
 -12  -7  -5 452.340 125.031   5
 -12   7  -4 4303.70 387.857   3
 -12  -7  -4 3613.63 322.821   5
 -12   7  -3 328.040 128.560   3
 -12   7  -3 365.962 131.871   1
 -12  -7  -3 457.851 150.897   5
 -12   7  -3 188.247 141.925   2
 -12   7  -2 2682.86 290.020   3
 -12   7  -2 2519.02 247.452   1
 -12  -7  -2 2448.20 235.953   5
 -12   7  -2 2448.96 292.481   2
 -12   7  -1 3783.71 336.328   2
 -12  -7  -1 3528.33 294.643   2
 -12  -7  -1 3146.40 257.028   5
 -12   7  -1 3522.87 319.893   3
 -12   7  -1 3085.35 261.287   1
 -12   7   0 2611.25 252.650   1
 -12  -7   0 2965.19 242.487   5
 -12   7   0 2740.42 288.464   2
 -12  -7   0 3509.47 294.325   2
 -12  -7   1 340.153 115.243   2
 -12  -7   1 380.806 92.6806   5
 -12   7   1 532.822 131.203   1
 -12   7   1 662.446 164.995   2
 -12  -7   2 929.134 155.397   2
 -12  -7   2 1254.98 157.630   5
 -12   7   2 1119.00 203.184   2
 -12   7   2 859.952 160.075   1
 -12  -7   3-33.2429 80.6487   2
 -12  -7   3 60.6882 115.505   1
 -12  -7   3-28.0668 63.6199   5
 -12   7   3 152.602 107.023   1
 -12   7   4 2711.40 273.734   1
 -12  -7   4 1994.81 246.512   1
 -12  -7   4 2804.88 244.426   2
 -12  -7   4 2361.75 194.595   5
 -12  -7   5-146.612 116.277   1
 -12  -7   6 1713.80 233.355   1
 -12  -7   7 109.892 114.176   1
 -12  -7   8 10856.9 538.024   1
 -12  -7   9 188.458 141.025   1
 -12  -8  -5 3933.14 346.042   5
 -12  -8  -4 560.213 146.931   5
 -12   8  -3 4126.02 374.069   2
 -12  -8  -3 3769.78 316.114   5
 -12   8  -3 4266.19 375.832   3
 -12   8  -2 385.883 141.797   3
 -12  -8  -2 210.782 99.3014   5
 -12   8  -2 331.848 140.548   2
 -12   8  -2 155.345 101.608   1
 -12  -8  -1 3394.82 288.359   2
 -12   8  -1 3976.69 343.605   3
 -12   8  -1 3647.94 282.422   1
 -12  -8  -1 3450.11 272.552   5
 -12   8  -1 3631.60 343.381   2
 -12   8   0 6215.15 428.857   2
 -12  -8   0 5856.03 363.217   2
 -12  -8   0 5702.59 332.757   5
 -12   8   0 5494.00 346.763   1
 -12  -8   1 197.129 119.909   2
 -12   8   1 180.858 127.039   1
 -12   8   1 408.757 152.480   2
 -12  -8   1 220.026 99.0094   5
 -12   8   2 70.8336 99.3459   2
 -12  -8   2-29.9839 85.7693   2
 -12  -8   2 43.7040 72.6680   5
 -12   8   2-14.9472 92.0367   1
 -12   8   3 2898.28 264.350   1
 -12  -8   3 2771.33 277.487   1
 -12  -8   3 2699.62 238.801   2
 -12  -8   3 2310.62 200.933   5
 -12   8   4 476.761 137.120   1
 -12  -8   4 302.795 98.3322   2
 -12  -8   4 218.589 116.165   1
 -12  -8   5 1930.94 197.247   2
 -12  -8   5 1963.03 235.579   1
 -12  -8   6 896.070 178.657   1
 -12  -8   7 8250.68 466.374   1
 -12  -8   8 1806.49 239.921   1
 -12  -8   9 12061.7 582.956   1
 -12  -9  -4 469.499 163.005   5
 -12  -9  -3 1803.04 229.679   5
 -12   9  -3 1709.57 265.319   3
 -12  -9  -2 2921.98 273.697   5
 -12   9  -2 2293.08 230.759   1
 -12   9  -2 2550.06 293.105   3
 -12   9  -1 2992.38 318.639   2
 -12   9  -1 2536.19 241.609   1
 -12   9  -1 2850.55 305.478   3
 -12  -9  -1 2668.70 251.324   5
 -12   9   0 543.061 146.865   1
 -12  -9   0 482.402 132.200   5
 -12  -9   0 634.256 142.156   2
 -12   9   0 1006.33 202.847   2
 -12   9   1 14929.7 637.722   2
 -12  -9   1 14727.3 521.568   5
 -12   9   1 14802.3 563.503   1
 -12  -9   2 2737.68 239.182   2
 -12   9   2 2455.31 275.208   2
 -12   9   2 2590.82 246.727   1
 -12  -9   2 2896.88 231.274   5
 -12  -9   3 6611.14 339.658   5
 -12   9   3 7443.21 419.541   1
 -12  -9   3 7098.16 438.186   1
 -12  -9   3 7158.14 368.583   2
 -12  -9   4 5824.65 328.459   2
 -12  -9   4 5792.27 398.504   1
 -12  -9   5 2723.68 273.212   1
 -12  -9   5 2637.59 227.820   2
 -12  -9   6 1267.05 196.221   1
 -12  -9   7 2511.15 274.652   1
 -12  -9   8 1196.16 203.792   1
 -12  -9   9 2678.31 293.208   1
 -12 -10  -4 1090.93 194.540   5
 -12 -10  -3 2400.74 260.736   5
 -12  10  -3 2492.68 308.659   3
 -12 -10  -2 5789.12 377.510   5
 -12  10  -2 5647.47 437.342   2
 -12  10  -2 6016.14 441.549   3
 -12  10  -1 370.184 147.906   2
 -12  10  -1 268.152 113.468   1
 -12 -10  -1 260.540 113.956   5
 -12  10   0 8064.22 488.375   2
 -12 -10   0 7862.52 410.885   2
 -12 -10   0 7550.09 397.558   5
 -12  10   0 7738.57 403.589   1
 -12 -10   1 1281.05 179.672   2
 -12  10   1 1107.54 211.649   2
 -12  10   1 1050.84 178.652   1
 -12 -10   1 1246.30 178.714   5
 -12  10   2 4033.18 306.826   1
 -12 -10   2 3898.15 277.588   5
 -12 -10   2 4391.33 297.731   2
 -12  10   2 4484.51 365.458   2
 -12 -10   3 262.119 96.8718   2
 -12 -10   3 241.161 100.917   5
 -12 -10   4 3959.18 268.662   2
 -12 -10   4 4075.72 342.059   1
 -12 -10   5 222.020 124.878   1
 -12 -10   6 765.776 166.442   1
 -12 -10   7 617.000 157.796   1
 -12 -10   8 618.889 160.008   1
 -12 -10   9 249.811 137.286   1
 -12 -11  -4 3150.16 314.784   5
 -12 -11  -3 5799.68 402.993   5
 -12  11  -2 756.277 181.558   3
 -12  11  -2 651.116 177.057   2
 -12 -11  -2 571.630 139.801   5
 -12  11  -1 6991.55 382.630   1
 -12 -11  -1 7202.27 411.982   5
 -12  11  -1 7314.28 476.310   3
 -12  11  -1 7818.87 493.109   2
 -12  11   0 513.680 165.051   2
 -12 -11   0 446.595 135.100   5
 -12  11   0 419.167 120.825   1
 -12 -11   1 10572.6 468.408   5
 -12  11   1 11446.1 563.131   2
 -12 -11   1 10804.7 457.865   2
 -12  11   1 10662.4 486.769   1
 -12 -11   2 6086.41 352.349   5
 -12  11   2 6278.16 429.660   2
 -12 -11   2 6915.24 362.832   2
 -12 -11   3 11642.2 452.316   2
 -12 -11   3 10911.4 457.981   5
 -12 -11   4 816.268 188.447   1
 -12 -11   5 3450.42 304.630   1
 -12 -11   6 1631.91 226.719   1
 -12 -11   7 498.820 155.104   1
 -12 -11   8 2015.43 252.992   1
 -12 -11   9 200.968 148.227   1
 -12 -12  -3 5255.30 384.378   5
 -12  12  -2 164.048 115.750   3
 -12 -12  -2 99.0940 99.6581   5
 -12  12  -1 3051.18 320.624   3
 -12  12  -1 3654.57 354.473   2
 -12  12  -1 3160.67 261.784   1
 -12 -12  -1 3149.76 285.627   5
 -12 -12   0 264.317 115.090   5
 -12  12   0 381.267 165.181   2
 -12  12   0 98.5864 91.1112   1
 -12  12   1 518.936 165.333   2
 -12 -12   1 525.147 142.510   5
 -12 -12   2 33.4645 95.4745   5
 -12  12   2 256.743 140.570   2
 -12 -12   3 944.011 160.759   5
 -12 -12   4 12.7251 110.953   1
 -12 -12   5 2453.76 271.284   1
 -12 -12   6 694.963 172.184   1
 -12 -12   7 2656.42 275.467   1
 -12 -12   8 200.563 142.313   1
 -12 -12   9 4724.29 372.153   1
 -12 -13  -3 109.046 121.883   5
 -12 -13  -2 903.807 186.150   5
 -12  13  -1 33.3485 125.825   3
 -12 -13  -1 23.4760 99.9098   5
 -12  13  -1 138.624 125.284   2
 -12 -13   0 1662.00 219.292   5
 -12  13   0 1964.74 267.214   2
 -12  13   1 3421.94 331.446   2
 -12 -13   1 3170.87 274.519   5
 -12 -13   2 1695.69 214.171   5
 -12  13   2 2054.36 266.487   2
 -12 -13   4 599.300 164.927   1
 -12 -13   5 141.220 109.805   1
 -12 -13   6 3179.72 301.843   1
 -12 -13   7 515.983 154.777   1
 -12 -13   8 9238.35 504.435   1
 -12 -13   9 521.400 171.864   1
 -12 -14  -3 1233.80 215.701   5
 -12 -14  -2 15241.6 646.191   5
 -12  14  -1 155.357 123.404   3
 -12  14  -1 271.349 158.565   2
 -12 -14  -1 320.599 132.854   5
 -12 -14   0 4563.56 344.715   5
 -12  14   0 4800.79 394.804   2
 -12 -14   1 112.074 95.6271   5
 -12  14   1 132.644 112.338   2
 -12  14   2 10681.6 569.121   2
 -12 -14   2 9963.62 476.461   5
 -12 -14   4 13380.0 610.251   1
 -12 -14   5 268.616 128.457   1
 -12 -14   6 1931.93 251.719   1
 -12 -14   7 2982.30 296.464   1
 -12 -14   8 538.745 153.418   1
 -12 -15  -2 52.2138 126.665   5
 -12 -15  -1 496.869 151.510   5
 -12 -15   0 93.1209 121.154   5
 -12  15   0 138.060 134.896   2
 -12 -15   1 1340.52 207.007   5
 -12  15   1 1144.70 218.752   2
 -12 -15   2 1584.58 207.441   5
 -12  15   2 1756.73 260.363   2
 -12 -15   4 837.305 177.427   1
 -12 -15   5 4394.65 359.028   1
 -12 -15   6 1086.17 193.439   1
 -12 -15   8-31.2412 115.137   1
 -12 -16  -1 249.886 123.359   5
 -12 -16   0 5230.47 383.913   5
 -12  16   1 710.547 188.297   2
 -12 -16   1 675.172 169.562   5
 -12 -16   2 1940.24 244.009   5
 -12  16   2 1863.24 265.586   2
 -12 -16   5 3885.84 344.255   1
 -12 -16   6 1002.17 185.906   1
 -12 -16   7 795.668 176.013   1
 -12 -16   8 2013.39 259.202   1
 -12 -17  -1 650.244 154.559   5
 -12 -17   0 1189.68 210.395   5
 -12 -17   1 584.757 166.181   5
 -12 -17   2 128.556 113.691   5
 -12  17   2 158.891 132.367   2
 -12 -17   5 599.244 182.077   1
 -12 -17   6 2266.94 258.831   1
 -12 -17   7-91.2981 126.928   1
 -12 -18   0 1569.44 218.136   5
 -12 -18   1 4821.60 376.546   5
 -12 -18   2 925.623 178.644   5
 -12 -18   5 229.115 139.146   1
 -12 -18   6 825.990 192.712   1
 -12 -19   1 3454.86 320.999   5
 -12 -19   2 658.384 164.818   5
 -11   0  -7-78.9541 108.185   5
 -11   0  -6 5214.78 373.448   5
 -11   0  -5 58.9504 125.765   3
 -11   0  -5-5.23944 91.4853   5
 -11   0  -4 19052.1 610.370   5
 -11   0  -4 18543.0 679.193   3
 -11   0  -3 101.306 112.214   3
 -11   0  -3 52.7259 112.932   2
 -11   0  -3 211.028 106.490   5
 -11   0  -2 40896.7 1000.48   2
 -11   0  -2 37898.5 889.722   3
 -11   0  -2 38958.5 768.345   5
 -11   0  -1 98.1750 78.7729   5
 -11   0  -1 251.481 128.892   2
 -11   0  -1 137.233 88.0579   3
 -11   0   0 11794.4 462.939   3
 -11   0   0 12231.8 372.025   5
 -11   0   0 11710.8 490.972   1
 -11   0   0 12421.7 515.645   2
 -11   0   1-63.1115 95.5468   1
 -11   0   1 74.5492 98.1510   2
 -11   0   1 89.7609 54.3407   5
 -11   0   2 1738.87 203.379   1
 -11   0   2 1739.34 120.887   5
 -11   0   2 2071.09 215.267   2
 -11   0   3 71.9521 43.4525   5
 -11   0   3-47.8089 94.1633   1
 -11   0   4 4595.59 325.694   1
 -11   0   5-38.9753 93.5451   1
 -11   0   6-28.2450 106.473   1
 -11   0   7 84.7255 107.755   1
 -11   1  -6 58.0695 110.595   5
 -11  -1  -6 140.939 121.960   5
 -11  -1  -5 9228.87 492.059   3
 -11   1  -5 8867.02 448.246   5
 -11  -1  -5 9146.34 458.686   5
 -11   1  -5 8973.49 497.662   3
 -11  -1  -4 186.035 104.159   5
 -11   1  -4 64.1311 92.5399   5
 -11   1  -4 289.129 136.743   3
 -11  -1  -4 206.752 123.424   3
 -11   1  -3 11958.9 567.194   2
 -11  -1  -3 11023.3 446.922   5
 -11  -1  -3 11495.0 504.045   3
 -11   1  -3 11631.6 524.939   3
 -11   1  -3 11259.5 436.980   5
 -11  -1  -3 12143.1 568.013   2
 -11   1  -2 6579.86 421.202   2
 -11  -1  -2 6813.48 417.399   2
 -11  -1  -2 6288.47 318.478   5
 -11  -1  -2 6061.76 351.988   3
 -11   1  -2 6369.58 310.823   5
 -11   1  -2 6990.91 390.771   3
 -11  -1  -1 16101.7 610.959   2
 -11  -1  -1 16127.7 472.739   5
 -11  -1  -1 16125.8 550.383   3
 -11   1  -1 15908.5 445.362   5
 -11   1  -1 16940.4 582.095   3
 -11   1  -1 16297.0 612.797   2
 -11   1   0 7386.73 408.104   2
 -11   1   0 7231.66 386.756   1
 -11   1   0 7033.13 274.447   5
 -11  -1   0 7295.21 395.879   2
 -11  -1   0 7093.25 295.004   5
 -11  -1   0 7157.46 355.673   3
 -11   1   1 11401.8 475.361   1
 -11   1   1 11329.3 488.406   2
 -11   1   1 11301.5 308.836   5
 -11  -1   1 11459.6 483.446   2
 -11  -1   1 11119.6 336.571   5
 -11  -1   1 11570.6 488.234   1
 -11  -1   2 8591.95 276.298   5
 -11   1   2 9049.53 428.400   2
 -11   1   2 9109.58 246.151   5
 -11  -1   2 8991.93 415.748   2
 -11   1   2 9033.95 426.846   1
 -11  -1   2 8846.30 423.125   1
 -11  -1   3 296.454 67.0246   5
 -11   1   3 212.681 123.966   1
 -11  -1   3 291.269 139.941   1
 -11  -1   4 9264.44 443.058   1
 -11   1   4 9418.29 445.267   1
 -11  -1   4 9524.46 262.156   5
 -11  -1   5 7393.05 401.944   1
 -11   1   5 6588.81 385.526   1
 -11   1   6 148.820 108.793   1
 -11  -1   6 266.178 124.111   1
 -11  -1   7 7379.43 413.973   1
 -11   1   7 7507.41 419.551   1
 -11  -2  -6 2916.99 279.938   5
 -11   2  -6 2902.50 277.033   5
 -11   2  -5 3227.68 313.617   3
 -11   2  -5 3046.67 269.301   5
 -11  -2  -5 3084.40 281.168   5
 -11  -2  -5 3931.15 329.167   3
 -11   2  -4 3825.12 275.724   5
 -11  -2  -4 3819.51 287.662   5
 -11  -2  -4 4253.72 319.006   3
 -11   2  -4 4123.14 341.180   3
 -11   2  -3 1533.95 217.467   3
 -11   2  -3 1514.37 241.215   2
 -11  -2  -3 1329.11 190.803   3
 -11  -2  -3 1177.45 169.027   5
 -11  -2  -3 1690.44 228.704   2
 -11   2  -3 1414.21 167.409   5
 -11   2  -2 4284.66 351.170   2
 -11   2  -2 3836.47 235.402   5
 -11   2  -2 3535.59 289.779   3
 -11  -2  -2 3431.70 265.710   3
 -11  -2  -2 3806.05 257.322   5
 -11  -2  -2 3526.57 298.767   2
 -11   2  -1 3035.83 262.215   1
 -11  -2  -1 3226.78 289.926   2
 -11   2  -1 2747.88 248.817   3
 -11  -2  -1 3190.56 249.828   3
 -11   2  -1 3001.96 281.101   2
 -11   2  -1 3184.63 202.902   5
 -11  -2  -1 3333.58 229.681   5
 -11   2   0 2540.15 233.491   1
 -11  -2   0 2541.14 215.893   3
 -11   2   0 2733.67 261.147   2
 -11   2   0 2587.37 163.414   5
 -11  -2   0 2595.72 188.740   5
 -11  -2   0 2646.93 251.800   2
 -11   2   1 11026.9 480.295   2
 -11  -2   1 10802.8 473.837   1
 -11   2   1 10429.2 279.458   5
 -11   2   1 10694.0 459.469   1
 -11  -2   1 10964.9 464.313   2
 -11  -2   1 10708.0 347.568   5
 -11  -2   2 308.436 109.256   2
 -11   2   2 328.472 115.343   2
 -11   2   2 389.762 113.506   1
 -11  -2   2 378.762 70.7087   5
 -11  -2   2 433.949 111.943   1
 -11  -2   3 31623.5 804.955   1
 -11   2   3 32597.7 803.133   1
 -11  -2   3 32806.4 776.749   2
 -11  -2   3 31485.6 531.590   5
 -11   2   4 200.711 112.184   1
 -11  -2   4 97.0005 48.9226   5
 -11  -2   4 230.599 123.322   1
 -11  -2   5 10772.5 481.128   1
 -11   2   5 10659.1 476.440   1
 -11  -2   6 3236.92 284.845   1
 -11   2   6 3348.07 284.613   1
 -11  -2   7 4840.91 341.073   1
 -11  -2   8 1105.43 194.560   1
 -11   3  -6 6660.91 407.968   5
 -11  -3  -6 6615.03 427.181   5
 -11   3  -6 7167.88 475.881   3
 -11  -3  -5 265.486 123.493   5
 -11   3  -5 347.448 114.691   5
 -11   3  -5 485.204 162.142   3
 -11   3  -4 144.268 105.252   5
 -11   3  -4 456.969 160.831   2
 -11  -3  -4 274.800 129.819   3
 -11   3  -4 67.1508 107.599   3
 -11  -3  -4 178.455 108.749   5
 -11   3  -3 14955.0 605.057   3
 -11   3  -3 15693.6 655.181   2
 -11  -3  -3 14761.7 553.745   3
 -11   3  -3 14619.3 486.188   5
 -11  -3  -3 14936.5 534.021   5
 -11  -3  -2 2029.57 239.214   2
 -11  -3  -2 2399.51 212.395   5
 -11   3  -2 2446.04 271.298   2
 -11   3  -2 2023.54 225.115   3
 -11   3  -2 2128.36 221.549   1
 -11  -3  -2 2076.48 210.679   3
 -11   3  -2 2065.59 177.552   5
 -11  -3  -1 6655.70 319.269   5
 -11  -3  -1 6712.70 345.887   3
 -11   3  -1 6791.58 414.886   2
 -11   3  -1 6712.36 276.091   5
 -11   3  -1 6244.10 359.380   1
 -11   3  -1 6287.53 374.446   3
 -11  -3  -1 6652.78 390.926   2
 -11   3   0 6204.83 234.096   5
 -11   3   0 6410.04 388.377   2
 -11  -3   0 6233.85 293.384   5
 -11   3   0 6413.89 364.948   1
 -11  -3   0 6378.28 329.089   3
 -11  -3   0 6197.95 365.587   2
 -11  -3   1 4974.89 324.058   2
 -11   3   1 4562.23 304.912   1
 -11  -3   1 4730.11 244.676   5
 -11   3   1 4882.95 334.229   2
 -11  -3   2 10468.8 476.198   1
 -11   3   2 11637.9 499.524   2
 -11   3   2 10799.5 464.859   1
 -11  -3   2 11627.1 355.401   5
 -11  -3   2 10934.3 449.627   2
 -11  -3   3 162.930 107.178   1
 -11  -3   3 140.547 64.6933   5
 -11  -3   3 171.932 104.069   2
 -11   3   3 147.663 99.1556   1
 -11   3   4 19322.3 628.364   1
 -11  -3   4 19168.9 429.708   5
 -11  -3   4 18823.5 630.750   1
 -11   3   5 443.207 131.665   1
 -11  -3   5 629.967 148.126   1
 -11   3   6 11309.1 506.605   1
 -11  -3   6 10944.2 494.460   1
 -11  -3   7 4533.17 328.317   1
 -11  -3   8 452.786 138.546   1
 -11   4  -6 10768.2 583.049   3
 -11  -4  -6 9851.58 524.754   5
 -11  -4  -5 810.196 167.669   5
 -11   4  -5 1116.47 206.466   3
 -11   4  -5 906.024 168.218   5
 -11  -4  -4 11805.3 511.880   5
 -11   4  -4 11852.5 572.178   3
 -11  -4  -4 11728.4 503.559   3
 -11   4  -4 11181.6 454.467   5
 -11  -4  -3 1277.66 179.406   5
 -11   4  -3 1125.95 206.641   2
 -11   4  -3 1207.64 151.975   5
 -11   4  -3 1428.80 216.110   3
 -11   4  -3 1456.75 189.126   1
 -11   4  -2 9549.40 508.763   2
 -11  -4  -2 8923.76 399.359   5
 -11   4  -2 9281.17 474.615   3
 -11  -4  -2 9281.53 468.917   2
 -11   4  -2 8289.60 406.578   1
 -11  -4  -2 9423.90 419.469   3
 -11   4  -2 8933.64 341.134   5
 -11  -4  -1 68.0507 65.9152   3
 -11  -4  -1 200.605 100.650   5
 -11   4  -1 133.918 101.861   2
 -11  -4  -1-12.8813 88.4567   2
 -11   4  -1 255.794 122.066   3
 -11   4  -1-43.2560 88.8674   1
 -11  -4   0 7397.26 394.590   2
 -11  -4   0 7144.32 337.786   3
 -11   4   0 7508.96 382.647   1
 -11  -4   0 7459.75 329.839   5
 -11   4   0 7640.19 422.147   2
 -11  -4   1 3283.98 269.508   2
 -11   4   1 3324.32 277.966   2
 -11   4   1 3008.18 248.649   1
 -11  -4   1 2892.15 201.425   5
 -11  -4   2 1564.01 147.114   5
 -11   4   2 1523.80 204.780   2
 -11  -4   2 1202.45 174.928   1
 -11  -4   2 1464.32 183.532   2
 -11   4   2 1497.72 186.740   1
 -11  -4   3 5828.78 331.662   2
 -11  -4   3 5374.20 247.937   5
 -11  -4   3 5697.30 350.752   1
 -11   4   3 5661.54 341.903   1
 -11   4   4 1025.16 173.650   1
 -11  -4   4 743.463 153.118   1
 -11  -4   5 11811.3 507.208   1
 -11   4   5 12167.1 512.169   1
 -11   4   6 2755.66 265.103   1
 -11  -4   6 2570.58 250.654   1
 -11  -4   7 327.556 131.125   1
 -11  -4   8 4911.72 355.110   1
 -11  -5  -6 637.133 166.791   5
 -11  -5  -5 10901.3 524.778   5
 -11   5  -5 11763.5 597.251   3
 -11   5  -4 1914.44 250.994   3
 -11   5  -4 2089.04 271.969   2
 -11  -5  -4 1814.83 223.576   5
 -11   5  -4 1664.60 200.372   1
 -11   5  -3 29269.0 906.206   2
 -11  -5  -3 26332.0 731.346   5
 -11   5  -3 28348.7 853.450   3
 -11  -5  -3 28313.4 727.677   3
 -11   5  -3 27334.1 722.597   1
 -11   5  -2 188.271 111.806   1
 -11  -5  -2 561.786 136.858   5
 -11  -5  -2 341.102 111.997   2
 -11  -5  -2 302.858 103.007   3
 -11   5  -2 535.893 145.738   3
 -11   5  -1 15643.2 543.675   1
 -11  -5  -1 14767.7 494.590   5
 -11  -5  -1 15673.4 502.574   3
 -11   5  -1 15748.7 621.029   2
 -11  -5  -1 15996.0 587.637   2
 -11   5   0 998.313 177.178   2
 -11  -5   0 1095.10 175.653   2
 -11  -5   0 1136.82 153.348   3
 -11   5   0 1061.81 160.813   1
 -11  -5   0 1066.71 144.939   5
 -11  -5   1 7688.29 387.451   2
 -11   5   1 7527.41 411.277   2
 -11  -5   1 7707.88 330.085   5
 -11  -5   1 7621.52 331.545   3
 -11   5   1 7434.06 382.730   1
 -11   5   2 1163.48 172.767   1
 -11  -5   2 1107.28 158.983   2
 -11  -5   2 1171.86 133.783   5
 -11   5   2 1325.19 195.002   2
 -11   5   3 3047.85 261.304   1
 -11  -5   3 2808.36 259.182   1
 -11  -5   3 2865.97 235.365   2
 -11  -5   3 3059.75 197.276   5
 -11   5   4-1.32791 89.8487   1
 -11  -5   4 162.765 119.573   1
 -11  -5   5 1131.16 184.727   1
 -11   5   5 1286.08 197.896   1
 -11  -5   6 647.210 146.502   1
 -11  -5   7 2806.79 273.099   1
 -11  -5   8 635.985 165.035   1
 -11  -6  -6 9732.86 530.172   5
 -11   6  -5 366.782 141.744   3
 -11  -6  -5 514.479 143.281   5
 -11   6  -4 8333.62 402.727   1
 -11  -6  -4 7939.30 438.336   5
 -11   6  -4 8774.52 524.703   2
 -11   6  -3 276.145 118.835   1
 -11   6  -3 277.011 138.896   3
 -11  -6  -3 318.439 121.936   3
 -11   6  -3 263.121 143.495   2
 -11  -6  -3-1.73912 86.5806   5
 -11  -6  -2 19413.3 568.453   3
 -11   6  -2 21022.3 752.851   2
 -11  -6  -2 18688.7 594.301   5
 -11  -6  -2 19641.6 672.579   2
 -11   6  -2 19298.1 689.300   3
 -11   6  -2 18133.2 585.601   1
 -11   6  -1 1922.01 239.364   2
 -11   6  -1 2017.44 234.734   3
 -11  -6  -1 1994.26 183.247   3
 -11  -6  -1 1850.38 184.543   5
 -11   6  -1 2258.95 222.085   1
 -11  -6  -1 2067.82 218.597   2
 -11   6   0 20263.6 613.477   1
 -11  -6   0 21409.4 552.109   3
 -11  -6   0 21592.1 659.701   2
 -11   6   0 22896.5 730.417   2
 -11  -6   0 21681.0 581.688   5
 -11  -6   1 17662.2 505.560   5
 -11  -6   1 18251.1 495.124   3
 -11  -6   1 18410.4 586.072   2
 -11   6   1 18059.9 637.304   2
 -11   6   1 17949.4 584.092   1
 -11  -6   2 21497.4 611.454   2
 -11   6   2 20768.8 685.647   2
 -11   6   2 20765.1 635.138   1
 -11  -6   2 21499.6 537.454   5
 -11  -6   3 15551.8 509.825   2
 -11  -6   3 16075.5 457.615   5
 -11   6   3 16567.3 572.943   1
 -11  -6   3 16549.3 608.522   1
 -11  -6   4 3730.13 305.937   1
 -11   6   4 3990.05 305.337   1
 -11   6   5 3135.25 272.749   1
 -11  -6   5 3248.51 278.628   1
 -11  -6   6 170.880 119.088   1
 -11  -6   7 354.056 148.414   1
 -11  -6   8 3156.94 285.561   1
 -11  -7  -6 7359.17 463.118   5
 -11  -7  -5 1909.08 241.427   5
 -11   7  -5 2277.95 284.075   3
 -11  -7  -4 2915.04 280.266   5
 -11   7  -4 2641.07 304.958   3
 -11   7  -4 2990.18 318.583   2
 -11   7  -3 1396.69 176.492   1
 -11   7  -3 1387.40 226.882   3
 -11  -7  -3 1463.94 199.318   5
 -11   7  -3 1303.52 217.963   2
 -11   7  -2 991.935 156.269   1
 -11   7  -2 1187.99 200.477   3
 -11   7  -2 944.042 198.013   2
 -11  -7  -2 1096.65 168.956   5
 -11   7  -1 802.101 136.525   1
 -11  -7  -1 809.829 143.437   2
 -11   7  -1 1217.29 192.123   3
 -11   7  -1 1242.30 205.591   2
 -11  -7  -1 1207.99 161.117   5
 -11  -7  -1 1127.80 139.046   3
 -11  -7   0 4429.84 279.659   5
 -11  -7   0 4884.87 262.110   3
 -11   7   0 4374.64 293.867   1
 -11  -7   0 4757.55 316.377   2
 -11   7   0 4981.56 355.603   2
 -11  -7   1 493.480 95.3579   3
 -11  -7   1 520.851 117.820   5
 -11   7   1 463.832 151.548   2
 -11   7   1 537.519 129.434   1
 -11  -7   1 689.447 138.748   2
 -11   7   2 15778.0 596.777   2
 -11  -7   2 15089.4 466.522   5
 -11  -7   2 14905.4 507.810   2
 -11   7   2 15139.5 544.530   1
 -11  -7   3 2600.03 252.346   1
 -11  -7   3 2587.05 194.751   5
 -11   7   3 2657.43 242.947   1
 -11  -7   3 2527.06 215.803   2
 -11   7   4 17017.6 598.564   1
 -11  -7   4 16970.8 608.589   1
 -11  -7   4 16676.1 522.662   2
 -11  -7   5 203.484 134.918   1
 -11  -7   6 11520.2 514.510   1
 -11  -7   7 464.868 145.350   1
 -11  -7   8 2173.20 241.249   1
 -11  -7   9 323.933 132.106   1
 -11  -8  -5 787.617 181.401   5
 -11   8  -5 845.179 197.011   3
 -11   8  -4 5585.30 422.243   2
 -11   8  -4 5722.95 431.445   3
 -11  -8  -4 5590.15 381.618   5
 -11  -8  -3 144.120 123.260   5
 -11   8  -3 318.825 158.033   3
 -11   8  -3-160.002 115.650   2
 -11   8  -3 214.651 107.195   1
 -11   8  -2 6983.84 432.843   3
 -11  -8  -2 7402.58 393.035   5
 -11   8  -2 7054.21 362.944   1
 -11   8  -2 8175.00 484.423   2
 -11   8  -1 11820.9 541.140   3
 -11   8  -1 10934.9 449.908   1
 -11  -8  -1 11429.6 466.910   5
 -11  -8  -1 11958.9 496.046   2
 -11   8  -1 12362.1 566.197   2
 -11   8   0 5958.38 396.748   2
 -11   8   0 5832.39 337.058   1
 -11  -8   0 6620.64 343.244   5
 -11  -8   0 6559.95 291.196   3
 -11  -8   0 6652.47 364.250   2
 -11  -8   1 29981.0 738.411   2
 -11  -8   1 29269.7 582.919   3
 -11   8   1 30424.7 837.005   2
 -11  -8   1 28640.2 679.980   5
 -11   8   1 29955.2 750.401   1
 -11  -8   2 218.375 106.910   2
 -11   8   2-11.0468 99.0228   1
 -11   8   2 271.266 132.552   2
 -11  -8   2 158.932 67.3607   5
 -11  -8   2 79.4544 56.0476   3
 -11  -8   3 5100.44 295.877   2
 -11   8   3 5161.84 328.226   1
 -11  -8   4 1876.91 218.129   1
 -11  -8   4 2291.37 199.087   2
 -11   8   4 2148.32 222.100   1
 -11  -8   5 5436.94 361.169   1
 -11  -8   6 2203.54 242.263   1
 -11  -8   7 8634.89 452.123   1
 -11  -8   8 5451.62 365.267   1
 -11  -8   9 811.868 178.038   1
 -11  -9  -5 4666.23 366.605   5
 -11  -9  -4 145.287 121.617   5
 -11   9  -4 145.648 146.533   2
 -11   9  -4 418.504 170.112   3
 -11   9  -3 22371.8 624.549   1
 -11   9  -3 21708.0 785.163   3
 -11   9  -3 22303.5 819.901   2
 -11  -9  -3 21172.9 699.764   5
 -11   9  -2 1277.32 211.294   3
 -11  -9  -2 1303.28 192.116   5
 -11   9  -2 1459.50 180.789   1
 -11   9  -2 1257.60 230.147   2
 -11   9  -1 12693.4 579.075   2
 -11   9  -1 13863.1 592.630   3
 -11  -9  -1 12796.1 504.117   5
 -11   9  -1 12983.8 483.185   1
 -11   9   0 9370.00 490.708   2
 -11   9   0 8974.88 413.160   1
 -11  -9   0 9062.94 412.271   5
 -11  -9   0 9113.62 418.872   2
 -11   9   1 1905.57 204.044   1
 -11  -9   1 1982.91 195.538   5
 -11   9   1 1414.07 214.932   2
 -11  -9   1 2272.95 214.980   2
 -11   9   2 4170.79 327.404   2
 -11   9   2 4367.37 296.233   1
 -11  -9   2 3830.24 253.026   5
 -11  -9   2 4439.29 275.529   2
 -11  -9   3 358.249 104.621   2
 -11   9   3 326.713 106.065   1
 -11  -9   4 1179.01 189.425   1
 -11  -9   4 1268.41 153.097   2
 -11  -9   5 3491.85 289.053   1
 -11  -9   6 4556.87 336.773   1
 -11  -9   7 2292.19 249.972   1
 -11  -9   8 3739.00 309.393   1
 -11  -9   9 4622.21 349.691   1
 -11 -10  -5 155.072 133.469   5
 -11 -10  -4 15985.3 642.211   5
 -11  10  -4 18041.0 763.200   2
 -11  10  -4 16932.4 732.759   3
 -11 -10  -3 355.422 144.316   5
 -11  10  -3 652.029 176.458   3
 -11  10  -3 899.776 207.234   2
 -11 -10  -2 15191.1 581.029   5
 -11  10  -2 15487.1 655.327   3
 -11  10  -2 15116.2 514.396   1
 -11  10  -1 5436.60 318.574   1
 -11 -10  -1 5319.00 335.457   5
 -11  10  -1 5289.09 379.061   3
 -11  10  -1 6017.31 408.602   2
 -11  10   0 27878.7 714.756   1
 -11  10   0 29336.0 861.086   2
 -11 -10   0 28238.4 734.123   5
 -11 -10   0 30246.5 745.678   2
 -11  10   1 0.71206 105.785   2
 -11  10   1 74.2169 90.5783   1
 -11 -10   1 103.420 84.3905   5
 -11 -10   1 250.441 96.3720   2
 -11 -10   2 743.305 134.702   5
 -11  10   2 472.602 111.658   1
 -11  10   2 844.535 175.588   2
 -11 -10   2 790.379 135.019   2
 -11 -10   3 636.914 119.407   2
 -11 -10   4 195.197 101.950   1
 -11 -10   4 346.383 94.3356   2
 -11 -10   5 564.322 113.226   2
 -11 -10   5 660.097 152.985   1
 -11 -10   6 1249.02 189.957   1
 -11 -10   7 474.239 138.378   1
 -11 -10   8 5071.54 358.656   1
 -11 -11  -5 12795.7 613.954   5
 -11 -11  -4 3914.99 335.163   5
 -11  11  -4 3945.97 370.174   3
 -11  11  -4 3935.79 367.717   2
 -11  11  -3 7623.00 487.812   3
 -11 -11  -3 6979.49 423.550   5
 -11  11  -3 8032.63 509.242   2
 -11  11  -2 474.738 106.748   1
 -11  11  -2 481.643 161.374   2
 -11 -11  -2 555.468 147.742   5
 -11  11  -2 602.089 163.872   3
 -11 -11  -1 9612.30 458.510   5
 -11  11  -1 9229.61 408.089   1
 -11  11  -1 9161.68 501.889   3
 -11  11  -1 9285.92 508.358   2
 -11 -11   0 3167.93 249.625   2
 -11  11   0 2959.80 243.796   1
 -11  11   0 3181.04 309.352   2
 -11 -11   0 3042.71 257.875   5
 -11 -11   1 866.522 139.405   2
 -11  11   1 880.590 187.938   2
 -11 -11   1 858.523 148.706   5
 -11  11   1 867.002 177.731   1
 -11  11   2 4866.89 354.837   2
 -11 -11   2 4917.82 282.762   2
 -11 -11   2 4590.61 291.069   5
 -11 -11   3 297.773 90.2232   2
 -11 -11   4 4205.77 328.092   1
 -11 -11   4 4087.44 250.242   2
 -11 -11   5 480.163 107.264   2
 -11 -11   5 319.847 123.446   1
 -11 -11   6 9.28480 109.059   1
 -11 -11   7 3667.77 310.065   1
 -11 -11   8 752.804 168.356   1
 -11 -11   9 1645.65 229.379   1
 -11 -12  -4 523.851 165.840   5
 -11  12  -3 64.3155 118.752   2
 -11  12  -3 9.05326 105.263   3
 -11 -12  -3 59.1235 111.337   5
 -11  12  -2 2226.58 275.896   2
 -11  12  -2 2014.13 268.442   3
 -11 -12  -2 2105.82 234.774   5
 -11 -12  -1 4177.62 313.113   5
 -11  12  -1 4218.33 353.953   3
 -11  12  -1 4445.61 363.425   2
 -11  12  -1 4271.60 281.780   1
 -11  12   0 626.508 170.450   2
 -11 -12   0 472.159 124.904   5
 -11 -12   1 31968.5 719.916   2
 -11 -12   1 28944.0 751.527   5
 -11  12   1 31367.2 895.345   2
 -11 -12   2-91.8555 109.559   5
 -11  12   2 191.850 135.754   2
 -11 -12   2 11.5997 71.3290   2
 -11 -12   4 381.482 145.822   1
 -11 -12   5 3238.37 283.056   1
 -11 -12   6 3443.99 299.748   1
 -11 -12   7 8600.73 457.377   1
 -11 -12   8 1992.17 242.671   1
 -11 -12   9 152.363 123.262   1
 -11 -13  -4 5477.65 413.863   5
 -11  13  -3 2733.90 307.208   2
 -11  13  -3 2696.97 312.203   3
 -11 -13  -3 2277.10 256.359   5
 -11  13  -2 1004.16 199.933   2
 -11  13  -2 1061.57 214.963   3
 -11 -13  -2 741.005 158.528   5
 -11  13  -1 2358.56 274.834   2
 -11  13  -1 2716.60 292.904   3
 -11 -13  -1 2323.19 244.425   5
 -11 -13   0 17545.7 618.213   5
 -11  13   0 17975.2 700.253   2
 -11  13   1 704.039 169.488   2
 -11 -13   1 1060.41 176.546   5
 -11  13   2 8503.77 471.156   2
 -11 -13   2 7823.42 397.953   5
 -11 -13   5 4080.69 323.687   1
 -11 -13   6 7482.15 432.805   1
 -11 -13   7 1571.25 217.141   1
 -11 -13   8 650.249 158.885   1
 -11 -13   9 118.618 117.696   1
 -11 -14  -4 11302.2 583.811   5
 -11 -14  -3 495.173 159.914   5
 -11  14  -3 343.949 157.042   3
 -11  14  -3 420.813 159.474   2
 -11  14  -2 3139.91 332.235   2
 -11  14  -2 2663.70 300.147   3
 -11 -14  -2 2455.88 262.417   5
 -11  14  -1 4444.95 372.716   2
 -11  14  -1 4349.62 369.727   3
 -11 -14  -1 4040.54 323.738   5
 -11  14   0 15851.3 662.334   2
 -11 -14   0 15325.9 592.370   5
 -11  14   1 10396.0 527.040   2
 -11 -14   1 9981.92 469.289   5
 -11  14   2 527.243 149.051   2
 -11 -14   5 4916.97 358.607   1
 -11 -14   6 2397.78 255.529   1
 -11 -14   7 3787.03 315.393   1
 -11 -14   8 3933.47 318.621   1
 -11 -14   9 2612.26 275.761   1
 -11 -15  -3 11421.4 571.233   5
 -11  15  -2-41.5181 127.010   2
 -11 -15  -2-87.1471 113.640   5
 -11  15  -2 205.182 136.984   3
 -11 -15  -1 11297.1 533.140   5
 -11  15  -1 11744.5 588.161   2
 -11  15  -1 11630.9 594.825   3
 -11 -15   0 45.9479 105.878   5
 -11  15   0 235.097 145.708   2
 -11 -15   1 8889.91 452.695   5
 -11  15   1 10048.0 533.108   2
 -11  15   2 401.939 137.333   2
 -11 -15   5 6344.14 409.036   1
 -11 -15   6-61.5213 118.094   1
 -11 -15   7 6705.21 411.686   1
 -11 -15   8 392.414 154.183   1
 -11 -15   9 3116.95 294.085   1
 -11 -16  -3 651.563 174.451   5
 -11  16  -2 9707.16 554.049   2
 -11 -16  -2 8061.06 472.866   5
 -11  16  -2 9339.36 559.626   3
 -11 -16  -1 118.634 107.817   5
 -11  16  -1 14.1704 114.507   2
 -11  16  -1 276.176 149.940   3
 -11  16   0 1957.65 261.039   2
 -11 -16   0 2208.72 255.601   5
 -11  16   1 361.159 131.447   2
 -11 -16   1 241.890 122.547   5
 -11  16   2-22.8755 108.688   2
 -11 -16   5 4042.05 339.175   1
 -11 -16   7 1031.78 196.633   1
 -11 -16   8 768.985 158.817   1
 -11 -16   9 895.699 177.693   1
 -11 -17  -2 2341.01 276.675   5
 -11  17  -2 2342.46 302.773   2
 -11  17  -1 1993.64 259.935   2
 -11 -17  -1 2189.66 260.178   5
 -11 -17   0 7292.85 437.538   5
 -11  17   0 7254.01 473.220   2
 -11 -17   1 119.792 115.020   5
 -11  17   1-52.0890 122.206   2
 -11  17   2 6061.07 424.344   2
 -11 -17   5 183.508 133.084   1
 -11 -17   6 1654.12 215.238   1
 -11 -17   7 468.188 149.132   1
 -11 -17   8 365.648 131.430   1
 -11 -18  -2 589.763 177.390   5
 -11  18  -1 1994.61 273.193   2
 -11 -18  -1 1256.64 205.078   5
 -11  18   0 2598.06 295.075   2
 -11 -18   0 2732.15 283.650   5
 -11  18   1 9709.28 538.627   2
 -11 -18   1 9811.76 510.788   5
 -11  18   2 3691.56 337.577   2
 -11 -18   5 15342.3 639.060   1
 -11 -18   6 821.931 177.869   1
 -11 -18   7 3207.75 299.735   1
 -11 -18   8 267.072 128.262   1
 -11 -19  -1 10100.7 545.686   5
 -11 -19   0 3884.67 340.533   5
 -11  19   0 3885.71 360.424   2
 -11 -19   1 1523.57 215.718   5
 -11  19   1 2029.37 263.324   2
 -11  19   2 12090.7 602.193   2
 -11 -19   5 1214.24 202.316   1
 -11 -19   6-24.7025 121.519   1
 -11 -19   7 342.348 137.243   1
 -11 -19   8 1438.86 213.955   1
 -11 -20   0 6033.88 421.025   5
 -11  20   0 6448.75 451.640   2
 -11  20   1 1211.00 203.266   2
 -11 -20   1 1335.41 214.182   5
 -11  20   2 3384.54 339.454   2
 -11 -20   5 265.820 137.379   1
 -11 -20   6 1301.13 206.715   1
 -11 -20   7 126.966 131.079   1
 -11 -21   1-67.0598 132.308   5
 -11  21   2 218.521 143.376   2
 -11 -21   5 1120.36 188.334   1
 -11 -22   5 1674.53 239.704   1
 -11 -22   6 1648.88 246.867   1
 -10   0  -7 138.359 114.734   5
 -10   0  -6 2238.88 238.948   5
 -10   0  -5-71.9732 96.6085   3
 -10   0  -5 217.485 117.029   5
 -10   0  -4 518.021 125.286   3
 -10   0  -4 424.364 119.300   5
 -10   0  -3 11.7109 91.5396   2
 -10   0  -3 99.2156 85.9231   5
 -10   0  -3 158.695 85.9500   3
 -10   0  -2 7905.21 338.047   5
 -10   0  -2 7985.89 394.939   3
 -10   0  -2 8689.20 443.847   2
 -10   0  -1-3.85188 59.2203   5
 -10   0  -1 66.3256 71.1662   3
 -10   0  -1 24.5181 84.5260   2
 -10   0   0 3632.31 280.070   2
 -10   0   0 3321.81 195.025   5
 -10   0   1-164.059 113.226   1
 -10   0   1 87.0553 83.5024   2
 -10   0   1-41.3548 47.6121   5
 -10   0   2 19334.4 585.691   1
 -10   0   2 19168.6 371.625   5
 -10   0   2 19901.5 582.650   2
 -10   0   3 15.8446 94.5758   1
 -10   0   3 66.5708 35.8459   5
 -10   0   4 47984.8 929.067   1
 -10   0   4 46909.2 519.519   5
 -10   0   5 310.258 134.259   1
 -10   0   6 15891.8 559.669   1
 -10   0   7 248.899 128.044   1
 -10   1  -7 10122.8 521.680   5
 -10  -1  -7 10742.2 542.743   5
 -10   1  -6 1354.76 211.523   3
 -10   1  -6 1435.87 201.711   5
 -10  -1  -6 1193.50 188.546   5
 -10  -1  -5 8714.29 437.797   5
 -10   1  -5 8843.88 467.802   3
 -10  -1  -5 8648.37 455.586   3
 -10   1  -5 7930.23 411.159   5
 -10  -1  -4 4378.19 311.007   3
 -10   1  -4 4543.80 333.723   3
 -10   1  -4 3853.07 270.959   5
 -10  -1  -4 4165.67 289.011   5
 -10   1  -3 490.252 103.132   5
 -10   1  -3 662.571 149.970   3
 -10   1  -3 713.256 160.932   2
 -10  -1  -3 581.073 140.737   2
 -10  -1  -3 665.097 125.806   5
 -10  -1  -3 811.775 144.860   3
 -10   1  -2 19646.5 668.809   2
 -10   1  -2 18822.7 505.738   5
 -10   1  -2 20019.2 624.828   3
 -10  -1  -2 19396.1 593.535   3
 -10  -1  -2 20627.2 670.279   2
 -10  -1  -2 19093.7 528.396   5
 -10   1  -1 1274.28 169.998   3
 -10  -1  -1 1280.77 183.315   2
 -10  -1  -1 1341.74 147.959   5
 -10   1  -1 1258.55 183.664   2
 -10   1  -1 1127.02 125.608   5
 -10  -1  -1 1211.64 156.501   3
 -10   1   0 32727.3 787.873   2
 -10   1   0 32652.6 558.176   5
 -10  -1   0 32437.0 591.421   5
 -10   1   0 31874.4 744.650   1
 -10  -1   0 32924.5 786.675   2
 -10  -1   1 745.967 96.2853   5
 -10  -1   1 852.153 139.291   2
 -10   1   1 795.380 90.4249   5
 -10   1   1 561.611 115.115   1
 -10   1   1 900.570 155.333   2
 -10   1   2 4886.14 173.666   5
 -10   1   2 5088.67 307.245   2
 -10  -1   2 5188.62 208.623   5
 -10   1   2 4742.13 292.876   1
 -10  -1   2 4857.81 303.412   1
 -10  -1   2 5184.43 305.625   2
 -10  -1   3 6067.65 214.271   5
 -10   1   3 5975.30 174.637   5
 -10   1   3 6047.24 336.650   1
 -10  -1   3 5919.30 333.153   1
 -10  -1   4 214.552 55.6881   5
 -10   1   4 238.334 46.0793   5
 -10  -1   4 300.686 113.090   1
 -10   1   4 311.346 123.207   1
 -10   1   5 42661.7 894.385   1
 -10  -1   5 41987.6 887.102   1
 -10  -1   6 4042.13 294.216   1
 -10   1   6 3855.95 284.673   1
 -10  -1   7 21338.1 658.882   1
 -10   1   7 21349.9 662.055   1
 -10   2  -7 3392.81 315.034   5
 -10  -2  -7 3395.26 317.408   5
 -10   2  -6 1665.96 237.248   3
 -10   2  -6 1731.45 220.301   5
 -10  -2  -6 1401.07 211.575   5
 -10  -2  -5 3474.91 286.370   5
 -10   2  -5 2949.19 280.714   3
 -10  -2  -5 3645.48 305.307   3
 -10   2  -5 3442.90 277.575   5
 -10  -2  -4 355.690 121.806   3
 -10  -2  -4 221.519 84.7196   5
 -10   2  -4 211.513 113.742   3
 -10   2  -4-64.3448 132.570   2
 -10   2  -4 183.464 90.2148   5
 -10   2  -3 12954.9 443.931   5
 -10  -2  -3 12655.2 497.530   3
 -10   2  -3 12991.9 567.384   2
 -10  -2  -3 12600.2 464.531   5
 -10  -2  -3 13066.8 551.287   2
 -10   2  -3 13178.3 530.692   3
 -10   2  -2 2661.94 264.432   2
 -10  -2  -2 2369.33 237.909   2
 -10  -2  -2 2388.50 215.137   3
 -10   2  -2 2193.23 177.887   5
 -10  -2  -2 2761.72 213.582   5
 -10   2  -2 2796.43 245.138   3
 -10  -2  -1 25208.0 713.326   2
 -10   2  -1 24557.5 517.494   5
 -10  -2  -1 24805.2 570.222   5
 -10   2  -1 25214.0 722.914   2
 -10   2  -1 25841.9 689.432   3
 -10  -2  -1 25123.8 635.421   3
 -10   2   0 13914.4 353.418   5
 -10   2   0 13761.6 494.382   1
 -10   2   0 13903.3 523.944   2
 -10  -2   0 14044.4 406.219   5
 -10  -2   0 13698.3 504.814   2
 -10  -2   0 13647.0 449.444   3
 -10  -2   1 40746.8 641.596   5
 -10   2   1 39797.3 515.509   5
 -10   2   1 40648.4 833.590   1
 -10  -2   1 39796.1 828.575   2
 -10   2   1 40772.8 856.307   2
 -10   2   2 1283.45 166.477   1
 -10  -2   2 1404.65 179.536   2
 -10   2   2 1214.09 80.4146   5
 -10  -2   2 1501.79 181.919   1
 -10  -2   2 1359.24 119.912   5
 -10   2   3 12654.3 210.342   5
 -10   2   3 11319.9 197.060   5
 -10  -2   3 13538.0 337.896   5
 -10   2   3 13213.2 485.617   1
 -10  -2   3 13856.7 503.384   1
 -10   2   4 9188.67 159.972   5
 -10   2   4 10755.1 450.693   1
 -10  -2   4 11682.2 470.103   1
 -10  -2   5 8845.05 419.346   1
 -10   2   5 8179.51 402.247   1
 -10   2   5 7702.50 152.223   5
 -10   2   6 161.721 130.350   1
 -10  -2   6 156.936 117.507   1
 -10  -2   7 1868.53 215.055   1
 -10  -3  -7 1438.35 216.392   5
 -10   3  -7 1385.33 213.529   5
 -10   3  -6 9520.20 472.163   5
 -10  -3  -6 10001.0 503.282   5
 -10   3  -6 10606.9 556.824   3
 -10   3  -5 728.191 137.864   5
 -10   3  -5 1217.37 196.916   3
 -10  -3  -5 969.707 164.906   5
 -10  -3  -4 4352.27 303.938   5
 -10   3  -4 4492.87 354.638   2
 -10   3  -4 4271.50 285.173   5
 -10  -3  -4 4416.67 310.556   3
 -10   3  -4 4014.92 321.057   3
 -10   3  -3 155.657 114.135   2
 -10  -3  -3 108.967 96.2480   2
 -10   3  -3 320.880 138.173   3
 -10   3  -3 161.789 83.9409   5
 -10  -3  -3 372.578 109.879   3
 -10  -3  -3 298.502 97.3198   5
 -10   3  -2 23509.9 730.396   2
 -10   3  -2 22027.0 672.927   3
 -10  -3  -2 22075.6 589.301   5
 -10  -3  -2 22800.7 625.248   3
 -10   3  -2 21825.0 520.929   5
 -10  -3  -2 22191.6 686.431   2
 -10  -3  -1 1009.49 135.850   3
 -10   3  -1 1031.39 149.769   1
 -10   3  -1 941.188 112.663   5
 -10  -3  -1 922.766 132.049   5
 -10   3  -1 931.357 154.900   3
 -10  -3  -1 1106.73 165.842   2
 -10   3  -1 1012.04 172.519   2
 -10  -3   0 27776.2 631.955   3
 -10   3   0 28301.5 747.963   2
 -10  -3   0 27930.2 585.590   5
 -10   3   0 26607.6 466.212   5
 -10  -3   0 26725.5 690.386   2
 -10   3   0 27748.9 683.560   1
 -10  -3   1 181.750 72.1965   5
 -10   3   1 116.004 110.921   2
 -10  -3   1 285.978 113.449   2
 -10   3   1 178.189 94.1239   1
 -10   3   1 112.669 35.8741   5
 -10   3   2 49034.5 916.788   1
 -10   3   2 44995.3 411.059   5
 -10  -3   2 48131.3 938.669   1
 -10  -3   2 49650.4 889.543   2
 -10  -3   2 49565.2 696.953   5
 -10   3   3 28.0136 80.4120   1
 -10  -3   3 7.90223 47.7585   5
 -10  -3   3 122.367 90.2403   1
 -10   3   4 12075.6 479.657   1
 -10  -3   4 12773.8 500.934   1
 -10   3   5 1856.64 210.555   1
 -10  -3   5 1868.79 206.846   1
 -10  -3   6 9787.02 449.280   1
 -10   3   6 9865.23 450.813   1
 -10  -3   7-1.79422 98.6226   1
 -10  -3   8 1999.32 225.050   1
 -10  -4  -7 626.919 168.567   5
 -10   4  -7 754.199 188.475   5
 -10  -4  -6 3611.35 313.557   5
 -10   4  -6 3582.84 297.237   5
 -10   4  -5 2619.96 245.144   5
 -10  -4  -5 2663.23 257.618   5
 -10   4  -5 2755.43 286.513   3
 -10  -4  -4 8633.15 418.392   3
 -10  -4  -4 8660.54 425.770   5
 -10   4  -4 8797.09 471.829   3
 -10   4  -4 7916.06 470.220   2
 -10   4  -4 8044.49 373.700   5
 -10   4  -3 5442.51 372.511   2
 -10   4  -3 5387.35 283.882   5
 -10  -4  -3 5202.40 317.650   5
 -10  -4  -3 5561.50 319.724   3
 -10   4  -3 5608.42 366.720   3
 -10  -4  -2 73.5205 68.6722   3
 -10   4  -2 68.0552 61.3420   5
 -10   4  -2 129.302 102.340   3
 -10  -4  -2-42.8450 97.6947   2
 -10  -4  -2 263.413 96.9118   5
 -10   4  -2 80.4039 93.6305   2
 -10   4  -2 69.4967 80.2746   1
 -10  -4  -1 11194.8 404.651   5
 -10   4  -1 10681.4 427.882   1
 -10   4  -1 11149.3 470.838   3
 -10  -4  -1 11552.4 477.025   2
 -10  -4  -1 11660.8 420.445   3
 -10   4  -1 11807.5 503.163   2
 -10   4  -1 11206.4 332.851   5
 -10  -4   0 5700.42 328.493   2
 -10  -4   0 5691.30 288.414   3
 -10   4   0 5584.30 206.473   5
 -10  -4   0 5558.47 274.149   5
 -10   4   0 5915.91 322.683   1
 -10   4   0 5337.26 337.295   2
 -10   4   1 36919.6 838.330   2
 -10   4   1 35628.5 779.123   1
 -10  -4   1 37907.0 791.895   2
 -10  -4   1 36378.4 653.281   5
 -10   4   1 34854.3 413.940   5
 -10   4   2 270.088 111.004   1
 -10  -4   2 457.333 122.881   2
 -10  -4   2 122.136 69.9604   5
 -10   4   3 18354.0 567.748   1
 -10  -4   3 18257.1 584.859   1
 -10   4   4 25858.3 686.583   1
 -10  -4   4 26171.6 701.906   1
 -10  -4   5 1484.22 190.740   1
 -10   4   5 1233.39 185.258   1
 -10  -4   6 60686.2 1085.97   1
 -10  -4   7 1263.43 190.894   1
 -10  -4   8 12508.7 522.309   1
 -10   5  -7 10559.9 520.877   5
 -10  -5  -7 10321.0 545.632   5
 -10  -5  -6 695.451 172.802   5
 -10   5  -6 704.229 147.281   5
 -10   5  -5 3544.05 320.538   3
 -10  -5  -5 3425.93 293.145   5
 -10   5  -5 3297.87 258.858   5
 -10  -5  -4 656.112 150.150   5
 -10   5  -4 825.316 175.429   2
 -10   5  -4 623.656 117.940   5
 -10   5  -4 727.683 161.625   3
 -10   5  -3 6519.46 412.551   2
 -10   5  -3 6626.74 342.466   1
 -10  -5  -3 7134.75 353.998   3
 -10   5  -3 6575.10 400.767   3
 -10   5  -3 6360.61 309.003   5
 -10  -5  -3 6440.35 352.886   5
 -10   5  -2 4433.50 333.242   2
 -10  -5  -2 4365.88 266.007   3
 -10   5  -2 4209.02 225.818   5
 -10  -5  -2 4508.61 283.894   5
 -10  -5  -2 4327.34 306.470   2
 -10   5  -2 4506.07 318.887   3
 -10   5  -2 4406.37 280.314   1
 -10   5  -1 17837.4 406.247   5
 -10   5  -1 18375.3 554.315   1
 -10   5  -1 17709.9 595.657   3
 -10  -5  -1 18485.1 599.974   2
 -10   5  -1 18468.3 633.710   2
 -10  -5  -1 18892.7 516.439   3
 -10  -5  -1 17680.0 519.275   5
 -10   5   0 1909.98 120.234   5
 -10  -5   0 2272.76 214.223   2
 -10  -5   0 2022.07 173.124   3
 -10   5   0 1998.58 192.675   1
 -10  -5   0 1730.44 162.840   5
 -10   5   0 1809.18 205.268   2
 -10  -5   1 6196.50 283.275   5
 -10   5   1 5931.80 151.617   5
 -10   5   1 6897.20 370.577   2
 -10   5   1 6415.17 339.440   1
 -10  -5   1 6269.67 325.036   2
 -10  -5   2 2406.54 200.067   2
 -10  -5   2 2308.35 168.587   5
 -10   5   2 2311.49 214.172   1
 -10  -5   3 31575.8 771.364   1
 -10   5   3 32691.2 762.519   1
 -10  -5   3 32975.2 707.585   2
 -10  -5   4 1527.14 191.324   1
 -10   5   4 1807.31 202.171   1
 -10   5   5 26641.0 722.073   1
 -10  -5   5 27020.2 722.660   1
 -10  -5   6 1843.71 222.340   1
 -10  -5   7 16942.4 585.586   1
 -10  -5   8 3621.03 293.924   1
 -10   6  -7 4365.82 342.298   5
 -10  -6  -7 4436.71 370.414   5
 -10  -6  -6 10195.7 524.846   5
 -10   6  -6 10177.8 555.220   3
 -10   6  -6 9826.95 475.299   5
 -10  -6  -5 349.326 135.857   5
 -10   6  -5 193.659 95.3827   5
 -10   6  -5 146.246 126.125   3
 -10   6  -4 5058.86 381.475   2
 -10   6  -4 4789.59 369.645   3
 -10   6  -4 4928.19 292.011   5
 -10  -6  -4 4897.60 332.525   5
 -10   6  -4 4878.57 291.956   1
 -10   6  -3 2354.57 209.765   1
 -10  -6  -3 2393.11 211.080   3
 -10   6  -3 2131.90 249.682   2
 -10   6  -3 2435.08 256.326   3
 -10  -6  -3 1898.21 204.440   5
 -10   6  -3 1979.33 175.028   5
 -10   6  -2 49.6499 96.3822   2
 -10  -6  -2-13.3068 62.9710   3
 -10  -6  -2 57.7049 80.3454   5
 -10   6  -2 127.758 89.2111   1
 -10   6  -2 195.285 129.729   3
 -10  -6  -2-206.987 118.443   2
 -10   6  -2 11.8371 71.6329   5
 -10  -6  -1 15948.0 549.766   2
 -10   6  -1 15678.9 505.968   1
 -10  -6  -1 15834.7 502.240   5
 -10   6  -1 17096.3 620.015   2
 -10   6  -1 15481.7 370.802   5
 -10  -6  -1 16454.9 475.970   3
 -10  -6   0 536.947 114.238   5
 -10   6   0 420.168 63.0170   5
 -10   6   0 549.305 155.036   2
 -10  -6   0 649.801 138.363   2
 -10  -6   0 508.978 108.636   3
 -10   6   0 632.485 136.089   1
 -10  -6   1 3371.31 245.462   2
 -10   6   1 2304.12 79.0960   5
 -10   6   1 2917.14 233.903   1
 -10  -6   1 3165.90 198.024   3
 -10  -6   1 3040.59 205.550   5
 -10   6   1 3237.60 272.233   2
 -10  -6   2 4229.31 262.978   2
 -10   6   2 4093.32 278.068   1
 -10  -6   2 3952.07 227.187   5
 -10   6   3 19690.4 591.042   1
 -10  -6   3 19784.1 542.186   2
 -10  -6   3 20060.6 623.583   1
 -10  -6   4 15081.9 542.570   1
 -10   6   4 15885.3 546.600   1
 -10  -6   5 4841.52 322.160   1
 -10   6   5 5067.25 324.706   1
 -10  -6   6 21309.5 647.464   1
 -10  -6   7 3536.33 279.088   1
 -10  -6   8 5604.64 350.418   1
 -10   7  -7 4209.57 338.278   5
 -10   7  -6 4496.68 386.217   3
 -10  -7  -6 3807.59 326.738   5
 -10   7  -6 4091.97 312.845   5
 -10   7  -5 2448.25 225.478   5
 -10  -7  -5 2391.63 253.515   5
 -10   7  -5 2584.69 287.371   3
 -10  -7  -4 4608.09 328.492   5
 -10   7  -4 4463.95 362.693   2
 -10   7  -4 4003.29 261.424   1
 -10   7  -4 4273.78 350.676   3
 -10   7  -4 4025.27 265.952   5
 -10   7  -3 219.759 133.215   3
 -10  -7  -3 224.968 105.528   5
 -10   7  -3 76.3590 81.9139   1
 -10   7  -3 98.4496 85.5241   5
 -10   7  -3-33.4920 114.463   2
 -10   7  -2 13760.1 470.472   1
 -10   7  -2 13349.3 558.363   3
 -10  -7  -2 13616.1 438.877   3
 -10  -7  -2 13668.2 499.597   5
 -10   7  -2 13093.5 381.534   5
 -10   7  -2 14363.4 592.170   2
 -10  -7  -1 2811.22 229.961   5
 -10   7  -1 2625.03 260.630   2
 -10  -7  -1 2603.36 223.718   2
 -10   7  -1 2652.20 153.051   5
 -10   7  -1 2415.97 210.386   1
 -10  -7  -1 2611.44 195.143   3
 -10   7   0 41768.9 936.825   2
 -10  -7   0 40244.5 778.952   5
 -10   7   0 39438.7 796.867   1
 -10   7   0 37067.3 446.394   5
 -10  -7   0 40440.5 685.086   3
 -10  -7   0 41502.6 849.864   2
 -10   7   1 1999.36 223.243   2
 -10  -7   1 1809.04 149.819   3
 -10  -7   1 1724.42 176.665   2
 -10   7   1 1846.19 188.750   1
 -10  -7   1 1915.27 173.444   5
 -10  -7   2 42203.5 744.021   5
 -10   7   2 41521.4 838.755   1
 -10  -7   2 42197.6 790.653   2
 -10   7   3 7170.56 360.705   1
 -10  -7   3 7252.37 327.735   2
 -10  -7   4 12447.7 495.373   1
 -10   7   4 12229.9 482.384   1
 -10  -7   5 3821.77 287.623   1
 -10  -7   6 901.589 166.147   1
 -10  -7   7 424.009 132.923   1
 -10  -7   8 2606.07 259.465   1
 -10   8  -6 724.521 158.551   5
 -10   8  -6 734.165 174.730   3
 -10  -8  -6 556.179 142.138   5
 -10  -8  -5 4388.86 346.441   5
 -10   8  -5 4326.94 292.671   5
 -10   8  -5 4942.49 391.360   3
 -10   8  -4 2031.28 254.966   2
 -10  -8  -4 2311.47 244.950   5
 -10   8  -4 2300.16 198.323   1
 -10   8  -4 1983.88 247.944   3
 -10   8  -4 2084.37 193.549   5
 -10   8  -3 32531.6 663.089   5
 -10   8  -3 34966.6 964.356   2
 -10   8  -3 33284.0 722.667   1
 -10   8  -3 32949.4 912.468   3
 -10  -8  -3 32637.5 817.859   5
 -10   8  -2 2009.54 237.357   3
 -10  -8  -2 1982.39 170.042   3
 -10  -8  -2 2151.17 218.446   5
 -10   8  -2 1941.80 155.622   5
 -10   8  -2 2206.42 200.875   1
 -10   8  -2 2162.04 247.799   2
 -10  -8  -1 28905.1 584.943   3
 -10   8  -1 28742.1 477.071   5
 -10  -8  -1 29825.9 737.192   2
 -10  -8  -1 29081.7 706.058   5
 -10   8  -1 29294.5 813.814   2
 -10   8  -1 29106.3 675.065   1
 -10  -8   0 513.143 101.539   3
 -10  -8   0 582.731 123.560   2
 -10  -8   0 505.917 112.872   5
 -10   8   0 627.051 160.662   2
 -10   8   0 524.096 114.248   1
 -10  -8   1 19369.6 441.238   3
 -10  -8   1 19361.1 550.799   2
 -10   8   1 18698.5 559.245   1
 -10  -8   1 19840.7 541.154   5
 -10   8   1 20309.3 648.916   2
 -10  -8   2 326.116 100.179   5
 -10  -8   2 466.224 112.699   2
 -10   8   2 419.768 116.450   1
 -10   8   3 35509.5 789.689   1
 -10  -8   3 35176.7 694.766   2
 -10  -8   4 6750.15 372.169   1
 -10  -8   5 9974.97 445.763   1
 -10  -8   6 5180.15 329.280   1
 -10  -8   7 391.222 139.028   1
 -10  -8   8 393.990 141.294   1
 -10  -8   9 1230.81 197.321   1
 -10   9  -6 1610.23 254.365   3
 -10  -9  -6 1617.84 236.297   5
 -10  -9  -5 3427.32 309.603   5
 -10   9  -5 3584.10 350.226   3
 -10   9  -5 3311.32 262.534   5
 -10   9  -4 3995.13 344.874   3
 -10   9  -4 3648.61 248.666   5
 -10  -9  -4 4081.10 321.853   5
 -10   9  -4 4110.09 351.369   2
 -10   9  -3 2735.78 213.030   1
 -10   9  -3 2872.73 204.166   5
 -10   9  -3 2979.34 298.995   2
 -10  -9  -3 2549.93 244.647   5
 -10   9  -3 2831.83 283.984   3
 -10  -9  -2 2682.31 245.951   5
 -10   9  -2 2600.36 207.028   1
 -10   9  -2 2426.26 258.575   2
 -10   9  -2 2555.92 265.179   3
 -10  -9  -1 1918.20 201.484   5
 -10  -9  -1 1425.48 129.076   3
 -10   9  -1 1517.94 167.232   1
 -10  -9  -1 1477.42 171.876   2
 -10   9  -1 1582.48 218.841   2
 -10  -9   0 1992.04 193.831   5
 -10   9   0 2017.19 190.859   1
 -10  -9   0 2038.77 150.355   3
 -10  -9   0 1867.75 189.735   2
 -10   9   0 1881.70 220.028   2
 -10   9   1 1570.86 207.670   2
 -10   9   1 1300.38 161.544   1
 -10  -9   1 1477.08 164.284   5
 -10  -9   1 1600.03 129.342   3
 -10  -9   1 1442.49 165.493   2
 -10  -9   2 12405.4 326.423   3
 -10   9   2 12048.5 455.921   1
 -10  -9   2 13029.2 432.082   2
 -10   9   3 1191.47 163.677   1
 -10  -9   3 1174.99 142.405   2
 -10  -9   4 100.849 90.5819   1
 -10  -9   4 230.179 85.8336   2
 -10  -9   5 7153.98 387.365   1
 -10  -9   6 284.278 128.864   1
 -10  -9   7 36200.7 866.245   1
 -10  -9   8 4674.86 331.999   1
 -10  -9   9 2602.31 253.749   1
 -10 -10  -6 719.335 164.172   5
 -10 -10  -5 91.0886 115.467   5
 -10  10  -5 31.0015 109.726   3
 -10  10  -4 3628.04 337.614   2
 -10  10  -4 3081.56 306.186   3
 -10 -10  -4 3149.59 298.477   5
 -10  10  -3 100.154 80.2573   1
 -10  10  -3 45.3822 105.903   2
 -10 -10  -3 181.136 117.212   5
 -10  10  -3 50.5404 106.739   3
 -10 -10  -2 229.343 98.9727   5
 -10  10  -2 354.924 96.3960   1
 -10  10  -2 264.182 124.053   2
 -10  10  -2 328.863 132.312   3
 -10  10  -1 2055.32 236.288   2
 -10  10  -1 2188.24 199.305   1
 -10 -10  -1 1759.07 195.836   5
 -10 -10   0 1246.42 160.774   5
 -10 -10   0 1366.40 118.523   3
 -10 -10   0 1378.94 161.785   2
 -10  10   0 1345.49 164.539   1
 -10  10   0 1756.45 224.537   2
 -10 -10   1 42.1991 68.6131   2
 -10 -10   1-52.7662 78.0255   5
 -10  10   1-31.5763 76.7431   1
 -10 -10   1 70.7690 52.5700   3
 -10  10   1 83.8452 109.234   2
 -10  10   2 6640.17 346.463   1
 -10 -10   2 6564.57 303.872   2
 -10 -10   2 6315.43 221.648   3
 -10 -10   3 7576.60 319.154   2
 -10 -10   4 17296.9 594.984   1
 -10 -10   4 17356.3 474.324   2
 -10 -10   5 1578.74 193.909   1
 -10 -10   6 24585.6 705.891   1
 -10 -10   7 133.088 107.778   1
 -10 -10   8 31798.3 820.062   1
 -10 -10   9-17.3248 94.6700   1
 -10 -11  -6 98.1938 126.496   5
 -10 -11  -5 2309.86 273.239   5
 -10  11  -5 2419.94 297.091   3
 -10 -11  -4 7010.19 420.737   5
 -10  11  -4 7363.01 469.004   3
 -10  11  -4 7283.11 471.196   2
 -10  11  -3 4442.45 361.694   2
 -10 -11  -3 4446.51 328.170   5
 -10  11  -3 5115.27 386.748   3
 -10  11  -2 279.352 90.3901   1
 -10  11  -2 242.403 118.623   3
 -10  11  -2 313.475 136.721   2
 -10 -11  -2 266.301 98.7395   5
 -10  11  -1 328.955 100.662   1
 -10  11  -1 672.382 167.877   2
 -10 -11  -1 414.154 122.151   5
 -10  11   0 3756.15 300.824   2
 -10 -11   0 3870.44 273.053   5
 -10  11   0 3932.52 258.108   1
 -10 -11   1 4757.29 275.286   2
 -10  11   1 4437.08 281.122   1
 -10 -11   1 4826.15 299.801   5
 -10  11   1 4883.45 351.503   2
 -10 -11   2 242.723 80.0180   2
 -10 -11   3 4732.58 252.440   2
 -10 -11   4 4700.10 243.481   2
 -10 -11   5 4415.39 309.668   1
 -10 -11   6 2803.58 250.370   1
 -10 -11   7 4792.15 323.742   1
 -10 -11   8 69.7159 106.241   1
 -10 -11   9 1770.20 211.014   1
 -10 -12  -5 4230.34 348.209   5
 -10  12  -5 4460.03 395.571   3
 -10 -12  -4 156.014 101.518   5
 -10  12  -4 399.906 155.059   2
 -10  12  -4 250.614 138.547   3
 -10  12  -3 9817.78 535.569   2
 -10 -12  -3 8852.72 465.306   5
 -10  12  -3 9291.27 518.748   3
 -10  12  -2 204.484 88.7473   1
 -10 -12  -2 39.3160 93.4888   5
 -10  12  -2 214.000 111.679   3
 -10  12  -2 118.922 108.700   2
 -10  12  -1 11196.8 418.313   1
 -10 -12  -1 11262.7 482.491   5
 -10  12  -1 11064.9 533.144   2
 -10  12   0 394.108 144.090   2
 -10 -12   0 149.641 98.2611   5
 -10  12   0 148.883 85.4276   1
 -10 -12   1 18569.6 582.765   5
 -10 -12   1 19428.2 522.166   2
 -10  12   1 19566.4 669.987   2
 -10 -12   2 3269.52 211.119   2
 -10 -12   4 5715.59 262.402   2
 -10 -12   5 826.147 151.698   1
 -10 -12   5 857.018 114.186   2
 -10 -12   6 2230.57 233.491   1
 -10 -12   7-4.62806 96.2881   1
 -10 -12   8 258.710 123.057   1
 -10 -12   9 1282.73 194.177   1
 -10 -13  -5 545.274 166.646   5
 -10  13  -4 13466.8 650.605   2
 -10  13  -4 13128.0 640.130   3
 -10 -13  -4 13035.4 593.246   5
 -10 -13  -3 4518.73 343.546   5
 -10  13  -3 4967.51 395.936   3
 -10  13  -3 5804.90 419.212   2
 -10  13  -2 4065.40 249.220   1
 -10 -13  -2 4308.18 321.380   5
 -10  13  -2 4356.68 359.918   3
 -10  13  -2 4723.38 369.683   2
 -10  13  -1 1899.22 240.180   2
 -10 -13  -1 1838.58 214.855   5
 -10 -13   0 12706.5 506.792   5
 -10  13   0 12124.7 539.526   2
 -10 -13   1 1603.30 191.959   5
 -10  13   1 2063.51 242.850   2
 -10 -13   1 1883.35 167.699   2
 -10 -13   2 10173.0 355.421   2
 -10 -13   3 13158.2 393.222   2
 -10 -13   4 4617.09 231.118   2
 -10 -13   5 2756.68 249.092   1
 -10 -13   6 30.9572 115.209   1
 -10 -13   7 1905.25 221.257   1
 -10 -13   8 5199.71 346.644   1
 -10 -13   9 1433.53 197.051   1
 -10 -14  -5 1548.73 232.014   5
 -10  14  -4 594.968 176.598   2
 -10  14  -4 842.035 189.354   3
 -10 -14  -4 635.702 161.439   5
 -10  14  -3 381.344 158.680   3
 -10  14  -3 134.273 127.521   2
 -10 -14  -3 505.175 156.694   5
 -10 -14  -2 226.889 101.653   5
 -10  14  -2 549.290 146.747   2
 -10  14  -2 186.980 117.918   3
 -10 -14  -1 5053.89 340.047   5
 -10  14  -1 5209.77 374.582   2
 -10  14   0 792.065 172.277   2
 -10 -14   0 801.678 153.745   5
 -10  14   1 4545.50 345.207   2
 -10 -14   1 4552.62 306.384   5
 -10 -14   5 185.902 109.787   1
 -10 -14   6 1444.24 190.171   1
 -10 -14   7 170.486 119.850   1
 -10 -14   8 4144.08 314.949   1
 -10 -14   9 368.487 119.198   1
 -10 -15  -4 1644.45 235.122   5
 -10  15  -4 1525.94 253.456   2
 -10 -15  -3 169.055 127.853   5
 -10  15  -3 207.793 142.079   3
 -10  15  -3 132.332 133.297   2
 -10  15  -2 1378.34 231.495   3
 -10  15  -2 1634.18 231.084   2
 -10 -15  -2 1211.32 188.005   5
 -10  15  -1 3687.80 323.724   2
 -10 -15  -1 3691.29 298.925   5
 -10 -15   0 46.5701 98.9850   5
 -10  15   0 215.797 115.291   2
 -10 -15   1 1597.10 203.011   5
 -10  15   1 1247.56 197.655   2
 -10 -15   5 8109.46 430.850   1
 -10 -15   6-223.625 117.038   1
 -10 -15   7 22724.4 702.087   1
 -10 -15   8-31.9297 93.5510   1
 -10 -15   9 8431.87 435.507   1
 -10 -16  -4 1913.78 250.868   5
 -10  16  -4 2081.29 278.854   2
 -10  16  -3 3979.31 368.552   2
 -10  16  -3 4347.04 382.117   3
 -10 -16  -3 4142.85 352.145   5
 -10  16  -2 2899.99 309.712   3
 -10  16  -2 2968.37 299.783   2
 -10 -16  -2 2841.08 283.710   5
 -10  16  -1 506.647 164.336   2
 -10 -16  -1 302.479 121.159   5
 -10 -16   0 287.749 132.701   5
 -10  16   0 299.401 140.901   2
 -10  16   1 3177.93 299.135   2
 -10 -16   1 3779.01 297.991   5
 -10 -16   5 538.115 136.670   1
 -10 -16   6 9155.25 457.373   1
 -10 -16   7 875.904 167.111   1
 -10 -16   8 8332.52 435.598   1
 -10 -16   9 2658.01 258.726   1
 -10  17  -4 7563.17 506.045   2
 -10  17  -3 88.9472 130.443   3
 -10  17  -3 145.182 125.376   2
 -10 -17  -3-57.9129 118.324   5
 -10  17  -2 3730.09 345.562   2
 -10 -17  -2 4021.43 337.888   5
 -10  17  -1 725.295 164.010   2
 -10 -17  -1 608.308 161.713   5
 -10 -17   0 23823.7 750.458   5
 -10  17   0 23329.0 786.354   2
 -10  17   1 213.409 141.906   2
 -10 -17   5 909.227 177.044   1
 -10 -17   6 2735.73 265.097   1
 -10 -17   7 1186.62 189.683   1
 -10 -17   8 396.731 143.188   1
 -10 -18  -3 6173.75 431.255   5
 -10  18  -3 6836.86 471.912   2
 -10  18  -2 3835.00 366.688   3
 -10 -18  -2 3691.32 331.700   5
 -10  18  -2 4129.16 359.378   2
 -10 -18  -1 13903.0 601.528   5
 -10  18  -1 14372.2 638.253   2
 -10  18   0 444.371 140.455   2
 -10 -18   0 713.414 167.548   5
 -10  18   1 4622.88 358.222   2
 -10 -18   5 556.062 146.713   1
 -10 -18   7 126.500 105.110   1
 -10 -18   8 1238.53 191.274   1
 -10  19  -3-81.9894 141.082   2
 -10  19  -2 2114.50 277.765   2
 -10 -19  -2 1801.43 249.130   5
 -10  19  -2 1977.09 274.384   3
 -10 -19  -1 2376.15 271.343   5
 -10  19  -1 2642.05 297.545   2
 -10 -19   0 2661.28 278.901   5
 -10  19   0 2116.31 267.505   2
 -10  19   1 4382.60 359.026   2
 -10  19   2 870.684 184.620   2
 -10 -19   5 2117.40 243.673   1
 -10 -19   6 1073.61 192.625   1
 -10 -19   7 6306.69 387.496   1
 -10 -20  -2-86.3472 128.264   5
 -10  20  -2 214.763 144.909   2
 -10 -20  -1 571.775 164.027   5
 -10  20  -1 813.457 197.125   2
 -10  20  -1 773.252 185.630   3
 -10  20   0 393.725 154.896   2
 -10 -20   0 364.980 145.335   5
 -10  20   1 226.479 130.777   2
 -10 -20   5 339.908 120.439   1
 -10 -20   6 12145.2 541.315   1
 -10 -20   7 203.556 113.572   1
 -10  21  -2 6008.73 452.960   2
 -10  21  -1 365.894 163.384   2
 -10 -21  -1 822.427 185.830   5
 -10 -21   0 5527.46 407.047   5
 -10  21   0 5552.78 410.425   2
 -10  21   1 1056.24 194.140   2
 -10  21   2 4730.54 384.698   2
 -10 -21   6 174.519 138.275   1
 -10 -21   7 3372.98 294.054   1
 -10  22  -1 10203.4 558.657   2
 -10 -22   0-24.1667 120.160   5
 -10  22   0 183.765 137.243   2
 -10  22   1 4005.25 351.367   2
 -10  22   2 2166.84 280.812   2
 -10 -22   6 548.270 155.775   1
 -10  23   0 4825.49 400.298   2
 -10  23   1 16.2380 112.423   2
 -10  23   2 8035.96 494.357   2
 -10 -23   6 882.851 177.191   1
 -10  24   1 432.408 154.143   2
 -10  24   2 2662.52 303.880   2
  -9   0  -8 10272.1 542.979   5
  -9   0  -7-76.5567 125.208   5
  -9   0  -6 2033.25 222.478   5
  -9   0  -5-128.506 101.619   5
  -9   0  -5-36.3048 83.6328   3
  -9   0  -4 11970.3 455.068   5
  -9   0  -4 12061.7 497.059   3
  -9   0  -3 63.6722 87.4329   3
  -9   0  -3 20.5432 64.8964   5
  -9   0  -3 91.5489 93.1150   2
  -9   0  -2 4970.70 290.714   3
  -9   0  -2 5042.38 325.112   2
  -9   0  -2 4355.74 236.976   5
  -9   0  -1 26.5582 18.2397   6
  -9   0  -1-20.7787 50.7497   5
  -9   0  -1 6.34653 83.2479   3
  -9   0  -1 14.7715 73.4523   2
  -9   0   0 9436.34 295.361   5
  -9   0   0 9384.18 394.653   2
  -9   0   1 30.4871 39.8994   5
  -9   0   1-8.73792 64.2323   2
  -9   0   1-48.6079 87.4304   1
  -9   0   2 13838.3 299.835   5
  -9   0   2 13669.9 460.942   1
  -9   0   3-19.2335 31.8813   5
  -9   0   3-7.94010 85.3466   1
  -9   0   4 319.099 50.7353   5
  -9   0   4 267.289 93.2087   1
  -9   0   5 166.604 95.3326   1
  -9   0   5 66.5486 45.8707   5
  -9   0   6 38512.6 818.116   1
  -9   0   6 37724.5 529.527   5
  -9   0   7-132.380 102.439   1
  -9  -1  -8 812.316 171.309   5
  -9   1  -8 1072.22 191.826   5
  -9   1  -7-19.3794 100.096   5
  -9  -1  -7 46.2536 104.618   5
  -9   1  -6 6065.42 374.096   5
  -9  -1  -6 5691.22 359.619   5
  -9   1  -6 6631.83 417.905   3
  -9   1  -5 5911.96 371.352   3
  -9  -1  -5 6025.81 354.051   5
  -9   1  -5 5704.50 333.717   5
  -9  -1  -5 5787.81 364.832   3
  -9   1  -4 194.584 76.9743   5
  -9   1  -4 200.997 104.642   3
  -9  -1  -4 114.074 76.3487   5
  -9  -1  -4 144.224 83.9980   3
  -9   1  -3 18992.0 639.002   2
  -9   1  -3 18569.0 594.077   3
  -9   1  -3 18541.9 516.547   5
  -9  -1  -3 18496.1 579.814   3
  -9  -1  -3 18820.1 534.810   5
  -9  -1  -3 18331.8 623.795   2
  -9   1  -2 121.262 63.2175   5
  -9  -1  -2 121.542 68.0930   5
  -9  -1  -2 40.8751 78.1691   3
  -9   1  -2 41.7343 66.7888   3
  -9   1  -2 57.5866 94.9648   2
  -9  -1  -2 60.2643 84.2728   2
  -9  -1  -1 424.379 100.766   3
  -9  -1  -1 457.411 92.6846   5
  -9   1  -1 224.975 97.8474   2
  -9  -1  -1 338.002 47.8775   6
  -9   1  -1 412.082 77.9640   5
  -9   1  -1 293.666 84.2375   3
  -9  -1  -1 494.704 116.452   2
  -9   1   0 1207.94 111.332   5
  -9  -1   0 1269.81 121.619   5
  -9  -1   0 1120.48 65.7211   6
  -9  -1   0 1175.36 153.710   2
  -9   1   0 1455.36 171.325   2
  -9   1   1 7219.49 333.914   1
  -9   1   1 7218.99 222.647   5
  -9  -1   1 7502.16 253.573   5
  -9  -1   1 7479.20 340.225   2
  -9   1   1 7587.73 350.742   2
  -9  -1   2 107.947 80.6416   1
  -9   1   2 120.002 78.4497   1
  -9   1   2 169.799 42.6303   5
  -9  -1   2 253.028 55.6298   5
  -9   1   3 2448.95 109.476   5
  -9  -1   3 2372.57 127.348   5
  -9   1   3 2271.03 200.870   1
  -9  -1   3 2649.94 216.492   1
  -9  -1   4 615.612 69.9270   5
  -9   1   4 749.508 127.933   1
  -9  -1   4 525.069 106.833   1
  -9   1   4 656.885 59.8181   5
  -9   1   5 7716.51 362.826   1
  -9   1   5 7675.23 200.966   5
  -9  -1   5 8530.33 381.583   1
  -9  -1   5 7538.15 235.828   5
  -9  -1   6 274.247 106.853   1
  -9   1   6 162.943 49.1449   5
  -9   1   6 234.833 104.866   1
  -9  -1   6 209.153 65.7065   5
  -9  -1   7 155.290 112.898   1
  -9   2  -8 184.936 116.956   5
  -9  -2  -8 363.442 164.000   5
  -9  -2  -7 27005.9 833.030   5
  -9   2  -7 27230.0 815.624   5
  -9   2  -6 2172.82 235.000   5
  -9   2  -6 2538.94 268.642   3
  -9  -2  -6 2011.77 232.821   5
  -9   2  -5 3295.07 258.212   5
  -9  -2  -5 3538.51 280.074   3
  -9  -2  -5 3204.00 260.643   5
  -9   2  -5 3177.41 280.543   3
  -9  -2  -4 582.620 118.771   5
  -9  -2  -4 1034.48 156.912   3
  -9   2  -4 794.559 127.198   5
  -9   2  -4 589.067 135.870   3
  -9   2  -4 829.141 161.218   2
  -9   2  -3 1071.07 168.720   2
  -9  -2  -3 613.792 133.968   2
  -9  -2  -3 745.435 126.948   5
  -9   2  -3 817.473 123.753   5
  -9   2  -3 552.516 116.389   3
  -9  -2  -3 778.246 133.887   3
  -9   2  -2 695.536 140.809   2
  -9   2  -2 932.883 141.648   3
  -9  -2  -2 679.897 110.051   3
  -9  -2  -2 744.650 130.569   2
  -9   2  -2 804.617 107.739   5
  -9  -2  -2 752.093 118.298   5
  -9  -2  -1 3814.32 240.565   3
  -9   2  -1 4266.62 208.792   5
  -9  -2  -1 3694.85 146.845   6
  -9   2  -1 3837.12 272.466   2
  -9  -2  -1 4148.24 231.580   5
  -9  -2  -1 3843.55 262.591   2
  -9   2  -1 4003.76 259.042   3
  -9  -2   0 3672.59 200.505   5
  -9  -2   0 3248.06 129.353   6
  -9   2   0 3657.90 239.479   1
  -9   2   0 3409.28 254.564   2
  -9  -2   0 3679.17 254.443   2
  -9   2   0 3668.69 174.943   5
  -9   2   1 12018.6 442.048   2
  -9   2   1 11926.1 270.474   5
  -9  -2   1 11723.2 331.334   5
  -9   2   1 11696.8 424.199   1
  -9  -2   1 11932.0 420.169   2
  -9   2   2 8815.95 198.921   5
  -9   2   2 9101.17 374.567   1
  -9  -2   2 9239.00 275.338   5
  -9  -2   2 9241.28 381.054   1
  -9   2   3 5945.92 309.441   1
  -9   2   3 5149.39 131.117   5
  -9  -2   3 5988.19 316.616   1
  -9   2   3 5373.70 137.592   5
  -9  -2   4 205.431 101.710   1
  -9   2   4 173.102 29.4018   5
  -9   2   4 171.647 29.0292   5
  -9   2   4 198.334 88.0260   1
  -9   2   5 4265.53 133.476   5
  -9   2   5 4858.40 295.263   1
  -9  -2   5 4470.82 286.517   1
  -9  -2   5 4392.32 192.092   5
  -9   2   6 684.309 127.464   1
  -9  -2   6 567.331 86.6543   5
  -9   2   6 532.010 62.1502   5
  -9  -2   6 504.114 116.284   1
  -9  -2   7 23056.2 652.260   1
  -9  -3  -8 14147.9 638.279   5
  -9   3  -8 13999.7 623.912   5
  -9  -3  -7 101.389 115.400   5
  -9   3  -7 116.292 118.659   5
  -9  -3  -6 15938.6 607.499   5
  -9   3  -6 15439.4 576.905   5
  -9   3  -6 17600.5 681.049   3
  -9  -3  -5 3371.44 271.019   5
  -9   3  -5 3862.66 277.376   5
  -9   3  -5 3581.88 304.294   3
  -9   3  -4 6051.18 315.896   5
  -9   3  -4 5824.73 381.441   2
  -9  -3  -4 6456.38 349.616   3
  -9  -3  -4 6126.19 338.632   5
  -9   3  -4 6239.20 377.893   3
  -9   3  -3 1708.45 161.872   5
  -9  -3  -3 1614.35 174.766   3
  -9  -3  -3 1609.85 195.897   2
  -9   3  -3 1809.65 219.685   2
  -9  -3  -3 1683.96 174.819   5
  -9   3  -3 1501.82 190.566   3
  -9  -3  -2 27881.7 720.420   2
  -9   3  -2 27459.2 707.124   3
  -9  -3  -2 28513.1 656.393   3
  -9   3  -2 27428.0 560.766   5
  -9   3  -2 28013.1 759.261   2
  -9  -3  -2 27978.3 627.163   5
  -9  -3  -1 396.998 85.9945   3
  -9   3  -1 433.208 114.951   2
  -9  -3  -1 483.774 94.0703   5
  -9  -3  -1 530.923 70.9870   6
  -9  -3  -1 545.713 113.674   2
  -9   3  -1 384.873 75.4395   5
  -9   3  -1 366.792 98.4707   3
  -9   3   0 14660.0 467.416   1
  -9  -3   0 14856.2 484.758   2
  -9  -3   0 15023.9 431.881   3
  -9  -3   0 14437.1 403.304   5
  -9   3   0 14999.8 508.821   2
  -9  -3   0 14302.5 295.432   6
  -9   3   0 14581.0 329.006   5
  -9   3   1 7698.14 342.877   1
  -9  -3   1 7523.90 213.165   6
  -9  -3   1 7511.44 332.236   2
  -9   3   1 7741.01 366.360   2
  -9   3   1 7356.26 197.410   5
  -9  -3   1 7389.17 270.597   5
  -9   3   2 213.685 29.6075   5
  -9  -3   2 267.839 64.1952   5
  -9  -3   2 259.324 85.0118   2
  -9   3   2 154.991 82.1885   1
  -9  -3   3 1854.77 188.662   1
  -9   3   3 1948.55 185.482   1
  -9  -3   4 5904.87 315.740   1
  -9   3   4 5924.93 314.893   1
  -9  -3   5 2989.04 170.097   5
  -9   3   5 3380.37 251.087   1
  -9  -3   5 3598.55 253.289   1
  -9  -3   6 2807.09 231.271   1
  -9  -3   6 2486.55 166.404   5
  -9   3   6 2534.72 221.676   1
  -9   3   6 2453.72 107.031   5
  -9  -3   7 2558.18 230.615   1
  -9   4  -8 417.263 130.571   5
  -9  -4  -8 346.592 170.032   5
  -9   4  -7 4645.33 344.507   5
  -9  -4  -7 5019.19 375.094   5
  -9  -4  -6 1866.86 225.984   5
  -9   4  -6 2095.50 228.369   5
  -9   4  -6 2160.46 257.067   3
  -9   4  -5 3556.13 264.899   5
  -9   4  -5 3548.53 303.663   3
  -9  -4  -5 3658.31 282.279   5
  -9   4  -4 5743.78 308.445   5
  -9  -4  -4 5679.04 328.792   3
  -9  -4  -4 5306.91 322.228   5
  -9   4  -4 5332.52 354.905   3
  -9   4  -4 5799.50 379.591   2
  -9   4  -3 233.255 81.7588   5
  -9  -4  -3 213.328 83.6076   5
  -9   4  -3 198.190 99.0734   2
  -9   4  -3 172.103 94.0023   3
  -9  -4  -3 441.313 113.795   3
  -9   4  -2 158.231 64.0226   5
  -9   4  -2 300.617 103.601   3
  -9  -4  -2 26.9599 64.6993   3
  -9  -4  -2 29.2735 84.8792   2
  -9   4  -2 442.639 139.455   2
  -9  -4  -2 259.976 92.9931   5
  -9  -4  -1 2194.29 204.064   2
  -9  -4  -1 2183.44 140.548   6
  -9  -4  -1 2059.37 172.685   5
  -9   4  -1 2221.21 219.843   2
  -9   4  -1 2279.03 149.182   5
  -9  -4  -1 1842.10 160.183   3
  -9   4  -1 2133.63 187.454   1
  -9  -4   0 5060.80 193.822   6
  -9  -4   0 5630.65 265.407   3
  -9   4   0 5252.94 313.002   2
  -9  -4   0 5124.06 287.081   2
  -9  -4   0 5368.77 255.738   5
  -9   4   0 5170.76 280.586   1
  -9   4   0 5270.73 190.032   5
  -9  -4   1 123.500 83.4972   2
  -9  -4   1-57.4996 57.1298   5
  -9   4   1 55.8311 28.4218   5
  -9  -4   1 107.762 50.1995   6
  -9   4   1 109.455 82.1987   1
  -9   4   1 3.38778 78.0902   2
  -9  -4   2 17014.1 405.495   5
  -9  -4   2 17147.5 484.524   2
  -9   4   2 17061.9 505.576   1
  -9  -4   3 6360.47 333.714   1
  -9   4   3 6019.52 314.603   1
  -9  -4   4 5388.12 304.527   1
  -9   4   4 5320.18 303.121   1
  -9   4   5 1647.11 186.116   1
  -9  -4   5 1548.59 131.004   5
  -9  -4   5 1457.26 171.414   1
  -9  -4   6 12595.2 473.216   1
  -9  -4   7 100.513 84.3685   1
  -9  -4   8 115.029 107.602   1
  -9   5  -8 249.279 138.024   5
  -9   5  -7 242.092 131.986   5
  -9   5  -7 45.0421 123.796   3
  -9  -5  -7 36.7259 120.074   5
  -9   5  -6-180.289 108.982   5
  -9  -5  -6 9.99083 100.549   5
  -9   5  -6-71.2068 108.825   3
  -9   5  -5 185.179 125.293   3
  -9   5  -5 95.6221 75.8380   5
  -9  -5  -5 297.285 114.156   5
  -9   5  -4 1263.23 193.440   3
  -9   5  -4 680.968 155.387   2
  -9   5  -4 824.544 137.123   5
  -9  -5  -4 855.165 147.404   5
  -9   5  -3 4802.58 254.385   5
  -9   5  -3 5001.99 333.455   3
  -9  -5  -3 5074.04 286.742   3
  -9   5  -3 4807.04 336.822   2
  -9  -5  -3 4734.69 289.798   5
  -9   5  -2 2354.69 193.435   1
  -9  -5  -2 2747.98 201.557   3
  -9  -5  -2 2990.83 222.129   5
  -9   5  -2 2477.38 230.837   3
  -9  -5  -2 2391.71 213.580   2
  -9   5  -2 2494.02 171.368   5
  -9   5  -2 2893.18 263.481   2
  -9   5  -1 18654.6 517.783   1
  -9  -5  -1 19559.3 494.631   3
  -9  -5  -1 19476.8 518.262   5
  -9   5  -1 18611.1 399.620   5
  -9   5  -1 19574.4 613.103   2
  -9  -5  -1 20344.5 590.909   2
  -9  -5  -1 17635.8 402.824   6
  -9  -5   0 2971.27 224.316   2
  -9  -5   0 3125.67 195.195   3
  -9  -5   0 3058.50 201.357   5
  -9  -5   0 2526.61 149.848   6
  -9   5   0 2823.64 213.012   1
  -9   5   0 3015.09 242.920   2
  -9   5   0 2954.59 135.251   5
  -9  -5   1 21205.4 488.920   5
  -9   5   1 21675.8 567.489   1
  -9  -5   1 20809.4 414.036   6
  -9   5   1 20266.5 267.013   5
  -9   5   1 21632.4 608.094   2
  -9  -5   1 21613.7 547.762   2
  -9  -5   2 28.1798 44.0962   6
  -9  -5   2 42.6352 68.8556   2
  -9   5   2 17.4452 74.2912   1
  -9   5   3 17282.3 523.268   1
  -9  -5   3 17488.4 541.216   1
  -9  -5   4 256.664 106.721   1
  -9   5   4 194.108 92.3326   1
  -9  -5   5 20398.0 591.426   1
  -9   5   5 20575.9 595.376   1
  -9  -5   6 8602.50 390.697   1
  -9  -5   7 4835.32 305.385   1
  -9  -5   8 1831.51 203.686   1
  -9   6  -8 2256.01 268.153   5
  -9   6  -7 4758.92 393.240   3
  -9   6  -7 4391.86 337.829   5
  -9  -6  -7 4675.57 363.091   5
  -9  -6  -6 685.991 159.958   5
  -9   6  -6 699.470 140.679   5
  -9   6  -6 553.245 156.768   3
  -9   6  -5 7679.57 381.227   5
  -9   6  -5 7355.09 442.137   3
  -9  -6  -5 6940.85 397.336   5
  -9  -6  -4 5960.22 357.680   5
  -9   6  -4 5166.33 359.858   3
  -9   6  -4 5578.30 383.749   2
  -9   6  -4 5352.86 295.740   5
  -9   6  -3 6082.13 369.415   3
  -9  -6  -3 5983.49 332.987   5
  -9  -6  -3 6305.15 308.935   3
  -9   6  -3 5944.71 296.243   1
  -9   6  -3 6134.75 385.920   2
  -9   6  -3 5876.19 280.805   5
  -9   6  -2 31378.6 664.878   1
  -9   6  -2 32511.6 829.388   2
  -9   6  -2 31540.5 578.035   5
  -9  -6  -2 31937.8 713.502   5
  -9   6  -2 31792.1 800.843   3
  -9  -6  -2 32386.5 762.381   2
  -9  -6  -2 32326.7 651.118   3
  -9   6  -1 6841.78 239.567   5
  -9  -6  -1 6831.55 338.663   2
  -9  -6  -1 7075.54 292.770   3
  -9  -6  -1 6532.26 263.718   6
  -9  -6  -1 7042.71 321.049   5
  -9   6  -1 7283.93 383.082   2
  -9   6  -1 7162.35 320.725   1
  -9  -6   0 8885.20 341.915   5
  -9   6   0 9419.24 370.667   1
  -9  -6   0 8692.26 288.609   6
  -9  -6   0 9346.56 381.819   2
  -9   6   0 9017.62 409.520   2
  -9  -6   0 9031.94 315.293   3
  -9   6   0 8897.95 221.981   5
  -9   6   1 638.457 44.9990   5
  -9  -6   1 766.600 98.6790   6
  -9   6   1 858.672 142.961   2
  -9  -6   1 952.626 124.117   5
  -9  -6   1 826.624 123.637   2
  -9   6   1 1148.43 143.958   1
  -9  -6   2 7724.60 273.246   6
  -9   6   2 8288.23 354.726   1
  -9  -6   2 7743.48 320.526   2
  -9   6   3 1320.51 163.273   1
  -9  -6   4 15248.6 507.838   1
  -9   6   4 16011.5 517.858   1
  -9  -6   5 167.177 95.9381   1
  -9  -6   6 7589.93 370.104   1
  -9  -6   7 15828.0 537.069   1
  -9  -6   8 838.920 149.488   1
  -9   7  -8 17141.7 688.308   5
  -9   7  -7 525.612 169.744   3
  -9  -7  -7 414.366 140.918   5
  -9   7  -7 349.806 116.751   5
  -9  -7  -6 16824.3 651.912   5
  -9   7  -6 16752.9 593.905   5
  -9   7  -6 18578.3 729.860   3
  -9   7  -5 268.235 122.284   5
  -9  -7  -5 114.781 107.973   5
  -9   7  -5 75.7601 71.5121   1
  -9   7  -4 32546.0 679.542   1
  -9   7  -4 33461.5 717.619   5
  -9   7  -4 33889.4 907.496   3
  -9  -7  -4 33116.1 819.572   5
  -9   7  -4 32727.6 906.896   2
  -9  -7  -3 2155.79 209.439   5
  -9   7  -3 1875.35 172.111   1
  -9   7  -3 1706.96 213.566   2
  -9   7  -3 1952.11 167.870   5
  -9   7  -3 1881.93 220.537   3
  -9  -7  -2 340.094 108.900   5
  -9   7  -2 395.116 133.762   3
  -9   7  -2 330.313 77.1248   5
  -9   7  -2 386.731 101.241   1
  -9   7  -2 462.095 138.372   2
  -9  -7  -2 303.681 76.9648   3
  -9  -7  -1 1123.25 149.205   5
  -9   7  -1 1293.63 148.816   1
  -9  -7  -1 1237.08 125.976   3
  -9   7  -1 1323.09 183.956   2
  -9   7  -1 1238.22 104.331   5
  -9  -7  -1 1527.53 170.273   2
  -9   7   0 3868.18 278.197   2
  -9   7   0 3496.47 135.849   5
  -9  -7   0 3768.18 246.797   2
  -9  -7   0 3621.92 228.033   5
  -9  -7   0 3367.71 194.116   6
  -9   7   0 3704.30 237.813   1
  -9  -7   0 3857.20 204.352   3
  -9  -7   1 304.817 88.5169   5
  -9   7   1 235.703 109.322   2
  -9  -7   1 296.121 66.3211   3
  -9  -7   1 321.991 78.0396   6
  -9   7   1 396.643 102.980   1
  -9  -7   1 160.391 73.5656   2
  -9  -7   2 344.232 91.4704   2
  -9  -7   2 320.427 74.3085   6
  -9   7   2 367.700 100.558   1
  -9   7   3 4712.25 284.961   1
  -9  -7   3 4933.41 251.545   2
  -9  -7   4 4215.29 276.979   1
  -9   7   4 4652.62 291.378   1
  -9  -7   5 846.053 136.911   1
  -9  -7   6 26277.7 677.164   1
  -9  -7   7 214.040 106.852   1
  -9  -7   8 16938.7 570.988   1
  -9   8  -8 987.146 198.762   5
  -9   8  -7 7637.76 494.087   3
  -9  -8  -7 6856.85 441.402   5
  -9   8  -7 7232.60 426.315   5
  -9   8  -6 2088.17 270.754   3
  -9  -8  -6 2001.66 252.384   5
  -9   8  -6 1702.21 205.438   5
  -9  -8  -5 10884.3 511.224   5
  -9   8  -5 10946.4 446.591   5
  -9   8  -5 11554.5 565.286   3
  -9   8  -4 3426.87 237.650   5
  -9   8  -4 3595.61 231.084   1
  -9  -8  -4 3466.75 278.179   5
  -9   8  -4 3863.16 321.603   3
  -9   8  -4 3511.57 317.848   2
  -9   8  -3 12258.6 546.460   2
  -9   8  -3 11587.0 519.043   3
  -9   8  -3 11441.3 382.787   5
  -9   8  -3 11508.0 396.314   1
  -9  -8  -3 11258.0 469.014   5
  -9   8  -2 628.014 89.6656   5
  -9   8  -2 541.319 141.994   2
  -9   8  -2 637.932 141.417   3
  -9  -8  -2 727.501 102.097   3
  -9  -8  -2 695.110 124.441   5
  -9   8  -2 539.634 105.291   1
  -9   8  -1 8370.37 343.445   1
  -9   8  -1 8802.39 428.635   2
  -9   8  -1 8805.93 259.845   5
  -9  -8  -1 8743.31 302.540   3
  -9  -8  -1 9063.49 386.666   2
  -9  -8  -1 8450.60 370.747   5
  -9  -8   0 25560.2 612.746   2
  -9   8   0 24504.1 587.650   1
  -9  -8   0 24860.2 600.935   5
  -9   8   0 24738.2 686.035   2
  -9   8   0 22924.6 329.600   5
  -9  -8   0 24644.3 478.420   3
  -9  -8   1 5356.13 215.936   3
  -9   8   1 5200.63 279.717   1
  -9   8   1 5782.43 332.689   2
  -9  -8   1 5352.05 274.292   5
  -9  -8   1 5641.42 277.434   2
  -9  -8   2 5973.68 276.383   2
  -9   8   2 5148.02 285.248   1
  -9  -8   3 511.776 99.2946   2
  -9   8   3 728.959 127.972   1
  -9  -8   4 1420.06 172.289   1
  -9  -8   5 8937.97 399.491   1
  -9  -8   6 686.932 145.135   1
  -9  -8   7 11395.2 459.029   1
  -9  -8   8 2725.44 239.345   1
  -9   9  -8 59.2473 104.562   5
  -9   9  -7-43.2859 99.0818   5
  -9  -9  -7-14.8337 127.501   5
  -9   9  -7 49.8646 119.594   3
  -9   9  -6 9433.24 535.301   3
  -9  -9  -6 9241.48 498.991   5
  -9   9  -6 8903.12 437.035   5
  -9   9  -5 921.892 183.107   3
  -9   9  -5 811.710 132.934   5
  -9  -9  -5 947.411 169.344   5
  -9   9  -4 2987.39 220.172   5
  -9   9  -4 3126.64 292.642   3
  -9   9  -4 3221.35 212.452   1
  -9   9  -4 3228.92 303.864   2
  -9  -9  -4 3320.31 277.986   5
  -9  -9  -3 9712.13 440.191   5
  -9   9  -3 10702.4 518.276   2
  -9   9  -3 9532.55 357.681   1
  -9   9  -3 10217.6 496.890   3
  -9   9  -3 9704.23 355.776   5
  -9   9  -2 4410.68 321.823   3
  -9   9  -2 4222.86 210.904   5
  -9   9  -2 3994.20 237.697   1
  -9   9  -2 4432.35 323.469   2
  -9  -9  -2 3960.26 274.482   5
  -9   9  -1 24859.1 428.325   5
  -9  -9  -1 25671.3 636.083   2
  -9  -9  -1 25434.7 491.244   3
  -9   9  -1 24771.3 580.230   1
  -9  -9  -1 26029.3 653.289   5
  -9   9  -1 25983.1 732.529   2
  -9  -9   0 5119.42 284.220   5
  -9   9   0 5354.52 278.229   1
  -9  -9   0 5144.45 213.424   3
  -9   9   0 5088.99 324.090   2
  -9  -9   0 5423.47 283.544   2
  -9  -9   1 996.581 95.0270   3
  -9   9   1 975.611 128.634   1
  -9  -9   1 1059.73 128.543   2
  -9  -9   1 773.631 113.226   5
  -9   9   1 889.688 138.277   2
  -9  -9   2 5501.02 262.433   2
  -9   9   2 5364.26 290.505   1
  -9  -9   3 32072.2 603.708   2
  -9  -9   4 2537.52 225.931   1
  -9  -9   5 4518.83 290.796   1
  -9  -9   6 10306.0 433.856   1
  -9  -9   7 3832.10 279.429   1
  -9  -9   8 252.605 101.726   1
  -9  10  -8 129.134 106.843   5
  -9  10  -7 135.767 100.396   5
  -9 -10  -7 416.496 152.906   5
  -9  10  -6 610.703 146.520   5
  -9 -10  -6 295.955 141.036   5
  -9  10  -6 660.380 184.974   3
  -9  10  -5 5220.28 395.215   3
  -9  10  -5 4556.74 297.123   5
  -9 -10  -5 4352.56 334.751   5
  -9  10  -4 3872.00 227.761   1
  -9  10  -4 4256.28 349.287   2
  -9  10  -4 3510.34 317.102   3
  -9  10  -4 3740.58 247.688   5
  -9 -10  -4 3998.57 313.654   5
  -9  10  -3 161.293 79.0975   1
  -9  10  -3 133.632 112.396   3
  -9  10  -3 12.0917 103.520   2
  -9  10  -3 14.5742 63.6652   5
  -9 -10  -3-168.711 112.297   5
  -9  10  -2 28768.0 809.749   3
  -9  10  -2 29144.1 615.100   1
  -9 -10  -2 28373.8 728.407   5
  -9  10  -2 28475.1 534.851   5
  -9  10  -2 29994.5 818.043   2
  -9  10  -1 243.416 115.329   2
  -9 -10  -1 423.419 116.294   5
  -9  10  -1 286.295 90.1172   1
  -9  10   0 23770.8 575.272   1
  -9 -10   0 23995.4 618.662   5
  -9 -10   0 25246.2 592.834   2
  -9 -10   0 24487.4 421.605   3
  -9  10   0 24207.6 690.965   2
  -9  10   1 2077.36 185.902   1
  -9 -10   1 1832.63 164.252   2
  -9 -10   1 1595.32 105.277   3
  -9 -10   2 11733.2 371.940   2
  -9 -10   2 11552.9 269.347   3
  -9  10   2 11176.8 416.245   1
  -9 -10   3 98.6900 58.9675   2
  -9 -10   5 33.0577 81.4955   1
  -9 -10   6 15170.7 526.684   1
  -9 -10   7 14197.2 512.270   1
  -9 -10   8 1695.30 203.423   1
  -9  11  -7 187.245 111.037   5
  -9  11  -6 615.677 162.973   3
  -9  11  -6 870.931 165.677   5
  -9 -11  -6 925.645 198.994   5
  -9 -11  -5 570.552 146.417   5
  -9  11  -5 682.014 190.573   2
  -9  11  -5 643.484 137.225   5
  -9  11  -5 493.985 158.766   3
  -9 -11  -4 16183.0 609.860   5
  -9  11  -4 17955.7 695.448   3
  -9  11  -4 16767.2 510.528   5
  -9  11  -4 17005.7 680.828   2
  -9 -11  -3 12969.8 525.655   5
  -9  11  -3 12996.8 403.854   1
  -9  11  -3 13759.4 589.740   2
  -9  11  -3 12614.3 563.624   3
  -9  11  -3 12396.8 400.939   5
  -9  11  -2 5811.25 377.667   3
  -9  11  -2 6094.19 385.749   2
  -9 -11  -2 6083.79 347.799   5
  -9  11  -2 5668.08 273.665   1
  -9  11  -1 15534.6 457.804   1
  -9 -11  -1 15804.8 534.308   5
  -9  11  -1 15455.0 576.331   2
  -9 -11   0 373.664 93.9866   2
  -9  11   0 266.884 82.8677   1
  -9 -11   0 154.893 83.5450   5
  -9  11   0 392.928 124.813   2
  -9  11   1 2022.55 182.135   1
  -9 -11   1 2134.36 166.895   2
  -9 -11   2 517.850 94.9174   2
  -9 -11   2 534.842 58.6374   3
  -9 -11   3 9343.04 315.595   2
  -9 -11   4 2641.17 173.291   2
  -9 -11   5 7822.53 383.785   1
  -9 -11   6 21341.1 624.940   1
  -9 -11   7 2500.01 228.839   1
  -9 -11   8 13530.5 509.914   1
  -9 -11   9 374.460 126.238   1
  -9  12  -7 15538.9 618.678   5
  -9 -12  -6 1861.71 240.964   5
  -9  12  -6 1569.44 197.949   5
  -9  12  -6 1394.70 222.859   3
  -9 -12  -5 23568.6 780.093   5
  -9  12  -5 25064.0 857.434   2
  -9  12  -5 25129.5 867.578   3
  -9  12  -5 23611.3 657.265   5
  -9  12  -4 175.997 95.1562   5
  -9  12  -4 173.397 134.627   3
  -9  12  -4 152.248 127.344   2
  -9 -12  -4 100.123 105.264   5
  -9  12  -3 2534.19 280.711   2
  -9 -12  -3 2531.75 247.622   5
  -9  12  -3 2407.33 263.001   3
  -9  12  -3 2155.15 166.912   1
  -9 -12  -2 762.090 148.567   5
  -9  12  -2 936.733 178.579   2
  -9  12  -2 687.729 148.671   3
  -9  12  -2 721.722 109.895   1
  -9 -12  -1 781.228 148.930   5
  -9  12  -1 966.325 175.067   2
  -9  12  -1 874.023 124.449   1
  -9  12   0 409.238 130.806   2
  -9 -12   0 365.901 106.818   5
  -9  12   0 474.724 105.094   1
  -9 -12   1 4318.11 230.374   2
  -9  12   1 5026.90 327.365   2
  -9 -12   2 840.127 106.736   2
  -9 -12   3 280.359 78.0107   2
  -9 -12   4 2455.16 161.745   2
  -9 -12   5 14945.0 529.112   1
  -9 -12   6 583.899 127.534   1
  -9 -12   7 18243.0 587.335   1
  -9 -12   8 521.100 133.032   1
  -9 -12   9 3782.37 288.961   1
  -9 -13  -6 6506.42 445.786   5
  -9  13  -6 6229.14 458.096   3
  -9  13  -6 5684.61 360.941   5
  -9 -13  -5 615.153 169.903   5
  -9  13  -5 764.946 186.446   3
  -9  13  -5 688.858 180.630   2
  -9  13  -4 17952.5 704.554   2
  -9 -13  -4 17189.1 651.583   5
  -9  13  -4 17552.4 707.204   3
  -9 -13  -3 537.591 139.170   5
  -9  13  -3 669.787 154.384   2
  -9  13  -3 520.760 149.816   3
  -9  13  -2 3363.73 296.477   2
  -9  13  -2 3048.42 203.897   1
  -9  13  -2 3061.42 289.854   3
  -9 -13  -2 3133.04 267.335   5
  -9 -13  -1 333.320 120.638   5
  -9  13  -1 296.287 120.049   2
  -9  13   0 877.435 169.761   2
  -9 -13   0 711.648 142.981   5
  -9 -13   1 427.059 81.6200   2
  -9  13   1 390.696 132.395   2
  -9 -13   2 365.496 75.1502   2
  -9 -13   3 7457.77 268.723   2
  -9 -13   4 10256.4 308.010   2
  -9 -13   5 188.850 88.4557   1
  -9 -13   6 7580.70 381.963   1
  -9 -13   7 744.363 137.127   1
  -9 -13   8 2664.20 238.802   1
  -9 -13   9 447.413 119.549   1
  -9 -14  -6 371.876 151.784   5
  -9  14  -5 14965.4 691.065   3
  -9  14  -5 15867.1 700.221   2
  -9 -14  -5 13941.8 620.663   5
  -9  14  -4 5716.55 409.360   2
  -9 -14  -4 5475.76 378.572   5
  -9  14  -4 5927.08 425.908   3
  -9  14  -3 3437.28 316.982   2
  -9 -14  -3 3469.42 296.378   5
  -9  14  -3 3778.40 328.317   3
  -9 -14  -2 8026.15 420.133   5
  -9  14  -2 8054.35 465.563   3
  -9  14  -2 7639.63 439.476   2
  -9  14  -1 689.755 160.127   2
  -9 -14  -1 410.921 141.007   5
  -9  14   0 15393.0 578.442   2
  -9 -14   0 15721.7 552.077   5
  -9  14   1 1661.39 202.912   2
  -9 -14   2 10676.5 318.554   2
  -9 -14   3 188.627 61.1790   2
  -9 -14   4 4428.65 194.379   2
  -9 -14   5 6914.58 368.622   1
  -9 -14   6 7742.86 390.029   1
  -9 -14   7 3406.09 265.510   1
  -9 -14   8 1163.49 174.698   1
  -9 -14   9 108.198 94.6826   1
  -9  15  -5 2385.21 301.858   2
  -9 -15  -5 2156.58 264.568   5
  -9  15  -5 2202.42 286.213   3
  -9 -15  -4 184.729 107.416   5
  -9  15  -4 297.933 151.196   2
  -9  15  -4 232.184 138.531   3
  -9  15  -3 9145.46 509.245   3
  -9  15  -3 8758.75 494.177   2
  -9 -15  -3 8836.77 473.101   5
  -9 -15  -2 236.231 125.362   5
  -9  15  -2 300.825 127.514   2
  -9  15  -2 253.165 131.340   3
  -9 -15  -1 42741.0 951.656   5
  -9  15  -1 42689.6 997.776   2
  -9 -15   0 346.496 122.755   5
  -9  15   0 408.729 139.352   2
  -9  15   1 9987.72 474.905   2
  -9 -15   5 3730.00 277.246   1
  -9 -15   6-48.1761 89.5153   1
  -9 -15   8 2323.92 228.873   1
  -9 -15   9 2496.73 233.326   1
  -9  16  -5 417.029 169.793   3
  -9 -16  -5 330.036 137.915   5
  -9  16  -5 491.385 158.916   2
  -9 -16  -4 4716.78 369.324   5
  -9  16  -4 4901.18 389.441   2
  -9  16  -4 4442.47 386.380   3
  -9  16  -3 1352.32 206.043   2
  -9 -16  -3 1282.64 203.526   5
  -9  16  -3 1311.17 217.928   3
  -9  16  -2 8649.19 489.228   3
  -9 -16  -2 8332.52 447.763   5
  -9  16  -2 8586.95 470.145   2
  -9  16  -1 4420.61 337.536   2
  -9 -16  -1 4263.14 319.617   5
  -9 -16   0 18611.2 626.696   5
  -9  16   0 18918.4 661.327   2
  -9  16   1 2476.32 254.352   2
  -9 -16   5 5991.81 352.580   1
  -9 -16   6 4143.22 294.316   1
  -9 -16   7 7737.80 393.121   1
  -9 -16   8 3019.86 256.498   1
  -9 -16   9 13074.2 509.856   1
  -9 -17  -5 7986.76 499.013   5
  -9  17  -5 8128.65 515.273   2
  -9  17  -4 13577.3 656.813   3
  -9  17  -4 13430.1 633.419   2
  -9 -17  -4 13813.0 623.003   5
  -9  17  -3 207.850 130.010   2
  -9 -17  -3 163.622 109.065   5
  -9  17  -3 62.8080 109.853   3
  -9 -17  -2 6932.07 414.960   5
  -9  17  -2 6926.00 437.801   2
  -9  17  -2 6997.42 453.754   3
  -9  17  -1 2461.07 262.564   2
  -9 -17  -1 2267.63 241.602   5
  -9  17   0 13179.6 557.590   2
  -9 -17   0 12389.7 525.366   5
  -9  17   1 3353.34 292.870   2
  -9 -17   5 8.34349 86.3449   1
  -9 -17   6 7019.04 379.672   1
  -9 -17   7 2765.87 247.925   1
  -9 -17   8 7153.58 379.659   1
  -9 -18  -4 210.243 126.056   5
  -9  18  -4 285.571 147.513   3
  -9  18  -4 277.474 130.571   2
  -9 -18  -3 2527.77 268.652   5
  -9  18  -3 2692.31 292.996   2
  -9  18  -3 2512.67 293.163   3
  -9 -18  -2 112.497 104.987   5
  -9  18  -2-122.629 117.896   2
  -9  18  -1 1093.89 201.738   2
  -9 -18  -1 761.094 166.608   5
  -9  18   0 2056.44 240.801   2
  -9 -18   0 2083.95 240.643   5
  -9  18   1 4368.38 334.828   2
  -9 -18   6 1710.87 200.240   1
  -9 -18   7 13497.9 526.833   1
  -9 -18   8 4.55755 90.8505   1
  -9  19  -4 8976.12 529.359   2
  -9 -19  -4 9205.20 536.048   5
  -9 -19  -3 8435.41 492.141   5
  -9  19  -3 8274.19 515.647   3
  -9  19  -3 8284.63 499.729   2
  -9  19  -2 3634.69 345.137   3
  -9  19  -2 4694.96 366.800   2
  -9 -19  -2 3999.30 331.595   5
  -9  19  -1 12485.0 578.395   2
  -9 -19  -1 11755.8 550.078   5
  -9  19   0 1228.53 202.549   2
  -9 -19   0 1568.28 220.117   5
  -9  19   1 8173.26 455.107   2
  -9 -19   6 553.466 144.631   1
  -9 -19   7 3080.98 265.746   1
  -9  20  -4 10293.3 569.091   2
  -9  20  -3 133.469 141.321   2
  -9  20  -3 15.1688 111.457   3
  -9 -20  -3-38.8399 120.131   5
  -9  20  -2 8919.96 536.512   3
  -9 -20  -2 8901.21 496.569   5
  -9 -20  -1 140.819 120.785   5
  -9  20  -1 338.912 156.925   2
  -9 -20   0 19535.4 705.642   5
  -9  20   0 20157.1 719.986   2
  -9  20   1 7942.22 451.290   2
  -9 -20   6 13396.8 534.730   1
  -9 -20   7-41.3550 88.8488   1
  -9  21  -4 8046.97 515.735   2
  -9  21  -3 4065.08 365.228   2
  -9  21  -2 233.926 132.694   3
  -9  21  -2 161.487 116.249   2
  -9 -21  -2 198.672 121.300   5
  -9 -21  -1 4705.14 373.186   5
  -9  21  -1 4458.24 368.496   2
  -9 -21   0 95.7572 137.308   5
  -9  21   0 122.724 120.499   2
  -9  21   1 14571.6 611.900   2
  -9 -21   6 814.308 161.014   1
  -9  22  -3 3406.64 339.330   2
  -9  22  -2 669.860 172.465   2
  -9  22  -2 326.601 147.838   3
  -9 -22  -2 395.196 161.868   5
  -9  22  -1 8084.79 479.830   2
  -9 -22  -1 7727.61 479.067   5
  -9 -22   0 4961.94 386.300   5
  -9  22   0 4738.25 359.956   2
  -9 -22   6 287.687 115.074   1
  -9  23  -2 5933.68 433.611   2
  -9 -23  -1-38.3286 136.583   5
  -9  23  -1 206.671 131.353   3
  -9  23  -1 177.579 123.831   2
  -9  23   0 101.741 108.764   2
  -9 -23   0 180.841 119.529   5
  -9  23   1 673.224 166.253   2
  -9  23   2 3937.42 341.914   2
  -9  24  -2 1971.37 263.315   2
  -9  24  -1 1265.13 210.372   2
  -9  24   0 5866.84 413.843   2
  -9  24   1 428.768 150.130   2
  -9  24   2 16470.4 676.469   2
  -9  25  -1 8587.00 507.568   2
  -9  25   0 762.426 181.435   2
  -9  25   1 10635.7 550.431   2
  -9  25   2 423.974 161.736   2
  -9  26  -1 22.9490 116.317   2
  -9  26   0 2475.75 296.342   2
  -9  26   1 538.245 166.587   2
  -9  27   2 821.176 196.945   2
  -8   0  -9-70.5037 111.784   5
  -8   0  -8 13931.5 615.163   5
  -8   0  -7 97.0653 112.059   5
  -8   0  -6 42485.4 931.055   5
  -8   0  -5 29.4053 81.8624   3
  -8   0  -5-17.6517 82.3714   5
  -8   0  -4 53853.7 985.656   3
  -8   0  -4 52690.8 908.300   5
  -8   0  -3-35.2318 75.8282   5
  -8   0  -3 41.0117 51.1672   6
  -8   0  -3 63.5597 93.1052   2
  -8   0  -3 11.4663 82.5368   3
  -8   0  -2 25044.5 372.785   6
  -8   0  -2 26436.2 625.366   3
  -8   0  -2 27252.9 685.736   2
  -8   0  -2 26266.1 554.937   5
  -8   0  -1 71.9296 55.9849   5
  -8   0  -1 188.368 89.9052   2
  -8   0  -1 73.8306 66.2498   3
  -8   0  -1 66.9758 30.9334   6
  -8   0   0 12380.4 319.298   5
  -8   0   0 12272.9 421.789   2
  -8   0   1-2.08248 39.6936   5
  -8   0   1 70.9496 64.8323   2
  -8   0   2 13525.3 431.767   1
  -8   0   2 13689.1 278.272   5
  -8   0   3 107.186 82.4197   1
  -8   0   4 6830.08 318.913   1
  -8   0   4 6150.15 183.543   5
  -8   0   5 84.0125 85.2297   1
  -8   0   5 37.1709 40.0242   5
  -8   0   6 30266.0 689.695   1
  -8   0   6 28328.1 466.234   5
  -8   0   7-8.26840 42.4259   5
  -8   1  -9-75.1269 119.030   5
  -8   1  -8 5501.23 387.433   5
  -8  -1  -8 4911.37 371.615   5
  -8   1  -7 14943.8 591.617   5
  -8  -1  -7 15440.7 603.982   5
  -8   1  -6 245.088 122.184   3
  -8  -1  -6 164.946 116.681   5
  -8   1  -6 151.044 102.585   5
  -8   1  -5 10104.1 458.264   3
  -8   1  -5 10582.8 434.006   5
  -8  -1  -5 9721.20 441.250   3
  -8  -1  -5 9877.98 428.129   5
  -8  -1  -4 10353.8 411.391   5
  -8  -1  -4 10235.9 431.804   3
  -8   1  -4 10265.7 405.383   5
  -8   1  -4 10170.3 441.318   3
  -8  -1  -3 21572.3 633.676   2
  -8   1  -3 20595.5 592.400   3
  -8   1  -3 20935.6 631.653   2
  -8   1  -3 20363.1 520.816   5
  -8  -1  -3 20747.6 580.902   3
  -8  -1  -3 20089.2 412.652   6
  -8   1  -3 19509.7 372.011   6
  -8  -1  -3 20813.3 540.024   5
  -8  -1  -2 14027.2 449.933   3
  -8  -1  -2 13741.6 298.155   6
  -8   1  -2 13843.3 470.212   3
  -8   1  -2 12886.6 246.541   6
  -8   1  -2 13796.8 393.645   5
  -8   1  -2 14453.9 507.861   2
  -8  -1  -2 14214.1 497.697   2
  -8  -1  -2 14212.0 416.157   5
  -8  -1  -1 57177.8 764.323   5
  -8   1  -1 56005.1 872.925   3
  -8  -1  -1 54286.1 512.033   6
  -8   1  -1 57726.7 948.650   2
  -8   1  -1 57905.0 733.143   5
  -8  -1  -1 58721.2 876.940   3
  -8  -1  -1 58455.5 938.873   2
  -8  -1   0 571.281 52.8440   6
  -8  -1   0 581.118 81.2006   5
  -8   1   0 696.681 118.650   2
  -8  -1   0 643.246 108.081   2
  -8   1   0 692.076 80.4551   5
  -8  -1   1 2418.42 138.616   5
  -8   1   1 2124.38 176.224   1
  -8   1   1 2193.80 118.393   5
  -8   1   1 2095.28 182.655   2
  -8  -1   1 2491.70 193.505   2
  -8  -1   2 20745.0 529.529   1
  -8   1   2 20431.2 527.432   1
  -8   1   2 20665.9 316.032   5
  -8  -1   2 20890.7 367.890   5
  -8  -1   3 12028.8 408.485   1
  -8   1   3 11998.3 405.997   1
  -8   1   3 11293.6 219.347   5
  -8  -1   4 11961.7 413.216   1
  -8   1   4 11330.2 224.311   5
  -8  -1   4 11187.6 266.297   5
  -8   1   4 11679.3 406.869   1
  -8  -1   5 327.481 108.428   1
  -8  -1   5 523.037 76.3644   5
  -8   1   5 452.701 62.3996   5
  -8   1   5 553.229 129.138   1
  -8  -1   6 1402.35 116.252   5
  -8   1   6 1225.30 152.749   1
  -8   1   6 1406.12 105.276   5
  -8  -1   6 1212.18 156.683   1
  -8   1   7 272.891 63.4932   5
  -8  -1   7 316.576 72.3901   5
  -8   2  -9 3747.85 348.986   5
  -8  -2  -8 3729.66 327.327   5
  -8   2  -8 3675.85 322.604   5
  -8  -2  -7 2777.38 266.626   5
  -8   2  -7 2547.04 253.036   5
  -8   2  -6 5895.74 350.787   5
  -8  -2  -6 6002.24 361.341   5
  -8   2  -6 6983.41 413.121   3
  -8  -2  -5 2666.21 233.101   5
  -8  -2  -5 2788.55 243.851   3
  -8   2  -5 2625.04 248.347   3
  -8   2  -5 2602.94 223.417   5
  -8   2  -4 7050.40 328.799   5
  -8  -2  -4 6929.18 339.386   5
  -8  -2  -4 6963.36 353.350   3
  -8   2  -4 7409.03 385.538   3
  -8   2  -4 7037.16 393.841   2
  -8   2  -3 29930.1 725.797   3
  -8   2  -3 29850.1 758.332   2
  -8  -2  -3 30080.5 741.752   2
  -8  -2  -3 29392.7 650.979   5
  -8   2  -3 27930.9 424.209   6
  -8  -2  -3 28048.9 508.736   6
  -8   2  -3 29284.7 615.593   5
  -8  -2  -3 30734.3 693.095   3
  -8   2  -2 31031.4 699.407   3
  -8  -2  -2 30607.1 614.273   5
  -8   2  -2 30502.6 575.527   5
  -8   2  -2 27084.0 322.027   6
  -8  -2  -2 29554.6 464.157   6
  -8  -2  -2 31824.6 733.545   2
  -8   2  -2 32124.5 757.033   2
  -8  -2  -2 31573.2 659.547   3
  -8  -2  -1 10145.8 334.992   5
  -8   2  -1 9957.64 297.640   5
  -8  -2  -1 10001.9 355.347   3
  -8   2  -1 10060.4 411.177   2
  -8  -2  -1 10265.9 396.113   2
  -8  -2  -1 9542.89 237.505   6
  -8   2   0 13647.1 311.469   5
  -8  -2   0 13521.7 432.388   2
  -8  -2   0 12724.6 252.303   6
  -8   2   0 13622.6 445.874   2
  -8  -2   0 13218.4 351.991   5
  -8  -2   1 24676.6 446.742   5
  -8  -2   1 23933.5 341.728   6
  -8   2   1 24446.9 562.499   1
  -8   2   1 24815.9 359.690   5
  -8  -2   1 25249.3 565.540   2
  -8   2   2 92.8593 67.8636   1
  -8   2   2 149.445 39.1213   5
  -8  -2   2 121.709 55.0901   5
  -8   2   3 64264.0 927.753   1
  -8   2   3 62307.6 440.642   5
  -8  -2   3 65227.6 953.549   1
  -8   2   3 59757.7 426.928   5
  -8   2   4 802.860 56.5744   5
  -8  -2   4 1176.63 148.250   1
  -8  -2   4 1040.50 94.5903   5
  -8   2   4 1024.31 142.403   1
  -8  -2   5 36039.0 534.902   5
  -8  -2   5 36589.9 734.315   1
  -8   2   5 35486.5 401.612   5
  -8   2   5 36831.9 737.124   1
  -8  -2   6 90.5233 89.2801   1
  -8  -2   6 71.6005 48.5207   5
  -8   2   6 125.813 47.6331   5
  -8   2   6 107.072 82.5396   1
  -8   2   7 5522.41 218.039   5
  -8  -2   7 5819.96 316.548   1
  -8   3  -9 236.866 134.996   5
  -8  -3  -8 7838.29 468.414   5
  -8   3  -8 8009.31 467.802   5
  -8  -3  -7 1013.27 180.148   5
  -8   3  -7 1469.25 198.444   5
  -8   3  -6 2885.55 275.213   3
  -8  -3  -6 3107.78 270.139   5
  -8   3  -6 3112.17 260.456   5
  -8   3  -5 11183.6 442.900   5
  -8  -3  -5 11415.3 469.626   5
  -8   3  -5 11308.4 502.775   3
  -8  -3  -4 167.110 92.4035   3
  -8   3  -4 123.467 83.0904   5
  -8  -3  -4 118.647 93.0326   5
  -8   3  -4 198.324 102.614   3
  -8   3  -4-60.0929 98.4839   2
  -8  -3  -3 903.990 137.442   5
  -8  -3  -3 1084.45 162.115   2
  -8  -3  -3 1081.41 146.457   3
  -8  -3  -3 827.595 106.137   6
  -8   3  -3 1222.48 175.576   3
  -8   3  -3 904.901 161.057   2
  -8   3  -3 786.659 77.4177   6
  -8   3  -3 986.076 126.969   5
  -8   3  -2 9946.92 326.898   5
  -8   3  -2 10087.2 409.276   3
  -8  -3  -2 9946.76 367.158   3
  -8  -3  -2 10315.4 413.882   2
  -8  -3  -2 9355.44 277.672   6
  -8   3  -2 10152.0 431.674   2
  -8   3  -2 8379.80 152.850   6
  -8  -3  -2 9768.25 363.088   5
  -8  -3  -1 6566.46 214.428   6
  -8  -3  -1 6819.24 327.115   2
  -8  -3  -1 6834.95 280.551   5
  -8   3  -1 6663.99 334.246   2
  -8  -3  -1 7246.59 296.799   3
  -8   3  -1 6753.94 242.193   5
  -8  -3   0 84196.8 1069.24   2
  -8  -3   0 80612.1 695.401   6
  -8   3   0 82230.5 727.185   5
  -8   3   0 83544.5 1106.04   2
  -8  -3   0 83066.0 905.312   5
  -8   3   0 83033.8 1026.75   1
  -8   3   1 15637.6 264.721   5
  -8   3   1 15214.1 447.218   1
  -8  -3   1 14902.1 297.026   6
  -8  -3   1 15813.8 373.393   5
  -8  -3   1 15425.6 439.977   2
  -8   3   2 103635. 1162.77   1
  -8   3   2 97118.6 521.686   5
  -8   3   3 7477.04 324.844   1
  -8  -3   3 7358.42 327.511   1
  -8  -3   4 30290.5 655.733   1
  -8   3   4 30387.5 653.752   1
  -8  -3   5 318.051 104.789   1
  -8  -3   5 255.800 69.9431   5
  -8   3   5 375.704 110.646   1
  -8   3   6 9407.51 230.509   5
  -8  -3   6 8955.31 300.221   5
  -8  -3   6 9404.45 384.330   1
  -8   3   7 1453.94 113.471   5
  -8  -3   7 1408.94 171.719   1
  -8   4  -9 3548.44 344.847   5
  -8  -4  -8 4757.29 373.968   5
  -8   4  -8 4469.24 346.465   5
  -8  -4  -7 1930.29 231.405   5
  -8   4  -7 1784.46 223.188   5
  -8   4  -6 12866.0 506.749   5
  -8  -4  -6 12849.3 529.797   5
  -8   4  -6 14191.3 587.515   3
  -8  -4  -5 305.346 110.981   5
  -8   4  -5 295.116 101.134   5
  -8   4  -5 358.096 127.590   3
  -8  -4  -4 40873.1 842.667   5
  -8   4  -4 43133.2 966.671   2
  -8   4  -4 42359.1 931.110   3
  -8  -4  -4 42111.8 826.733   3
  -8   4  -4 40041.8 767.200   5
  -8   4  -3 5374.77 329.252   3
  -8  -4  -3 5631.98 296.557   3
  -8  -4  -3 4898.39 281.173   5
  -8  -4  -3 4870.63 234.898   6
  -8   4  -3 5199.61 332.068   2
  -8   4  -3 5005.44 160.253   6
  -8   4  -3 4731.87 159.469   6
  -8   4  -3 5353.83 264.345   5
  -8   4  -2 26301.4 694.594   2
  -8   4  -2 25525.2 656.560   3
  -8  -4  -2 25636.1 588.224   5
  -8  -4  -2 26662.7 662.130   2
  -8  -4  -2 26241.2 582.567   3
  -8  -4  -2 24310.4 468.871   6
  -8   4  -2 25571.6 508.710   5
  -8  -4  -1 4060.22 225.956   5
  -8   4  -1 3889.01 179.405   5
  -8  -4  -1 3936.19 249.808   2
  -8   4  -1 4052.37 269.061   2
  -8   4  -1 4054.71 230.350   1
  -8  -4  -1 4009.91 218.922   3
  -8  -4  -1 3758.10 176.687   6
  -8  -4   0 19924.6 376.076   6
  -8   4   0 20019.9 502.571   1
  -8  -4   0 20566.4 525.355   2
  -8  -4   0 20046.8 459.826   5
  -8   4   0 19600.8 340.009   5
  -8  -4   0 20236.4 452.440   3
  -8   4   0 19897.4 555.952   2
  -8  -4   1 79499.7 867.319   5
  -8   4   1 80934.0 1015.89   1
  -8   4   1 76922.9 536.873   5
  -8  -4   1 78424.3 733.421   6
  -8  -4   1 79965.5 976.642   2
  -8   4   2 350.460 98.1253   1
  -8  -4   2 380.321 68.2246   6
  -8  -4   3 20601.4 542.909   1
  -8   4   3 19490.8 519.064   1
  -8   4   4 16477.2 487.036   1
  -8  -4   4 15602.6 475.425   1
  -8  -4   5 44715.4 806.278   1
  -8   4   5 45225.1 831.846   1
  -8  -4   5 43044.3 640.496   5
  -8  -4   6 478.020 112.213   1
  -8   4   6 533.972 56.2722   5
  -8   4   7 3473.59 158.753   5
  -8  -4   7 3783.78 260.060   1
  -8   5  -9 8597.28 505.613   5
  -8   5  -8 3116.65 300.370   5
  -8  -5  -8 3680.76 331.883   5
  -8  -5  -7 29130.7 854.706   5
  -8   5  -7 28225.0 803.625   5
  -8  -5  -6 1836.18 212.819   5
  -8   5  -6 1740.29 200.096   5
  -8   5  -6 1976.04 232.321   3
  -8   5  -5 51990.5 940.842   5
  -8   5  -5 54221.9 1111.43   3
  -8   5  -5 53119.1 713.996   6
  -8  -5  -5 52649.3 1027.18   5
  -8   5  -4 589.863 148.921   2
  -8   5  -4 336.395 130.714   3
  -8   5  -4 296.351 88.1728   5
  -8   5  -4 450.613 68.5012   6
  -8  -5  -4 329.877 116.045   5
  -8   5  -3 88063.3 1292.99   3
  -8   5  -3 86911.6 1024.83   5
  -8   5  -3 89250.3 1350.10   2
  -8  -5  -3 85784.6 1165.93   5
  -8  -5  -3 87794.9 1095.51   3
  -8  -5  -3 81980.3 971.309   6
  -8   5  -3 80096.8 617.100   6
  -8   5  -3 81707.6 606.742   6
  -8   5  -2 4586.30 219.156   5
  -8  -5  -2 4625.81 220.266   6
  -8  -5  -2 5014.98 270.100   5
  -8  -5  -2 4834.27 246.192   3
  -8   5  -2 5072.88 314.280   2
  -8   5  -2 4765.30 296.706   3
  -8  -5  -2 4755.64 281.515   2
  -8  -5  -1 31894.4 587.116   3
  -8  -5  -1 31280.2 677.644   2
  -8   5  -1 30285.9 484.433   5
  -8  -5  -1 30703.3 619.424   5
  -8   5  -1 30575.6 613.170   1
  -8  -5  -1 29001.5 504.218   6
  -8   5  -1 30134.7 715.353   2
  -8   5   0 8708.10 372.618   2
  -8  -5   0 8542.79 263.401   6
  -8  -5   0 8777.89 342.975   2
  -8   5   0 8569.37 217.159   5
  -8  -5   0 8971.15 300.363   3
  -8   5   0 8565.89 330.006   1
  -8  -5   0 8544.92 311.660   5
  -8  -5   1 13673.8 330.160   6
  -8   5   1 14084.2 426.692   1
  -8   5   1 12816.4 197.250   5
  -8  -5   1 13745.1 373.994   5
  -8  -5   1 13668.3 406.296   2
  -8  -5   2 1563.19 145.883   2
  -8   5   2 1521.98 153.018   1
  -8  -5   2 1660.48 121.798   6
  -8   5   3 1275.59 155.263   1
  -8  -5   4 72.8849 72.0716   1
  -8   5   4 326.660 105.861   1
  -8  -5   5 9382.54 383.745   1
  -8  -5   5 8908.04 307.022   5
  -8  -5   6 659.643 126.463   1
  -8  -5   7 12339.2 450.708   1
  -8   5   7 12443.1 282.805   5
  -8   6  -9 397.842 154.429   5
  -8  -6  -8 6977.91 457.002   5
  -8   6  -8 6691.61 425.982   5
  -8   6  -7 4041.19 351.299   3
  -8  -6  -7 3617.63 318.776   5
  -8   6  -7 3283.83 288.438   5
  -8  -6  -6 17135.6 625.956   5
  -8   6  -6 17662.3 672.441   3
  -8   6  -6 16516.7 575.269   5
  -8   6  -5 8332.57 381.192   5
  -8   6  -5 8607.10 455.178   3
  -8   6  -5 8263.90 281.427   6
  -8  -6  -5 8593.58 429.535   5
  -8   6  -4 14733.0 463.873   5
  -8   6  -4 15619.4 327.796   6
  -8   6  -4 16068.8 586.773   3
  -8   6  -4 15997.7 597.559   2
  -8  -6  -4 14905.4 521.160   5
  -8   6  -3 465.191 94.3761   5
  -8   6  -3 413.963 128.226   3
  -8   6  -3 572.182 142.728   2
  -8  -6  -3 674.703 135.312   5
  -8  -6  -3 652.071 113.488   3
  -8   6  -3 529.479 52.4598   6
  -8   6  -2 34512.1 581.312   5
  -8   6  -2 34874.1 806.742   2
  -8   6  -2 34729.8 646.408   1
  -8   6  -2 35664.3 806.344   3
  -8  -6  -2 33274.0 598.436   6
  -8  -6  -2 35390.1 639.688   3
  -8  -6  -2 35724.9 751.584   2
  -8  -6  -2 34934.3 713.425   5
  -8  -6  -1 13504.4 443.903   2
  -8   6  -1 12896.8 398.337   1
  -8  -6  -1 13438.8 372.641   3
  -8   6  -1 13148.3 475.602   2
  -8   6  -1 13059.7 314.723   5
  -8  -6  -1 13322.1 420.845   5
  -8  -6  -1 12674.2 351.316   6
  -8   6   0 19730.4 561.758   2
  -8  -6   0 20103.1 510.417   2
  -8  -6   0 18919.0 413.610   6
  -8   6   0 18831.3 483.606   1
  -8  -6   0 19863.7 483.938   5
  -8   6   0 18890.1 307.282   5
  -8  -6   0 19654.8 423.564   3
  -8  -6   1 2319.52 176.941   2
  -8  -6   1 2169.26 142.730   6
  -8   6   1 2412.05 189.084   1
  -8  -6   1 2466.63 168.938   5
  -8   6   1 1825.11 66.1011   5
  -8  -6   2 244.615 76.0314   2
  -8   6   2 239.856 82.9128   1
  -8  -6   2 286.590 68.5297   6
  -8   6   3 42532.5 762.390   1
  -8   6   4 2655.26 211.925   1
  -8  -6   4 2765.68 214.467   1
  -8  -6   5 1791.65 183.650   1
  -8  -6   6 354.991 116.344   1
  -8  -6   7 4066.52 268.665   1
  -8  -6   8 11767.6 447.832   1
  -8  -7  -8 5085.72 389.073   5
  -8   7  -8 4796.00 359.255   5
  -8   7  -7 3387.85 328.424   3
  -8   7  -7 2944.04 270.432   5
  -8  -7  -7 3082.03 289.777   5
  -8  -7  -6 3044.19 275.014   5
  -8   7  -6 3424.09 315.250   3
  -8   7  -6 2421.96 230.126   5
  -8   7  -5 90.9640 107.590   3
  -8   7  -5 99.8050 82.4055   5
  -8  -7  -5 238.062 112.197   5
  -8   7  -4 3483.52 232.379   5
  -8   7  -4 2793.99 141.874   6
  -8   7  -4 3243.65 285.653   2
  -8   7  -4 3013.76 270.422   3
  -8  -7  -4 3183.33 256.242   5
  -8   7  -3 12399.9 388.669   5
  -8  -7  -3 12509.1 461.324   5
  -8   7  -3 13312.3 532.334   2
  -8   7  -3 11412.3 209.108   6
  -8   7  -3 12621.1 506.902   3
  -8   7  -3 12145.4 381.193   1
  -8   7  -2 15290.5 385.645   5
  -8   7  -2 14872.4 536.154   2
  -8   7  -2 14997.2 420.941   1
  -8  -7  -2 15638.7 413.543   3
  -8   7  -2 15627.3 541.449   3
  -8  -7  -2 15396.1 484.300   5
  -8  -7  -1 8996.97 362.011   2
  -8  -7  -1 8896.30 355.210   5
  -8   7  -1 9426.76 411.364   2
  -8  -7  -1 8860.71 308.989   6
  -8   7  -1 9061.23 333.819   1
  -8  -7  -1 8965.64 298.051   3
  -8   7  -1 8506.89 250.454   5
  -8   7   0 27134.7 356.778   5
  -8   7   0 27761.4 578.673   1
  -8  -7   0 28601.1 609.097   2
  -8  -7   0 27434.0 585.883   5
  -8  -7   0 26569.2 512.450   6
  -8   7   0 27734.3 671.311   2
  -8  -7   0 27916.5 486.913   3
  -8  -7   1 907.879 105.775   6
  -8  -7   1 984.350 122.520   2
  -8   7   1 904.121 120.950   1
  -8   7   2 16210.6 466.004   1
  -8  -7   2 15397.4 391.390   6
  -8  -7   2 15788.8 410.516   2
  -8   7   3 201.485 101.812   1
  -8  -7   3 150.909 65.2410   6
  -8  -7   4 27523.0 637.967   1
  -8  -7   5 2806.78 176.498   4
  -8  -7   5 2969.80 224.544   1
  -8  -7   6 60457.1 961.290   1
  -8  -7   7 18220.4 540.110   1
  -8  -7   8 6701.87 343.731   1
  -8   8  -8 1183.19 200.740   5
  -8  -8  -8 1097.46 206.654   5
  -8   8  -7 1424.62 233.582   3
  -8  -8  -7 788.172 162.732   5
  -8   8  -7 1077.66 178.957   5
  -8   8  -6 80.9764 124.624   3
  -8  -8  -6 336.942 127.160   5
  -8   8  -6 263.952 94.7322   5
  -8   8  -5 315.397 95.7771   5
  -8   8  -5 318.655 81.1710   1
  -8  -8  -5 419.540 129.863   5
  -8   8  -5 625.324 168.622   3
  -8   8  -4 11752.4 414.933   5
  -8   8  -4 11799.6 277.066   6
  -8   8  -4 12201.1 534.895   2
  -8  -8  -4 11939.7 484.091   5
  -8   8  -4 12342.4 533.060   3
  -8   8  -4 12187.0 376.169   1
  -8   8  -3 4851.04 248.326   5
  -8   8  -3 4895.54 332.051   2
  -8   8  -3 4921.74 245.622   1
  -8   8  -3 4403.43 131.435   6
  -8   8  -3 5390.18 345.320   3
  -8  -8  -3 4744.02 295.627   5
  -8   8  -2 507.889 83.4884   5
  -8   8  -2 380.315 76.9098   1
  -8   8  -2 447.569 126.238   2
  -8  -8  -2 394.241 99.3544   5
  -8   8  -2 597.403 131.946   3
  -8  -8  -2 477.654 77.3030   3
  -8  -8  -1 52125.2 860.365   5
  -8   8  -1 53198.6 977.848   2
  -8   8  -1 51724.0 775.088   1
  -8  -8  -1 52232.2 849.990   2
  -8  -8  -1 52966.7 685.072   3
  -8   8  -1 50733.0 600.813   5
  -8   8   0 482.880 119.432   2
  -8  -8   0 441.016 99.6471   5
  -8   8   0 369.485 47.3677   5
  -8  -8   0 419.839 70.8648   3
  -8  -8   0 289.212 88.0133   2
  -8   8   0 610.941 104.074   1
  -8  -8   0 365.046 82.8891   6
  -8  -8   1 74903.7 909.921   2
  -8   8   1 73485.0 960.723   1
  -8  -8   1 71094.8 866.378   6
  -8  -8   1 75271.1 719.831   3
  -8  -8   2 10970.1 336.394   2
  -8   8   2 11200.0 389.847   1
  -8  -8   2 10847.5 343.231   6
  -8   8   3 38637.4 738.635   1
  -8  -8   4 675.899 95.7155   4
  -8  -8   4 678.143 117.643   1
  -8  -8   5 17688.4 524.166   1
  -8  -8   5 17155.6 409.517   4
  -8  -8   6 3203.90 237.847   1
  -8  -8   7 3141.33 232.510   1
  -8  -8   8 1108.54 158.933   1
  -8   9  -8 3208.33 303.908   5
  -8  -9  -8 3289.08 326.822   5
  -8  -9  -7 19578.3 727.635   5
  -8   9  -7 20015.9 775.969   3
  -8   9  -7 19118.9 662.206   5
  -8  -9  -6 307.509 134.298   5
  -8   9  -6 250.939 107.134   5
  -8   9  -6 627.605 158.734   3
  -8   9  -5 37893.9 638.839   1
  -8  -9  -5 36015.3 886.531   5
  -8   9  -5 37148.1 796.787   5
  -8  -9  -4 34.9829 87.3036   5
  -8   9  -4 139.389 84.9299   1
  -8   9  -4 62.6530 117.832   2
  -8   9  -4 191.763 131.929   3
  -8   9  -4 58.0632 70.4537   5
  -8   9  -3 35447.2 874.166   2
  -8  -9  -3 33829.0 784.994   5
  -8   9  -3 34715.4 623.297   1
  -8   9  -3 30596.7 337.060   6
  -8   9  -3 33501.7 633.465   5
  -8   9  -3 35547.9 872.339   3
  -8   9  -2 2163.77 162.135   1
  -8  -9  -2 2296.32 205.635   5
  -8   9  -2 2122.18 149.270   5
  -8   9  -2 2285.76 226.801   2
  -8   9  -2 2156.60 211.938   3
  -8   9  -1 62704.7 1062.58   2
  -8  -9  -1 60979.8 699.040   3
  -8  -9  -1 60959.2 951.177   5
  -8  -9  -1 62822.9 924.206   2
  -8   9  -1 59492.1 831.454   1
  -8   9  -1 59614.1 648.338   5
  -8  -9   0 2754.40 201.739   5
  -8  -9   0 2668.85 185.349   2
  -8  -9   0 2811.98 143.375   3
  -8   9   0 2531.60 181.740   1
  -8   9   0 2754.60 225.754   2
  -8   9   1 26498.6 580.317   1
  -8  -9   1 26100.7 397.071   3
  -8  -9   1 26732.9 541.502   2
  -8   9   2 13783.5 434.743   1
  -8  -9   2 13411.3 367.597   2
  -8  -9   3 4394.17 209.038   2
  -8  -9   4 12495.2 438.544   1
  -8  -9   4 12778.4 357.595   4
  -8  -9   5 297.562 104.403   1
  -8  -9   5 375.441 74.5700   4
  -8  -9   6 9214.28 388.475   1
  -8  -9   7 6913.36 337.904   1
  -8  -9   8 244.644 94.9171   1
  -8  10  -8 1158.41 192.757   5
  -8  10  -7 148.312 114.111   5
  -8  10  -7 275.245 141.761   3
  -8 -10  -7 400.515 157.057   5
  -8  10  -6 8853.75 503.793   3
  -8  10  -6 7994.29 407.029   5
  -8 -10  -6 7834.31 450.866   5
  -8  10  -5 1664.26 233.880   3
  -8  10  -5 1317.97 167.256   5
  -8  10  -5 1753.18 230.715   2
  -8 -10  -5 1587.98 215.080   5
  -8 -10  -4 46219.8 971.217   5
  -8  10  -4 48648.3 1067.80   2
  -8  10  -4 45997.4 818.274   5
  -8  10  -4 46884.8 698.599   1
  -8  10  -4 49018.8 1079.35   3
  -8 -10  -3 2167.08 211.129   5
  -8  10  -3 2168.98 161.183   1
  -8  10  -3 1982.18 163.067   5
  -8  10  -3 2425.58 251.067   2
  -8  10  -3 2426.35 248.123   3
  -8  10  -2 17839.0 601.450   3
  -8 -10  -2 18057.2 558.453   5
  -8  10  -2 18674.3 611.060   2
  -8  10  -2 17268.1 438.454   1
  -8  10  -2 17602.4 411.517   5
  -8  10  -1 1075.74 127.156   1
  -8  10  -1 1138.73 176.860   2
  -8 -10  -1 1105.27 149.083   5
  -8  10   0 1137.39 127.826   1
  -8 -10   0 1258.24 131.176   2
  -8 -10   0 1006.81 137.547   5
  -8  10   0 1375.74 173.403   2
  -8 -10   0 1180.58 86.3205   3
  -8 -10   1 15750.1 280.519   3
  -8  10   1 15696.7 450.532   1
  -8 -10   1 16496.9 421.211   2
  -8 -10   2 15369.4 384.772   2
  -8 -10   3 469.869 76.1041   2
  -8 -10   4 39.5968 45.4313   4
  -8 -10   5 461.535 79.6847   4
  -8 -10   5 566.156 107.921   1
  -8 -10   6 40131.1 795.800   1
  -8 -10   7 343.293 107.849   1
  -8 -10   8 2890.36 229.271   1
  -8  11  -8 3156.05 309.890   5
  -8  11  -7 14604.7 587.100   5
  -8  11  -7 14913.7 682.900   3
  -8 -11  -7 14078.6 641.320   5
  -8 -11  -6 139.767 121.193   5
  -8  11  -6 172.957 134.232   3
  -8  11  -6 216.600 106.700   5
  -8  11  -5 23796.4 802.390   3
  -8  11  -5 24100.0 796.882   2
  -8 -11  -5 22069.4 721.038   5
  -8  11  -5 21261.6 611.177   5
  -8  11  -4 15.3455 76.2436   5
  -8  11  -4 80.1714 62.8522   1
  -8  11  -4 111.540 109.578   3
  -8 -11  -4 8.97816 82.8727   5
  -8  11  -4-43.8796 95.6598   2
  -8 -11  -3 3196.32 257.698   5
  -8  11  -3 2994.57 270.839   2
  -8  11  -3 3144.52 275.438   3
  -8  11  -3 3266.06 189.680   1
  -8  11  -3 3472.99 210.077   5
  -8  11  -2 1464.86 194.446   3
  -8 -11  -2 1305.33 170.360   5
  -8  11  -2 1381.08 135.851   1
  -8  11  -2 1315.02 181.729   2
  -8  11  -1 19774.1 475.370   1
  -8 -11  -1 19593.5 570.660   5
  -8  11  -1 20869.0 632.590   2
  -8  11   0 9123.93 409.802   2
  -8  11   0 9142.98 335.575   1
  -8 -11   0 8913.41 371.771   5
  -8 -11   0 9033.38 323.879   2
  -8 -11   1 2201.02 89.8996   3
  -8 -11   1 2610.69 172.046   2
  -8 -11   2 8732.53 285.825   2
  -8 -11   2 7820.21 168.570   3
  -8 -11   3 1186.59 108.080   2
  -8 -11   4 437.266 70.5415   4
  -8 -11   5 8832.50 281.802   4
  -8 -11   5 8811.24 380.916   1
  -8 -11   6 8488.73 374.065   1
  -8 -11   7 6253.89 327.146   1
  -8 -11   8 832.056 139.711   1
  -8  12  -8 1236.88 195.225   5
  -8 -12  -7 1763.50 246.593   5
  -8  12  -7 1815.04 262.374   3
  -8  12  -7 1419.23 203.455   5
  -8  12  -6 245.306 124.629   3
  -8  12  -6 57.7056 99.2659   5
  -8 -12  -6 115.791 109.258   5
  -8 -12  -5 451.559 148.121   5
  -8  12  -5 562.175 167.842   3
  -8  12  -5 463.383 140.262   2
  -8  12  -5 348.389 112.826   5
  -8  12  -4 653.313 143.847   2
  -8  12  -4 793.349 159.819   3
  -8 -12  -4 551.211 130.660   5
  -8  12  -4 718.494 113.156   5
  -8  12  -3 178.577 113.793   2
  -8 -12  -3 158.950 92.1956   5
  -8  12  -3 120.103 53.5435   1
  -8  12  -3 122.557 104.125   3
  -8  12  -2 1677.34 210.771   3
  -8  12  -2 1290.67 175.010   2
  -8  12  -2 1345.42 127.710   1
  -8 -12  -2 1228.72 166.371   5
  -8 -12  -1 29037.8 706.988   5
  -8  12  -1 30360.9 767.236   2
  -8  12  -1 29132.6 580.974   1
  -8  12   0 7813.76 387.684   2
  -8 -12   0 7266.34 349.461   5
  -8 -12   1 1935.15 142.424   2
  -8 -12   2 5730.53 228.860   2
  -8 -12   3 34749.7 530.114   2
  -8 -12   3 33270.4 588.333   4
  -8 -12   4-27.0040 43.9827   4
  -8 -12   4-24.4228 48.1234   2
  -8 -12   5 16929.8 527.598   1
  -8 -12   6 3109.95 239.179   1
  -8 -12   7 20496.0 581.611   1
  -8 -12   8 1419.91 166.259   1
  -8  13  -8 825.954 182.915   5
  -8  13  -7 1670.99 254.878   3
  -8 -13  -7 1886.45 259.286   5
  -8  13  -7 1862.50 225.963   5
  -8  13  -6 318.048 140.050   3
  -8 -13  -6 272.516 139.374   5
  -8  13  -6 141.668 98.6708   5
  -8  13  -5 2109.04 206.383   5
  -8 -13  -5 1903.52 238.139   5
  -8  13  -5 2209.44 268.728   3
  -8  13  -5 2189.05 256.108   2
  -8  13  -4 2000.93 239.481   3
  -8 -13  -4 2027.76 226.706   5
  -8  13  -4 2156.15 252.614   2
  -8  13  -3 224.830 120.447   2
  -8  13  -3-95.2490 98.8685   3
  -8 -13  -3 38.5734 92.1304   5
  -8 -13  -2 5507.52 329.229   5
  -8  13  -2 5693.35 355.595   2
  -8  13  -2 5606.32 361.564   3
  -8  13  -1 988.435 161.144   2
  -8 -13  -1 942.844 157.022   5
  -8  13   0 39675.8 868.477   2
  -8 -13   2 28492.6 483.948   2
  -8 -13   3 973.311 110.240   4
  -8 -13   3 958.325 93.2908   2
  -8 -13   4 2823.80 147.699   2
  -8 -13   4 2293.61 146.501   4
  -8 -13   5 22824.1 614.777   1
  -8 -13   6 16234.2 516.135   1
  -8 -13   7 318.630 106.141   1
  -8 -13   8 3915.79 263.071   1
  -8  14  -6 9601.37 553.808   3
  -8 -14  -6 9048.65 512.129   5
  -8  14  -5 716.202 175.202   2
  -8  14  -5 878.605 193.912   3
  -8 -14  -5 645.673 164.524   5
  -8  14  -4 10660.1 535.991   3
  -8 -14  -4 10262.1 494.614   5
  -8  14  -4 10477.8 520.602   2
  -8  14  -3 233.576 121.154   2
  -8  14  -3 66.0761 103.148   3
  -8 -14  -3 134.515 105.809   5
  -8 -14  -2 15214.1 555.615   5
  -8  14  -2 16283.7 592.450   2
  -8  14  -2 16460.5 613.843   3
  -8 -14  -1 3616.49 269.588   5
  -8  14  -1 3858.23 296.805   2
  -8  14   0 5912.19 344.744   2
  -8 -14   2 1168.73 97.0073   2
  -8 -14   3 8011.51 232.936   2
  -8 -14   4 4334.50 167.437   2
  -8 -14   5 2721.63 222.698   1
  -8 -14   6 1681.95 174.833   1
  -8 -14   7 634.262 120.412   1
  -8 -14   8 282.575 100.407   1
  -8 -14   9-63.8638 92.1635   1
  -8 -15  -6 1725.71 251.041   5
  -8  15  -6 1406.15 235.965   3
  -8  15  -5 29090.4 933.479   3
  -8 -15  -5 27473.6 855.041   5
  -8  15  -5 29978.3 907.989   2
  -8  15  -4 86.4095 102.916   2
  -8 -15  -4 354.992 125.091   5
  -8  15  -4 581.427 171.410   3
  -8 -15  -3 31634.3 843.561   5
  -8  15  -3 30906.7 887.169   3
  -8  15  -3 32321.8 876.470   2
  -8  15  -2 4677.85 339.197   3
  -8 -15  -2 4283.98 307.655   5
  -8  15  -2 4744.67 328.695   2
  -8 -15  -1 31694.7 791.674   5
  -8  15  -1 32146.5 816.717   2
  -8  15   0 264.477 98.1242   2
  -8 -15   3 5410.63 172.624   2
  -8 -15   5 168.691 97.2860   1
  -8 -15   6 162.077 89.8965   1
  -8 -15   7 6320.97 332.562   1
  -8 -15   8 226.272 107.048   1
  -8 -15   9 1199.55 159.766   1
  -8 -16  -6 5673.09 419.219   5
  -8  16  -6 6085.53 452.621   3
  -8 -16  -5 1089.61 200.834   5
  -8  16  -5 1389.17 236.094   3
  -8  16  -5 1270.72 220.004   2
  -8  16  -4 9721.92 513.135   2
  -8 -16  -4 9329.47 496.003   5
  -8  16  -4 9281.42 513.347   3
  -8 -16  -3 1276.15 192.407   5
  -8  16  -3 1254.59 197.421   2
  -8  16  -3 1477.92 221.705   3
  -8  16  -2 9994.46 507.819   3
  -8  16  -2 9900.93 478.701   2
  -8 -16  -2 10763.6 488.946   5
  -8  16  -1 4310.76 317.613   2
  -8 -16  -1 4524.01 315.094   5
  -8  16   0 15342.7 563.701   2
  -8 -16   6 13229.9 479.572   1
  -8 -16   7 4758.25 292.502   1
  -8 -16   8 4654.31 287.837   1
  -8  17  -5 2374.95 296.518   3
  -8 -17  -5 2268.33 270.517   5
  -8  17  -5 2266.42 271.098   2
  -8 -17  -4 261.866 130.983   5
  -8  17  -4 463.514 153.910   3
  -8  17  -4 300.953 118.758   2
  -8  17  -3 2292.95 267.917   3
  -8  17  -3 1943.64 230.700   2
  -8 -17  -3 1903.67 236.064   5
  -8  17  -2 1136.43 183.753   2
  -8 -17  -2 1096.60 183.567   5
  -8  17  -2 1103.60 193.811   3
  -8  17  -1 16.5117 91.3771   2
  -8 -17  -1 151.296 100.604   5
  -8  17   0 29802.8 786.468   2
  -8 -17   6 14160.5 499.674   1
  -8 -17   7 85.5962 92.9122   1
  -8 -17   8 1068.66 154.830   1
  -8  18  -5 125.487 130.131   2
  -8 -18  -5 157.081 129.761   5
  -8  18  -5 129.538 142.015   3
  -8 -18  -4 6955.26 442.313   5
  -8  18  -4 7621.13 486.828   3
  -8  18  -4 7374.79 454.894   2
  -8 -18  -3 183.466 127.214   5
  -8  18  -3 177.429 131.739   2
  -8  18  -3 136.704 129.079   3
  -8  18  -2 11152.8 550.439   3
  -8 -18  -2 11303.1 522.541   5
  -8  18  -2 10991.1 512.875   2
  -8 -18  -1 7385.89 413.662   5
  -8  18  -1 7938.80 427.500   2
  -8  18   0 310.824 121.042   2
  -8 -18   6 977.003 150.727   1
  -8 -18   7 14703.6 507.545   1
  -8 -18   8 261.722 104.810   1
  -8 -19  -5 5317.19 406.281   5
  -8  19  -5 5487.63 430.837   3
  -8  19  -4 262.580 143.419   3
  -8  19  -4 364.466 141.150   2
  -8 -19  -4 562.340 170.576   5
  -8  19  -3 5450.42 416.945   3
  -8 -19  -3 5928.44 399.725   5
  -8  19  -3 5672.69 392.499   2
  -8  19  -2 153.979 118.327   3
  -8  19  -2 255.608 129.595   2
  -8 -19  -2 323.658 142.825   5
  -8  19  -1 14131.6 572.751   2
  -8 -19  -1 14824.6 594.227   5
  -8  19   0 208.752 112.595   2
  -8  19   1 9316.00 459.235   2
  -8 -19   6 1346.44 177.972   1
  -8 -19   7 1378.83 171.096   1
  -8  20  -4 30523.2 925.427   2
  -8 -20  -4 31426.8 948.913   5
  -8  20  -4 31369.2 992.999   3
  -8  20  -3 785.213 167.545   2
  -8  20  -3 491.749 153.582   3
  -8 -20  -3 527.745 152.893   5
  -8  20  -2 17903.6 713.113   3
  -8  20  -2 18495.5 674.088   2
  -8 -20  -2 17862.3 676.239   5
  -8  20  -1 226.769 132.588   2
  -8 -20  -1 367.681 144.730   5
  -8  20   0 7160.97 406.620   2
  -8  20   1 646.583 156.879   2
  -8 -20   6-25.2503 84.0410   1
  -8 -20   7 156.299 102.671   1
  -8  21  -4 3610.36 361.208   3
  -8 -21  -4 4147.69 368.882   5
  -8  21  -3 1578.71 248.780   3
  -8  21  -3 1155.09 199.973   2
  -8 -21  -3 1254.92 208.600   5
  -8  21  -2-107.096 122.146   2
  -8 -21  -2 166.897 147.911   5
  -8 -21  -1 10875.4 528.232   5
  -8  21  -1 11383.2 531.466   2
  -8  21   0 1175.93 188.127   2
  -8  21   1 3899.20 311.090   2
  -8 -21   6 6226.03 346.409   1
  -8  22  -4 1012.10 206.335   2
  -8  22  -3 2091.79 284.681   3
  -8 -22  -3 1451.20 225.009   5
  -8  22  -3 1469.84 227.192   2
  -8  22  -2 6426.32 457.315   3
  -8 -22  -2 5761.40 409.506   5
  -8  22  -2 6048.65 408.391   2
  -8  22  -1 4646.71 354.965   2
  -8 -22  -1 4658.82 364.965   5
  -8  22   0 822.060 160.833   2
  -8  22   1 14336.2 585.614   2
  -8 -22   6 536.994 132.432   1
  -8  23  -4 958.717 192.496   2
  -8  23  -3 10002.8 533.892   2
  -8  23  -3 9746.27 569.699   3
  -8  23  -2 1505.71 248.875   3
  -8  23  -2 2128.41 258.293   2
  -8 -23  -2 1721.54 238.057   5
  -8  23  -1 2322.02 265.020   2
  -8 -23  -1 2238.49 268.035   5
  -8  23   0 1841.72 231.183   2
  -8  23   1 2480.26 261.331   2
  -8  24  -4 4247.20 365.240   2
  -8  24  -3-117.590 141.380   2
  -8  24  -2 3404.09 319.295   2
  -8  24  -2 3427.30 344.674   3
  -8 -24  -1 375.001 156.898   5
  -8  24  -1 264.546 141.122   2
  -8  24   0 4262.00 342.701   2
  -8  24   1 5201.25 374.773   2
  -8  25  -2 685.399 166.175   2
  -8  25  -1 13922.2 661.562   3
  -8  25  -1 13279.8 594.337   2
  -8  25   0 1073.90 190.506   2
  -8  25   1 6447.79 414.202   2
  -8  25   2 1130.21 195.450   2
  -8  26  -2 4053.99 355.216   2
  -8  26  -1 2291.41 266.772   2
  -8  26   0 3514.59 324.304   2
  -8  26   1 460.466 160.190   2
  -8  26   2 126.312 117.025   2
  -8  27  -1 1535.12 230.769   2
  -8  27   0 1086.81 193.495   2
  -8  27   1 585.345 170.058   2
  -8  27   2 7304.89 445.067   2
  -7   0  -9 142.385 135.168   5
  -7   0  -8 37536.9 961.605   5
  -7   0  -7-13.2477 98.7301   5
  -7   0  -6 636.165 127.721   5
  -7   0  -5 13.6922 81.5041   5
  -7   0  -5-24.2953 73.5379   3
  -7   0  -4 4789.80 266.077   5
  -7   0  -4 4899.51 226.843   6
  -7   0  -4 4862.30 287.041   3
  -7   0  -3 132.670 78.8490   5
  -7   0  -3-47.2164 73.0921   3
  -7   0  -3 30.4329 44.0140   6
  -7   0  -3-5.58822 76.2088   2
  -7   0  -2 10102.5 393.714   2
  -7   0  -2 10043.2 239.956   6
  -7   0  -2 10253.8 369.367   3
  -7   0  -2 9864.17 324.106   5
  -7   0  -1-3.01450 50.6719   5
  -7   0  -1-58.6854 71.8452   3
  -7   0  -1 64.1295 32.9774   6
  -7   0  -1 37.4546 61.1488   2
  -7   0   0 14450.0 322.616   5
  -7   0   0 15019.5 425.242   2
  -7   0   0 13246.8 193.097   6
  -7   0   1 69.5383 41.0557   5
  -7   0   2 11690.0 368.627   1
  -7   0   2 11674.0 239.311   5
  -7   0   3-11.0243 68.2777   1
  -7   0   4 66966.6 589.902   5
  -7   0   4 69940.7 925.540   1
  -7   0   5 251.017 96.9668   1
  -7   0   5 41.4459 39.1724   5
  -7   0   6 37388.2 547.124   5
  -7   0   6 38705.2 734.038   1
  -7   0   7 143.008 57.0151   5
  -7   1  -9 21537.1 771.129   5
  -7  -1  -9 22184.7 792.492   5
  -7  -1  -8 1847.39 230.625   5
  -7   1  -8 2050.93 239.954   5
  -7  -1  -7 1024.38 168.540   5
  -7   1  -7 1307.90 191.285   5
  -7  -1  -6 1971.46 205.382   5
  -7   1  -6 1779.70 193.140   5
  -7   1  -6 2081.78 231.373   3
  -7   1  -5 2720.39 236.401   3
  -7  -1  -5 2547.91 215.530   5
  -7  -1  -5 2749.73 236.808   3
  -7   1  -5 2753.86 219.052   5
  -7   1  -4 963.309 138.897   5
  -7   1  -4 903.729 141.908   3
  -7   1  -4 790.867 98.0572   6
  -7  -1  -4 776.456 101.556   6
  -7  -1  -4 910.370 132.752   3
  -7  -1  -4 916.275 133.857   5
  -7  -1  -3 964.556 125.054   5
  -7   1  -3 876.578 91.2506   6
  -7   1  -3 912.118 135.039   3
  -7  -1  -3 1071.71 109.347   6
  -7   1  -3 836.989 138.401   2
  -7   1  -3 928.388 123.685   5
  -7  -1  -3 830.065 120.193   3
  -7  -1  -3 908.559 143.981   2
  -7   1  -2 2585.71 168.016   5
  -7  -1  -2 2374.56 168.295   5
  -7  -1  -2 2456.27 199.563   2
  -7   1  -2 2740.82 199.709   3
  -7  -1  -2 2399.43 126.648   6
  -7   1  -2 2508.99 113.482   6
  -7   1  -2 3206.64 227.577   2
  -7  -1  -2 2478.97 182.395   3
  -7   1  -1 3406.24 221.986   2
  -7  -1  -1 3377.33 197.612   3
  -7   1  -1 3529.64 177.075   5
  -7  -1  -1 3285.82 179.248   5
  -7  -1  -1 3234.98 126.905   6
  -7   1  -1 3054.19 95.1222   6
  -7  -1  -1 3464.75 220.160   2
  -7  -1   0 23799.4 301.158   6
  -7  -1   0 25003.2 544.850   2
  -7  -1   0 24266.7 431.422   5
  -7   1   0 24072.4 546.457   2
  -7   1   0 24362.0 399.332   5
  -7   1   1 24051.4 350.043   5
  -7   1   1 24684.4 529.583   1
  -7  -1   1 23842.3 299.270   6
  -7  -1   1 24251.8 394.351   5
  -7   1   2 23692.2 309.579   5
  -7  -1   2 23796.2 526.335   1
  -7   1   2 23779.4 523.643   1
  -7   1   3 4693.06 133.073   5
  -7  -1   3 4805.89 245.977   1
  -7   1   3 4833.93 241.192   1
  -7   1   4 14836.2 429.500   1
  -7  -1   4 15058.4 430.851   1
  -7  -1   4 14833.4 298.925   5
  -7   1   4 15204.3 260.137   5
  -7  -1   5 37135.7 689.746   1
  -7   1   5 37457.5 463.538   5
  -7  -1   5 37002.9 512.855   5
  -7   1   5 38484.7 709.438   1
  -7  -1   6 399.833 73.7784   5
  -7  -1   6 463.839 106.416   1
  -7   1   6 416.063 67.8572   5
  -7   1   7 31297.3 541.117   5
  -7  -1   7 31222.2 562.598   5
  -7  -2  -9-18.0836 106.023   5
  -7   2  -9-82.1205 121.608   5
  -7   2  -8 2966.32 277.575   5
  -7  -2  -8 2779.24 272.170   5
  -7  -2  -7 5942.88 367.972   5
  -7   2  -7 5616.55 359.410   5
  -7   2  -6 4336.65 314.487   3
  -7   2  -6 3749.16 275.927   5
  -7  -2  -6 4229.00 297.060   5
  -7  -2  -5 14643.9 508.836   3
  -7   2  -5 14979.6 543.384   3
  -7  -2  -5 13632.4 486.919   5
  -7   2  -5 13556.3 468.343   5
  -7   2  -4 1262.20 145.081   5
  -7  -2  -4 1281.06 156.679   5
  -7   2  -4 1181.53 114.024   6
  -7  -2  -4 1162.33 131.120   6
  -7  -2  -4 1290.86 157.853   3
  -7   2  -4 1329.52 170.094   3
  -7   2  -4 1085.55 161.658   2
  -7  -2  -3 68851.4 952.495   5
  -7   2  -3 68817.5 903.240   5
  -7  -2  -3 67777.5 783.140   6
  -7   2  -3 70313.4 1043.10   3
  -7  -2  -3 69712.6 1067.90   2
  -7  -2  -3 70364.5 984.101   3
  -7   2  -3 67632.5 675.271   6
  -7   2  -3 70743.3 1097.02   2
  -7   2  -2 887.849 135.361   2
  -7   2  -2 788.728 98.1883   5
  -7  -2  -2 623.328 95.6528   3
  -7   2  -2 742.055 114.384   3
  -7  -2  -2 834.620 134.298   2
  -7  -2  -2 808.865 113.335   5
  -7  -2  -2 915.551 91.8160   6
  -7   2  -2 795.148 66.4833   6
  -7   2  -1 39162.8 553.982   5
  -7  -2  -1 40463.6 657.374   3
  -7  -2  -1 39163.7 472.478   6
  -7  -2  -1 40847.9 730.371   2
  -7  -2  -1 38618.9 611.114   5
  -7   2  -1 40858.2 749.229   2
  -7   2   0 13058.9 284.470   5
  -7  -2   0 13269.0 399.067   2
  -7  -2   0 12948.8 248.998   6
  -7   2   0 13454.5 413.222   2
  -7  -2   0 13263.1 331.460   5
  -7   2   1 10840.2 217.224   5
  -7  -2   1 10773.6 276.443   5
  -7  -2   1 11182.0 229.193   6
  -7  -2   1 11019.9 347.164   2
  -7   2   1 10691.9 345.836   1
  -7   2   2 8600.34 316.348   1
  -7  -2   2 7985.98 293.071   4
  -7   2   2 7637.81 158.068   5
  -7  -2   3 25139.5 550.316   1
  -7   2   3 24817.7 539.361   1
  -7   2   3 23535.2 254.526   5
  -7  -2   3 24970.7 496.014   4
  -7  -2   4 209.606 62.1558   4
  -7  -2   4 206.141 55.1763   5
  -7   2   4 508.205 110.129   1
  -7  -2   4 258.844 86.1270   1
  -7   2   4 155.149 33.8838   5
  -7   2   5 4354.96 149.957   5
  -7  -2   5 4008.22 232.775   1
  -7   2   5 4185.06 246.407   1
  -7  -2   5 4390.89 190.046   5
  -7  -2   6 123.072 46.3729   5
  -7   2   6 160.580 48.1765   5
  -7  -2   6 62.0646 78.2370   1
  -7   2   7 3790.77 190.306   5
  -7   3  -9 741.091 171.674   5
  -7  -3  -9 650.604 167.672   5
  -7   3  -8 6055.92 390.463   5
  -7  -3  -8 5956.53 396.993   5
  -7  -3  -7-84.1008 99.9452   5
  -7   3  -7 22.3109 86.1967   5
  -7   3  -6 23147.9 660.935   5
  -7   3  -6 24368.1 732.199   3
  -7  -3  -6 23229.5 681.805   5
  -7   3  -5 1738.32 198.909   3
  -7   3  -5 1536.73 173.552   5
  -7  -3  -5 1580.46 179.171   5
  -7   3  -4 82305.3 1058.99   5
  -7   3  -4 85219.1 1239.58   3
  -7   3  -4 85486.3 1275.84   2
  -7  -3  -4 84748.4 1123.99   3
  -7   3  -4 83396.5 868.209   6
  -7  -3  -4 83535.6 1137.25   5
  -7  -3  -4 80028.7 965.430   6
  -7  -3  -3 119.048 62.5167   6
  -7   3  -3 235.432 96.9855   3
  -7  -3  -3 10.2597 64.2044   5
  -7   3  -3 77.8866 102.730   2
  -7   3  -3 28.7601 52.4067   5
  -7  -3  -3 197.132 97.4698   2
  -7  -3  -3 77.3334 79.2145   3
  -7   3  -3 13.1750 38.6837   6
  -7  -3  -2 66077.9 723.714   6
  -7   3  -2 70848.6 1008.90   3
  -7   3  -2 71738.4 1056.65   2
  -7  -3  -2 70279.2 902.770   3
  -7  -3  -2 68118.9 889.974   5
  -7   3  -2 63643.4 495.637   6
  -7   3  -2 67778.1 803.601   5
  -7  -3  -2 69921.8 998.869   2
  -7   3  -1 28074.5 633.107   2
  -7  -3  -1 29543.4 615.668   2
  -7  -3  -1 27961.3 429.606   6
  -7   3  -1 28463.4 461.404   5
  -7  -3  -1 28711.9 540.793   3
  -7  -3  -1 28687.0 540.767   5
  -7   3   0 18184.5 484.406   2
  -7   3   0 17865.6 315.496   5
  -7  -3   0 18225.2 398.925   5
  -7  -3   0 18176.3 323.241   6
  -7   3   0 17078.4 432.625   1
  -7  -3   0 18256.2 456.781   2
  -7  -3   1 6448.59 192.654   6
  -7   3   1 6300.61 265.555   1
  -7  -3   1 6576.64 227.817   5
  -7   3   1 6351.38 153.493   5
  -7  -3   1 6095.44 256.990   2
  -7   3   2 38515.7 288.168   5
  -7   3   2 40441.2 675.011   1
  -7  -3   2 40970.2 647.641   4
  -7  -3   3 4109.94 225.245   1
  -7   3   3 4128.57 227.618   1
  -7   3   3 3108.22 70.9852   5
  -7  -3   3 4059.70 202.311   4
  -7  -3   4 13766.3 364.869   4
  -7   3   4 12438.3 186.947   5
  -7   3   4 13926.5 416.356   1
  -7  -3   4 13993.3 416.633   1
  -7  -3   5 2819.63 173.817   4
  -7   3   5 2589.04 111.103   5
  -7   3   5 2993.50 211.122   1
  -7  -3   5 2820.80 200.851   1
  -7  -3   5 2756.46 158.278   5
  -7  -3   6 190.064 71.2897   5
  -7  -3   6 177.019 87.5209   1
  -7   3   6 140.000 49.5513   5
  -7   3   7 2551.09 155.126   5
  -7  -3   7 2796.97 213.224   1
  -7   3   8 3362.03 196.205   5
  -7   4  -9 1097.42 203.308   5
  -7  -4  -9 1074.66 202.101   5
  -7  -4  -8 13260.5 589.786   5
  -7   4  -8 13220.1 575.180   5
  -7   4  -7 8660.18 433.734   5
  -7  -4  -7 8878.35 455.525   5
  -7   4  -6 9693.32 427.537   5
  -7  -4  -6 9345.47 435.861   5
  -7   4  -6 9990.97 476.652   3
  -7   4  -5 239.301 98.0389   5
  -7  -4  -5 259.870 105.524   5
  -7   4  -5 138.609 87.7614   3
  -7   4  -4 21470.1 432.538   6
  -7   4  -4 22544.6 653.047   3
  -7   4  -4 21288.5 540.368   5
  -7   4  -4 22450.4 662.432   2
  -7  -4  -4 21349.2 585.734   5
  -7  -4  -4 22022.3 571.262   3
  -7   4  -3 20491.0 586.872   3
  -7   4  -3 20627.7 487.269   5
  -7   4  -3 21278.7 620.931   2
  -7  -4  -3 20699.7 538.491   5
  -7  -4  -3 19442.0 449.700   6
  -7   4  -3 19997.3 346.861   6
  -7  -4  -3 20565.5 513.275   3
  -7  -4  -2 277.810 82.8572   5
  -7   4  -2 134.004 27.6911   6
  -7  -4  -2 357.444 74.2022   6
  -7   4  -2 259.853 98.7206   2
  -7  -4  -2 434.019 85.4987   3
  -7  -4  -2 190.108 72.4989   2
  -7   4  -2 283.457 95.5371   3
  -7   4  -2 130.775 28.4629   6
  -7   4  -2 174.629 58.5668   5
  -7  -4  -1 66180.3 917.365   2
  -7   4  -1 65563.2 963.988   2
  -7   4  -1 62193.8 663.687   5
  -7  -4  -1 64425.0 828.963   5
  -7  -4  -1 60987.3 671.765   6
  -7  -4  -1 64985.2 792.692   3
  -7  -4   0 43014.7 698.112   2
  -7   4   0 42235.6 667.445   1
  -7   4   0 41885.0 461.154   5
  -7  -4   0 43046.3 632.125   5
  -7   4   0 43526.0 764.679   2
  -7  -4   0 41466.6 526.564   6
  -7   4   1 5696.65 254.330   1
  -7  -4   1 5812.24 196.418   6
  -7  -4   1 5830.53 249.537   2
  -7   4   1 5473.39 130.096   5
  -7  -4   2 9872.62 323.050   4
  -7  -4   2 9994.54 265.280   6
  -7   4   2 10090.1 340.278   1
  -7  -4   3 8517.09 287.330   4
  -7   4   3 8419.89 322.420   1
  -7  -4   3 8143.14 321.659   1
  -7   4   4 21130.1 519.722   1
  -7  -4   4 20979.7 512.369   1
  -7  -4   4 20782.9 440.965   4
  -7  -4   5 54511.6 715.939   4
  -7  -4   5 53428.4 703.426   5
  -7  -4   5 53974.9 829.945   1
  -7   4   5 53154.8 444.181   5
  -7  -4   6 71845.2 860.164   5
  -7   4   6 71389.5 645.689   5
  -7  -4   6 72005.5 983.775   1
  -7   4   7 14039.7 339.005   5
  -7  -4   7 14816.7 467.407   1
  -7   4   8 16492.3 418.650   5
  -7  -5  -9 16976.3 707.925   5
  -7   5  -9 17478.2 695.187   5
  -7   5  -8 2536.85 271.153   5
  -7  -5  -8 2313.94 272.828   5
  -7   5  -7 26800.6 825.508   3
  -7   5  -7 25582.5 738.672   5
  -7  -5  -7 25862.7 775.482   5
  -7   5  -6 5585.61 333.891   5
  -7  -5  -6 5583.94 347.975   5
  -7   5  -6 5721.13 375.984   3
  -7  -5  -5 29704.1 743.855   5
  -7   5  -5 29177.3 678.457   5
  -7   5  -5 30212.3 794.589   3
  -7   5  -4 1932.21 202.472   3
  -7   5  -4 1286.89 141.769   5
  -7   5  -4 1667.01 197.203   2
  -7  -5  -4 1419.40 163.957   5
  -7   5  -3 1111.53 127.155   5
  -7  -5  -3 1175.80 133.853   3
  -7  -5  -3 1127.38 144.723   5
  -7   5  -3 1038.49 80.6442   6
  -7   5  -3 1222.50 169.250   3
  -7  -5  -3 966.210 120.242   6
  -7   5  -3 1136.91 164.039   2
  -7   5  -3 1067.02 88.9891   6
  -7   5  -2 4273.65 113.102   6
  -7   5  -2 4130.86 111.623   6
  -7   5  -2 5146.92 289.279   3
  -7   5  -2 5082.61 219.006   5
  -7  -5  -2 5181.60 226.386   6
  -7  -5  -2 4845.05 263.587   2
  -7  -5  -2 4914.00 252.786   5
  -7  -5  -2 4935.17 233.149   3
  -7   5  -2 5017.58 290.585   2
  -7   5  -1 3726.36 164.339   5
  -7  -5  -1 3792.21 192.845   3
  -7  -5  -1 4013.42 218.490   5
  -7  -5  -1 3655.63 181.218   6
  -7   5  -1 3628.06 201.415   1
  -7  -5  -1 3927.22 228.969   2
  -7   5  -1 3950.32 249.483   2
  -7  -5   0 224.845 65.1926   3
  -7  -5   0 65.8560 53.0213   5
  -7   5   0 95.0562 36.4915   5
  -7   5   0 213.094 67.7822   1
  -7   5   0 267.980 86.8665   2
  -7  -5   0 273.266 80.6062   2
  -7  -5   0 252.970 71.4072   6
  -7   5   1 38111.3 643.377   1
  -7  -5   1 37602.6 525.967   6
  -7   5   1 35205.9 288.707   5
  -7  -5   1 37895.0 610.073   2
  -7  -5   2 60.2981 44.6266   4
  -7   5   2 67.3126 60.5641   1
  -7  -5   2 116.653 58.3561   6
  -7   5   3 73707.2 939.779   1
  -7  -5   3 71211.5 817.303   4
  -7  -5   4 574.618 97.4088   1
  -7  -5   4 551.788 77.0020   4
  -7   5   4 634.637 110.896   1
  -7   5   5 62812.2 431.528   5
  -7  -5   5 67633.8 816.564   5
  -7  -5   5 67270.6 927.222   1
  -7  -5   5 66647.2 773.445   4
  -7  -5   6 535.854 121.421   1
  -7   5   6 458.569 61.8253   5
  -7   5   7 32835.6 505.325   5
  -7  -5   7 34208.8 698.016   1
  -7   5   8 12393.8 362.652   5
  -7  -6  -9-40.1811 133.326   5
  -7   6  -9-40.2713 119.008   5
  -7  -6  -8 19656.8 723.192   5
  -7   6  -8 18791.6 679.278   5
  -7  -6  -7 10201.0 500.943   5
  -7   6  -7 10094.4 470.461   5
  -7   6  -7 11764.9 557.919   3
  -7  -6  -6 5332.85 341.808   5
  -7   6  -6 5391.03 365.475   3
  -7   6  -6 5276.42 260.198   6
  -7   6  -6 5294.74 323.405   5
  -7   6  -5 21389.6 681.571   3
  -7  -6  -5 21112.8 634.189   5
  -7   6  -5 21573.6 586.876   5
  -7   6  -5 21524.3 464.854   6
  -7   6  -4 675.252 79.4470   6
  -7   6  -4 479.816 130.052   2
  -7  -6  -4 677.825 127.789   5
  -7   6  -4 644.240 111.840   5
  -7   6  -4 630.206 134.665   3
  -7   6  -3 724.487 67.6943   6
  -7  -6  -3 808.766 128.003   5
  -7   6  -3 723.735 107.759   5
  -7  -6  -3 835.787 115.561   3
  -7   6  -3 742.013 137.057   3
  -7   6  -3 748.711 132.910   2
  -7   6  -2 1690.68 139.512   1
  -7   6  -2 1807.34 187.913   3
  -7   6  -2 1794.62 135.229   5
  -7  -6  -2 1800.64 141.348   3
  -7   6  -2 1416.33 62.6070   6
  -7  -6  -2 1774.77 164.463   5
  -7   6  -2 1647.63 177.973   2
  -7  -6  -2 1578.03 152.009   2
  -7  -6  -2 2035.26 154.105   6
  -7   6  -1 8961.00 368.141   2
  -7   6  -1 8386.91 294.435   1
  -7  -6  -1 9002.10 283.006   3
  -7  -6  -1 8868.86 327.073   5
  -7  -6  -1 8799.97 331.549   2
  -7  -6  -1 8826.39 287.199   6
  -7   6  -1 8421.52 240.093   5
  -7   6   0 6202.90 261.476   1
  -7  -6   0 6267.47 219.545   3
  -7  -6   0 5910.95 228.323   6
  -7  -6   0 6303.81 270.204   2
  -7   6   0 6327.15 303.503   2
  -7  -6   0 6387.13 263.591   5
  -7   6   0 6056.06 163.835   5
  -7  -6   1 7556.86 255.132   6
  -7  -6   1 7329.79 271.773   2
  -7   6   1 7366.36 289.222   1
  -7  -6   2 31448.7 565.203   4
  -7   6   2 32134.6 608.354   1
  -7  -6   2 31099.4 517.482   6
  -7   6   3 5317.45 263.426   1
  -7  -6   3 4971.18 216.149   4
  -7  -6   3 5346.79 226.420   6
  -7  -6   4 19462.5 498.200   1
  -7  -6   4 19204.1 409.066   4
  -7  -6   5 2843.24 204.327   1
  -7  -6   5 2892.47 165.410   4
  -7   6   6 49326.2 487.783   5
  -7  -6   6 50576.1 824.125   1
  -7  -6   7 717.539 130.531   1
  -7   6   7 822.318 88.8852   5
  -7  -7  -9 927.725 200.176   5
  -7   7  -9 583.577 172.142   5
  -7  -7  -8 674.321 169.669   5
  -7   7  -8 424.270 137.271   5
  -7   7  -7 1286.37 151.088   6
  -7   7  -7 1417.04 223.281   3
  -7  -7  -7 1393.44 211.580   5
  -7   7  -7 1223.44 184.527   5
  -7   7  -6 3390.96 259.906   5
  -7   7  -6 3388.02 294.859   3
  -7   7  -6 3723.43 221.135   6
  -7  -7  -6 3468.78 290.509   5
  -7   7  -5 301.593 97.1867   5
  -7   7  -5 500.317 143.941   3
  -7   7  -5 446.067 81.7532   6
  -7  -7  -5 358.267 115.346   5
  -7   7  -4 73297.8 1217.47   2
  -7   7  -4 70699.1 975.638   5
  -7   7  -4 72679.1 1202.37   3
  -7  -7  -4 69972.5 1098.18   5
  -7   7  -4 70702.6 732.798   6
  -7   7  -3 1429.05 174.159   2
  -7  -7  -3 1539.11 165.526   5
  -7   7  -3 1559.35 139.507   5
  -7   7  -3 1751.71 195.803   3
  -7   7  -3 1574.71 130.474   1
  -7   7  -3 1381.96 88.9242   6
  -7  -7  -2 90542.7 997.828   6
  -7   7  -2 96277.2 1251.13   3
  -7   7  -2 95542.7 1256.59   2
  -7  -7  -2 94585.1 1139.44   5
  -7  -7  -2 95133.3 944.997   3
  -7   7  -2 92670.2 904.501   5
  -7   7  -2 95511.9 970.233   1
  -7  -7  -1 25024.4 551.099   2
  -7   7  -1 23979.7 493.023   1
  -7  -7  -1 24157.9 494.193   6
  -7  -7  -1 23906.1 542.013   5
  -7   7  -1 25087.2 619.540   2
  -7   7  -1 24258.0 401.854   5
  -7  -7  -1 24258.2 442.592   3
  -7   7   0 27901.0 537.615   1
  -7  -7   0 28579.6 557.255   2
  -7  -7   0 28857.8 445.676   3
  -7   7   0 28021.9 344.044   5
  -7   7   0 29129.2 644.857   2
  -7  -7   0 28319.6 518.773   6
  -7  -7   0 27947.9 556.657   5
  -7  -7   1 417.196 83.9918   2
  -7   7   1 428.870 88.4627   1
  -7  -7   1 303.744 64.0863   6
  -7  -7   2 81533.4 907.087   4
  -7  -7   2 83909.2 856.842   2
  -7   7   2 81959.5 966.615   1
  -7  -7   2 83347.6 883.816   6
  -7  -7   3 649.613 97.2283   6
  -7   7   3 636.908 111.336   1
  -7  -7   3 623.286 85.7727   4
  -7  -7   4 9579.58 287.256   4
  -7  -7   4 9940.47 362.553   1
  -7  -7   5 3012.94 208.123   1
  -7  -7   5 3119.88 166.582   4
  -7   7   6 1638.47 88.1958   5
  -7  -7   6 1970.20 185.412   1
  -7  -7   7 1876.88 177.740   1
  -7   7   7 1845.93 113.733   5
  -7   8  -9 197.466 116.739   5
  -7   8  -8 197.168 113.991   5
  -7  -8  -8 66.6382 123.235   5
  -7   8  -7 20709.7 556.493   6
  -7  -8  -7 20495.4 713.238   5
  -7   8  -7 20169.5 656.686   5
  -7   8  -7 22482.7 786.883   3
  -7  -8  -6 5984.43 371.063   5
  -7   8  -6 5617.96 329.879   5
  -7   8  -6 6020.10 277.407   6
  -7   8  -6 5783.49 382.524   3
  -7  -8  -5 45675.5 947.286   5
  -7   8  -5 45740.5 677.918   6
  -7   8  -5 45801.5 854.856   5
  -7   8  -5 47200.3 1038.66   3
  -7   8  -4 2264.70 136.695   6
  -7   8  -4 2762.17 253.083   3
  -7   8  -4 2657.36 245.254   2
  -7   8  -4 2159.37 182.314   5
  -7  -8  -4 2356.75 217.156   5
  -7   8  -4 2570.58 165.334   1
  -7   8  -3 15325.8 382.288   1
  -7   8  -3 15435.9 541.558   3
  -7   8  -3 15238.2 535.226   2
  -7  -8  -3 14776.9 488.427   5
  -7   8  -3 15286.6 414.566   5
  -7   8  -3 15070.0 281.470   6
  -7   8  -2 8502.18 392.262   2
  -7   8  -2 8815.90 393.684   3
  -7   8  -2 8273.07 273.116   5
  -7   8  -2 7368.30 141.883   6
  -7   8  -2 8587.92 292.135   1
  -7  -8  -2 8351.08 350.827   5
  -7  -8  -1 55928.9 848.363   5
  -7   8  -1 54330.0 729.967   1
  -7  -8  -1 55836.5 641.107   3
  -7   8  -1 56575.8 935.300   2
  -7  -8  -1 54243.9 767.380   6
  -7   8  -1 54506.7 599.296   5
  -7  -8  -1 56234.8 816.778   2
  -7   8   0 11218.9 416.394   2
  -7  -8   0 11154.7 346.514   2
  -7  -8   0 10975.0 261.804   3
  -7   8   0 10682.5 334.343   1
  -7  -8   0 11061.5 367.254   5
  -7  -8   0 10338.3 326.612   6
  -7  -8   1 79305.5 647.760   3
  -7  -8   1 80961.9 900.474   6
  -7  -8   1 81066.3 862.833   2
  -7   8   1 79350.4 925.528   1
  -7  -8   2 6060.42 251.049   4
  -7  -8   2 6027.44 252.748   6
  -7  -8   2 5799.02 225.057   2
  -7   8   2 5743.22 263.232   1
  -7  -8   3 25330.8 530.274   6
  -7  -8   3 24722.3 467.983   4
  -7  -8   4 5075.52 258.736   1
  -7  -8   4 4900.88 202.199   4
  -7  -8   5 706.608 85.8888   4
  -7  -8   5 718.812 116.579   1
  -7  -8   6 63361.0 926.849   1
  -7  -8   7 2942.98 212.652   1
  -7   8   7 3016.28 142.676   5
  -7   9  -9 10305.2 540.006   5
  -7   9  -8 107.832 113.491   5
  -7  -9  -8 213.198 126.276   5
  -7  -9  -7 12518.9 568.622   5
  -7   9  -7 11455.6 500.233   5
  -7   9  -7 12881.5 598.830   3
  -7   9  -6 1418.93 178.066   5
  -7   9  -6 1525.56 220.687   3
  -7  -9  -6 1858.51 226.081   5
  -7   9  -6 1568.42 149.734   6
  -7   9  -5 13261.8 371.049   6
  -7  -9  -5 12697.1 516.314   5
  -7   9  -5 13799.0 572.886   3
  -7   9  -5 13301.3 347.902   1
  -7   9  -5 13128.5 464.715   5
  -7   9  -4 3557.30 185.840   1
  -7   9  -4 3486.75 169.990   6
  -7  -9  -4 3384.74 258.422   5
  -7   9  -4 3474.37 282.588   2
  -7   9  -4 3786.43 235.387   5
  -7   9  -4 3832.40 300.178   3
  -7   9  -3 574.202 136.165   2
  -7   9  -3 595.357 65.2658   6
  -7  -9  -3 682.564 130.866   5
  -7   9  -3 584.688 90.4271   1
  -7   9  -3 453.605 116.157   3
  -7   9  -3 738.856 106.885   5
  -7   9  -2 23672.2 637.981   2
  -7   9  -2 22382.3 624.714   3
  -7   9  -2 19521.3 250.746   6
  -7  -9  -2 22927.1 586.112   5
  -7   9  -2 22318.9 456.171   1
  -7   9  -2 22289.4 448.819   5
  -7   9  -1 10358.1 321.207   1
  -7  -9  -1 9922.91 373.167   5
  -7  -9  -1 10350.4 263.767   3
  -7   9  -1 10503.1 411.342   2
  -7   9  -1 9921.72 258.526   5
  -7  -9   0 51746.7 522.998   3
  -7  -9   0 51554.3 721.209   2
  -7  -9   0 49140.6 740.275   6
  -7   9   0 52541.8 887.386   2
  -7   9   0 51625.9 728.329   1
  -7   9   1 958.052 121.140   1
  -7  -9   1 788.254 67.2595   3
  -7  -9   1 914.180 103.191   2
  -7  -9   1 955.696 116.730   6
  -7  -9   2 954.180 104.319   4
  -7  -9   2 879.772 92.6442   2
  -7  -9   2 868.503 111.106   6
  -7  -9   3 36689.7 564.483   4
  -7  -9   4 3428.84 169.940   4
  -7  -9   5 23370.7 560.947   1
  -7  -9   5 21916.9 404.707   4
  -7  -9   6 20920.2 535.975   1
  -7  -9   7 16594.5 485.261   1
  -7  -9   8 380.834 105.181   1
  -7  10  -9 859.577 191.211   5
  -7  10  -8 23683.8 772.147   5
  -7 -10  -8 25106.7 843.494   5
  -7 -10  -7 2826.96 284.984   5
  -7  10  -7 2626.93 250.636   5
  -7  10  -7 2982.33 310.352   3
  -7 -10  -6 24347.0 753.542   5
  -7  10  -6 25360.0 571.111   6
  -7  10  -6 26659.9 831.522   3
  -7  10  -6 24770.5 685.688   5
  -7 -10  -5-31.9114 93.1079   5
  -7  10  -5 125.782 65.0152   6
  -7  10  -5 60.9805 105.979   3
  -7  10  -5-8.47380 79.5983   5
  -7  10  -5 26.1286 47.9823   1
  -7  10  -4 506.223 98.6294   5
  -7  10  -4 405.158 72.4779   1
  -7  10  -4 314.016 112.349   3
  -7  10  -4 511.629 137.300   2
  -7 -10  -4 422.421 121.157   5
  -7  10  -4 460.807 78.9683   6
  -7  10  -3 6524.93 365.964   2
  -7  10  -3 6486.41 242.579   1
  -7  10  -3 6795.01 376.101   3
  -7  10  -3 6780.86 201.187   6
  -7 -10  -3 6638.36 344.611   5
  -7  10  -3 6528.38 275.706   5
  -7  10  -2 5798.92 148.438   6
  -7  10  -2 6843.22 351.249   2
  -7 -10  -2 6318.15 318.746   5
  -7  10  -2 6307.40 242.422   5
  -7  10  -2 6909.62 256.445   1
  -7  10  -2 6773.13 362.708   3
  -7  10  -1 30813.4 704.862   2
  -7 -10  -1 31100.9 666.847   5
  -7  10  -1 28873.4 529.171   1
  -7 -10   0 1899.65 144.984   2
  -7  10   0 1900.08 150.210   1
  -7  10   0 1930.74 190.185   2
  -7 -10   0 1671.68 88.3812   3
  -7 -10   1 168.630 58.2194   2
  -7 -10   1 81.2593 24.0896   3
  -7  10   1 175.609 73.1064   1
  -7 -10   2 75695.9 870.631   4
  -7 -10   2 79345.3 777.320   2
  -7 -10   3 1393.36 114.526   4
  -7 -10   4 49169.1 613.380   4
  -7 -10   5 109.912 43.3547   4
  -7 -10   5 106.909 71.5870   1
  -7 -10   6 42434.4 764.448   1
  -7 -10   7 94.1247 73.1852   1
  -7 -10   8 15127.4 476.590   1
  -7  11  -9 6417.62 439.372   5
  -7 -11  -8 1713.91 250.580   5
  -7  11  -8 1612.64 220.781   5
  -7 -11  -7 13417.0 604.325   5
  -7  11  -7 12652.3 531.725   5
  -7  11  -7 13424.3 624.721   3
  -7  11  -6 14159.8 614.290   3
  -7 -11  -6 13539.3 567.428   5
  -7  11  -6 13235.2 508.695   5
  -7  11  -5 9864.07 327.808   6
  -7 -11  -5 10394.5 478.054   5
  -7  11  -5 10046.7 501.968   3
  -7  11  -5 10521.0 502.724   2
  -7  11  -5 9702.35 409.301   5
  -7  11  -4 14082.1 554.342   2
  -7 -11  -4 13569.8 523.262   5
  -7  11  -4 13808.9 560.252   3
  -7  11  -4 13550.2 328.971   1
  -7  11  -4 13106.9 332.603   6
  -7  11  -4 13397.7 437.157   5
  -7  11  -3 503.635 78.2718   1
  -7 -11  -3 575.661 119.748   5
  -7  11  -3 419.438 88.4278   5
  -7  11  -3 436.336 109.603   3
  -7  11  -3 747.242 155.261   2
  -7  11  -3 518.900 65.7448   6
  -7  11  -2 4447.10 292.410   2
  -7  11  -2 4472.34 296.705   3
  -7  11  -2 3891.70 132.073   6
  -7 -11  -2 4175.57 272.294   5
  -7  11  -2 3938.58 194.126   1
  -7  11  -1 485.606 41.1916   6
  -7  11  -1 537.455 87.0468   1
  -7 -11  -1 767.876 128.773   5
  -7  11  -1 677.254 140.081   2
  -7  11   0 21477.0 472.100   1
  -7  11   0 23342.7 608.228   2
  -7 -11   1 313.885 68.3279   2
  -7 -11   2 17851.2 419.312   4
  -7 -11   2 18298.7 363.771   2
  -7 -11   3 29585.1 500.087   4
  -7 -11   3 31341.2 461.672   2
  -7 -11   4 5300.01 202.665   4
  -7 -11   5 15855.3 466.506   1
  -7 -11   5 15708.1 323.716   4
  -7 -11   6 9685.69 371.171   1
  -7 -11   7 9082.81 362.256   1
  -7 -11   8 583.698 118.714   1
  -7  12  -9 1419.54 224.654   5
  -7 -12  -8 170.323 137.866   5
  -7  12  -8-5.07990 102.322   5
  -7  12  -8-28.3968 134.604   3
  -7 -12  -7 408.767 151.650   5
  -7  12  -7 383.371 135.294   5
  -7  12  -7 323.717 129.713   3
  -7 -12  -6 3647.78 315.521   5
  -7  12  -6 3294.88 263.647   5
  -7  12  -6 3959.58 340.266   3
  -7  12  -5 21161.9 732.395   3
  -7 -12  -5 20389.9 676.245   5
  -7  12  -5 19680.3 462.242   6
  -7  12  -5 21606.3 718.550   2
  -7  12  -5 19557.6 576.637   5
  -7 -12  -4 2194.18 221.741   5
  -7  12  -4 2028.63 183.276   5
  -7  12  -4 2002.28 231.148   3
  -7  12  -4 2147.84 132.416   1
  -7  12  -4 2124.73 228.442   2
  -7  12  -4 1914.32 137.567   6
  -7  12  -3 6748.94 239.562   1
  -7  12  -3 7607.99 398.367   2
  -7  12  -3 7095.01 392.195   3
  -7 -12  -3 6749.20 359.903   5
  -7  12  -3 7184.45 219.399   6
  -7  12  -2 576.023 132.222   2
  -7 -12  -2 470.672 108.752   5
  -7  12  -2 577.405 87.8528   1
  -7  12  -2 516.860 57.9978   6
  -7  12  -2 514.284 120.478   3
  -7 -12  -1 38295.3 775.832   5
  -7  12  -1 37874.7 806.699   2
  -7  12   0 15347.5 505.126   2
  -7 -12   1 8380.59 256.461   2
  -7 -12   2 6929.79 220.681   2
  -7 -12   2 6485.69 257.694   4
  -7 -12   3 2317.06 124.068   2
  -7 -12   3 2228.68 142.396   4
  -7 -12   3 1964.18 72.0044   3
  -7 -12   4 5944.97 208.597   4
  -7 -12   4 6201.30 178.926   3
  -7 -12   5 7057.92 315.803   1
  -7 -12   5 7137.88 210.808   4
  -7 -12   5 7058.91 234.531   3
  -7 -12   6 14207.5 452.076   1
  -7 -12   6 13757.4 374.072   3
  -7 -12   7 808.184 127.039   1
  -7 -12   8 9930.32 379.991   1
  -7  13  -8 1180.95 189.720   5
  -7  13  -7 4072.02 311.074   5
  -7  13  -7 4599.05 382.650   3
  -7 -13  -7 4009.62 342.951   5
  -7 -13  -6 17026.3 656.129   5
  -7  13  -6 18003.5 715.337   3
  -7  13  -6 16816.4 581.611   5
  -7 -13  -5 403.007 128.283   5
  -7  13  -5 402.151 135.940   3
  -7  13  -5 356.439 101.591   5
  -7  13  -5 457.781 138.147   2
  -7  13  -4 21856.0 451.781   6
  -7 -13  -4 22822.8 698.004   5
  -7  13  -4 22742.0 710.787   2
  -7  13  -4 22753.4 737.702   3
  -7 -13  -3 3502.41 270.272   5
  -7  13  -3 3462.71 287.432   3
  -7  13  -3 3599.90 291.627   2
  -7  13  -3 3706.83 166.382   6
  -7  13  -2 9816.01 432.284   2
  -7  13  -2 9037.57 229.128   6
  -7 -13  -2 9488.52 413.360   5
  -7  13  -2 10205.5 457.310   3
  -7  13  -1 1584.87 186.355   2
  -7 -13  -1 1503.37 173.984   5
  -7  13  -1 1179.46 81.4452   6
  -7  13   0 35475.5 774.900   2
  -7 -13   2 43470.2 655.893   4
  -7 -13   2 45407.7 524.991   2
  -7 -13   3 20659.2 413.067   4
  -7 -13   3 21549.2 344.764   2
  -7 -13   4 8556.58 243.134   4
  -7 -13   4 8581.87 191.710   3
  -7 -13   4 9126.47 230.489   2
  -7 -13   5 4601.22 182.363   3
  -7 -13   5 4444.71 254.319   1
  -7 -13   6 276.192 102.304   1
  -7 -13   7 8979.51 362.309   1
  -7 -13   8 437.302 104.400   1
  -7 -14  -7 77.2674 112.929   5
  -7  14  -7 186.428 141.364   3
  -7  14  -6 4399.19 369.135   3
  -7 -14  -6 4752.41 361.253   5
  -7 -14  -5 8713.00 465.999   5
  -7  14  -5 9009.75 497.927   3
  -7  14  -5 8594.55 463.921   2
  -7  14  -4 1838.72 227.400   3
  -7 -14  -4 1451.77 198.441   5
  -7  14  -4 1914.78 221.574   2
  -7  14  -4 1679.66 136.666   6
  -7  14  -3 19442.5 660.257   3
  -7 -14  -3 18181.6 604.991   5
  -7  14  -3 18225.3 377.136   6
  -7  14  -3 18553.8 632.186   2
  -7  14  -2 1123.03 168.394   2
  -7  14  -2 1019.82 167.713   3
  -7 -14  -2 990.644 157.390   5
  -7  14  -2 1107.69 91.9188   6
  -7  14  -1 26563.9 383.656   6
  -7  14  -1 27348.7 701.269   2
  -7 -14  -1 27835.5 692.789   5
  -7  14   0 8151.21 381.393   2
  -7 -14   2 28036.6 527.960   4
  -7 -14   3 3253.91 124.659   2
  -7 -14   3 3340.17 170.899   4
  -7 -14   4 5834.55 133.469   3
  -7 -14   4 6756.11 179.797   2
  -7 -14   4 6975.10 213.756   4
  -7 -14   5 176.545 80.3466   1
  -7 -14   6 19820.8 535.434   1
  -7 -14   7 364.214 96.4684   1
  -7 -14   8 5133.87 280.121   1
  -7 -15  -7 19850.3 756.980   5
  -7  15  -7 19415.3 786.426   3
  -7 -15  -6 2015.29 252.413   5
  -7  15  -6 2094.34 265.612   3
  -7 -15  -5 6268.92 400.538   5
  -7  15  -5 7196.80 451.726   3
  -7  15  -5 6364.71 406.112   2
  -7  15  -4 287.001 125.959   3
  -7 -15  -4 322.914 131.394   5
  -7  15  -4 93.5345 94.9808   2
  -7  15  -3 602.240 148.621   2
  -7  15  -3 159.644 52.8852   6
  -7 -15  -3 419.857 122.206   5
  -7  15  -3 564.542 149.359   3
  -7 -15  -2-38.2924 92.5041   5
  -7  15  -2-52.4034 85.4648   2
  -7  15  -2 54.1362 83.6170   3
  -7  15  -2 149.252 61.4491   6
  -7  15  -1 8538.78 405.309   2
  -7 -15  -1 8143.46 392.015   5
  -7  15  -1 7290.62 218.208   6
  -7  15   0 769.856 137.143   2
  -7  15   0 781.631 80.4201   6
  -7 -15   2 23090.2 477.908   4
  -7 -15   3 34878.9 525.138   4
  -7 -15   4 49.6775 23.6643   2
  -7 -15   5 11320.6 412.694   1
  -7 -15   6 1115.43 147.566   1
  -7 -15   7 18697.8 521.074   1
  -7 -15   8 4221.88 256.386   1
  -7 -16  -7 53.0119 119.360   5
  -7 -16  -6 7259.78 459.734   5
  -7  16  -6 6962.95 463.243   3
  -7  16  -5 6345.59 408.511   2
  -7 -16  -5 6455.66 411.009   5
  -7  16  -5 7354.30 460.170   3
  -7  16  -4 6633.61 422.773   3
  -7  16  -4 6176.31 389.430   2
  -7 -16  -4 6207.26 389.468   5
  -7  16  -3 4002.85 321.026   3
  -7  16  -3 3815.67 193.595   6
  -7 -16  -3 3457.50 284.360   5
  -7  16  -3 3953.10 302.422   2
  -7 -16  -2 252.974 119.283   5
  -7  16  -2 308.116 132.171   3
  -7  16  -2 172.233 59.8112   6
  -7  16  -2 371.159 134.053   2
  -7  16  -1 23412.8 416.008   6
  -7 -16  -1 23308.6 664.658   5
  -7  16  -1 23913.1 675.126   2
  -7  16   0 1406.03 171.103   2
  -7  16   0 1488.76 109.788   6
  -7 -16   2 20983.3 456.009   4
  -7 -16   6 31956.3 688.204   1
  -7 -16   7 376.583 103.509   1
  -7 -16   8 5386.20 288.762   1
  -7 -17  -6 1517.46 222.063   5
  -7  17  -6 1909.95 276.375   3
  -7 -17  -5 2810.36 285.109   5
  -7  17  -5 2962.60 290.870   2
  -7  17  -4 27650.5 818.847   2
  -7  17  -4 27957.4 858.810   3
  -7 -17  -4 26773.0 810.008   5
  -7  17  -3 1987.59 239.981   3
  -7  17  -3 1828.37 214.333   2
  -7 -17  -3 1800.90 216.421   5
  -7 -17  -2 48448.6 1007.38   5
  -7  17  -2 48579.3 995.125   2
  -7  17  -2 48839.1 1050.38   3
  -7  17  -2 48127.1 657.123   6
  -7 -17  -1 672.984 152.367   5
  -7  17  -1 575.338 85.3461   6
  -7  17  -1 645.885 136.246   2
  -7  17   0 15313.2 534.808   2
  -7  17   0 16785.7 381.047   6
  -7 -17   6 88.9449 75.8353   1
  -7 -17   7 10248.5 392.893   1
  -7 -17   8 8187.59 351.823   1
  -7 -18  -6 4793.05 382.310   5
  -7  18  -6 4524.89 391.240   3
  -7  18  -5 14947.1 672.439   3
  -7 -18  -5 13732.6 615.815   5
  -7  18  -4 1220.34 208.259   3
  -7  18  -4 1180.59 186.640   2
  -7 -18  -4 1510.61 221.460   5
  -7  18  -3 9133.17 459.671   2
  -7 -18  -3 9303.52 469.963   5
  -7  18  -3 9128.13 488.944   3
  -7  18  -2 1368.34 195.922   3
  -7  18  -2 1501.65 200.607   2
  -7 -18  -2 1351.81 198.270   5
  -7  18  -1 24396.0 475.323   6
  -7 -18  -1 24786.0 720.237   5
  -7  18  -1 24829.1 705.097   2
  -7  18   0 2596.56 236.297   2
  -7  18   0 3284.96 185.803   6
  -7 -18   6 876.039 138.638   1
  -7 -18   7 1834.46 175.747   1
  -7 -19  -6 8747.85 519.926   5
  -7  19  -6 9205.20 549.791   3
  -7 -19  -5 1674.50 243.218   5
  -7  19  -5 1523.90 241.650   3
  -7 -19  -4 1122.97 192.760   5
  -7  19  -4 1283.35 208.445   3
  -7  19  -4 760.663 152.323   2
  -7 -19  -3 175.022 109.729   5
  -7  19  -3 278.265 126.371   3
  -7  19  -3 284.329 111.458   2
  -7  19  -2 9536.09 491.733   3
  -7 -19  -2 9671.43 476.984   5
  -7  19  -1 2425.84 164.567   6
  -7 -19  -1 2700.59 254.542   5
  -7  19  -1 2682.22 246.425   2
  -7  19   0 2102.10 152.540   6
  -7  19   0 1927.06 208.608   2
  -7 -19   6 184.997 95.6692   1
  -7 -19   7 11319.2 416.535   1
  -7  20  -5 369.337 146.119   3
  -7 -20  -5 349.224 137.915   5
  -7  20  -4 1719.79 245.037   3
  -7 -20  -4 1928.22 248.012   5
  -7  20  -4 1905.37 234.215   2
  -7  20  -3 602.911 158.623   3
  -7  20  -3 545.158 146.438   2
  -7 -20  -3 364.645 148.646   5
  -7  20  -2 1600.58 227.993   3
  -7  20  -2 1656.49 205.101   2
  -7 -20  -2 1627.62 212.446   5
  -7 -20  -1 179.656 110.198   5
  -7  20  -1 29.5625 90.2638   2
  -7  20   0 435.978 117.219   2
  -7  20   0 721.495 109.549   6
  -7 -20   6 22170.1 595.139   1
  -7 -20   7 1155.56 145.986   1
  -7 -21  -5 491.770 156.889   5
  -7  21  -5 473.263 166.897   3
  -7  21  -4 7469.78 441.346   2
  -7  21  -4 8096.18 501.300   3
  -7 -21  -4 7255.05 458.147   5
  -7  21  -3 11744.7 579.278   3
  -7 -21  -3 11710.5 558.080   5
  -7  21  -3 11937.3 546.053   2
  -7  21  -2 8964.68 454.938   2
  -7  21  -2 8884.88 494.711   3
  -7 -21  -2 9016.58 482.860   5
  -7 -21  -1 2362.45 250.482   5
  -7  21  -1 2424.37 247.548   2
  -7  21   0 12045.9 504.070   2
  -7 -21   6 781.676 140.191   1
  -7  22  -5 7483.07 505.830   3
  -7  22  -4 2571.48 309.526   3
  -7 -22  -4 2712.60 297.281   5
  -7  22  -4 2673.41 282.286   2
  -7 -22  -3 11309.1 563.575   5
  -7  22  -3 11492.2 542.100   2
  -7  22  -3 11426.0 581.521   3
  -7 -22  -2 173.408 123.846   5
  -7  22  -2 110.682 108.871   2
  -7  22  -2 86.9628 126.922   3
  -7  22  -1 8615.37 443.399   2
  -7 -22  -1 7761.18 448.593   5
  -7  22   0 65.5870 106.081   2
  -7  22   1 3275.36 274.976   2
  -7 -22   6 971.762 139.159   1
  -7  23  -4 8968.86 540.841   3
  -7 -23  -4 10117.0 554.752   5
  -7  23  -4 9320.49 504.857   2
  -7 -23  -3 1624.93 234.975   5
  -7  23  -3 2015.51 271.699   3
  -7  23  -3 1990.33 237.170   2
  -7  23  -2 15984.6 680.495   3
  -7 -23  -2 14803.0 635.687   5
  -7  23  -2 15980.2 623.781   2
  -7 -23  -1 162.172 120.504   5
  -7  23  -1 493.553 138.173   2
  -7  23   0 7513.76 411.466   2
  -7  23   1 1633.68 211.336   2
  -7  24  -4 4490.56 397.767   3
  -7  24  -4 4497.78 360.530   2
  -7 -24  -3 218.859 160.109   5
  -7  24  -3 165.984 142.021   3
  -7  24  -2 1365.76 226.728   3
  -7 -24  -2 1003.29 184.421   5
  -7  24  -2 1216.41 193.200   2
  -7 -24  -1 1091.54 201.059   5
  -7  24  -1 1022.39 181.630   2
  -7  24   0 7937.25 427.527   2
  -7  24   1 2701.00 263.052   2
  -7  25  -3 847.222 202.100   3
  -7  25  -3 591.201 146.510   2
  -7  25  -2 112.717 121.118   3
  -7 -25  -2 107.825 115.825   5
  -7  25  -2 123.170 111.230   2
  -7  25  -1 109.440 97.9157   2
  -7 -25  -1 192.798 148.103   5
  -7  25   0 491.043 145.980   2
  -7  26  -2 1383.35 236.169   3
  -7  26  -2 1468.05 218.438   2
  -7  26  -1 3221.99 290.413   2
  -7 -26  -1 3537.80 336.059   5
  -7  26   0 22.5402 91.2563   2
  -7  26   1 2877.28 276.740   2
  -7  27  -2 2789.32 319.339   3
  -7  27  -1 2218.58 275.250   3
  -7  27   0 7557.53 434.507   2
  -7  27   1 1211.84 181.180   2
  -7  27   2 5771.11 386.995   2
  -7  28  -1 1216.88 210.605   3
  -7  28   2 90.5075 115.848   2
  -6   0 -10 15896.3 690.544   5
  -6   0  -9-59.3689 100.617   5
  -6   0  -8 2864.45 268.458   5
  -6   0  -7 64.3792 106.927   5
  -6   0  -6 4235.94 279.443   5
  -6   0  -5-41.4587 70.6161   5
  -6   0  -5 8.12704 73.0662   3
  -6   0  -4 11914.9 424.378   3
  -6   0  -4 11417.8 391.703   5
  -6   0  -4 11679.4 343.944   6
  -6   0  -3 62.3292 56.1119   5
  -6   0  -3 14.8098 77.7053   2
  -6   0  -3 19.4732 60.2696   3
  -6   0  -2 8574.47 319.883   3
  -6   0  -2 8402.48 336.025   2
  -6   0  -2 8243.33 285.240   5
  -6   0  -2 7714.06 211.634   6
  -6   0  -1 197.201 64.5645   5
  -6   0  -1 248.095 91.7499   2
  -6   0   0 61276.7 790.834   4
  -6   0   0 61341.1 608.080   5
  -6   0   0 59187.3 395.510   6
  -6   0   0 61009.4 783.427   2
  -6   0   1 64.6824 33.2227   5
  -6   0   1 81.1963 57.9990   4
  -6   0   2 17262.6 392.189   4
  -6   0   2 17239.0 412.780   1
  -6   0   3 79.3125 65.2335   4
  -6   0   3 48.7332 67.1179   1
  -6   0   4 727.660 64.7622   5
  -6   0   4 768.017 93.5814   4
  -6   0   4 753.450 102.041   1
  -6   0   5 12.1261 33.5077   5
  -6   0   5 227.617 91.4790   1
  -6   0   6 274.624 63.8801   5
  -6   0   7-56.5191 60.4596   5
  -6  -1 -10 2610.31 302.018   5
  -6   1 -10 2566.32 297.172   5
  -6   1  -9 10379.9 522.854   5
  -6  -1  -9 10900.6 542.336   5
  -6   1  -8 9932.63 481.331   5
  -6  -1  -8 9644.28 479.490   5
  -6  -1  -7 221.137 84.5383   5
  -6   1  -7 204.520 92.0848   5
  -6   1  -6 1377.91 170.749   5
  -6  -1  -6 1395.60 175.429   5
  -6  -1  -5 133.450 80.1590   5
  -6  -1  -5 155.292 92.1073   3
  -6   1  -5 93.0690 83.3024   5
  -6   1  -5 158.350 88.2252   3
  -6   1  -4 17342.6 476.576   5
  -6   1  -4 17495.5 518.978   3
  -6  -1  -4 17028.3 480.294   5
  -6  -1  -4 17283.6 501.667   3
  -6  -1  -4 17591.2 426.084   6
  -6   1  -4 17647.6 412.896   6
  -6   1  -3 65357.5 985.975   2
  -6  -1  -3 65625.0 973.042   2
  -6  -1  -3 61909.3 709.413   6
  -6  -1  -3 64008.6 861.577   5
  -6   1  -3 65984.6 938.246   3
  -6   1  -3 62975.1 672.181   6
  -6  -1  -3 65259.6 912.733   3
  -6   1  -3 62991.5 826.088   5
  -6  -1  -2 111074. 1200.48   2
  -6   1  -2 107626. 736.122   6
  -6   1  -2 108493. 1126.38   3
  -6  -1  -2 108862. 1088.16   3
  -6   1  -2 108251. 988.100   5
  -6  -1  -2 106979. 818.667   6
  -6  -1  -2 108242. 1015.63   5
  -6   1  -2 112040. 1222.21   2
  -6  -1  -1 184485. 1427.24   2
  -6   1  -1 187342. 1157.42   5
  -6  -1  -1 187450. 1323.27   3
  -6   1  -1 190527. 1480.44   2
  -6  -1  -1 184612. 1213.62   5
  -6   1   0 1245.75 89.1096   5
  -6  -1   0 1380.34 125.767   2
  -6   1   0 1098.58 117.192   4
  -6  -1   0 1121.40 116.608   4
  -6   1   0 1123.03 122.199   2
  -6  -1   0 1436.16 74.8612   6
  -6   1   0 869.746 40.1063   6
  -6  -1   0 1410.50 102.781   5
  -6  -1   1 86652.5 903.104   4
  -6   1   1 85877.7 598.322   5
  -6   1   1 86047.8 905.196   4
  -6  -1   1 85933.4 679.595   5
  -6  -1   1 86042.0 551.359   6
  -6   1   2 4747.76 218.023   1
  -6  -1   2 4804.11 223.654   1
  -6  -1   2 4617.03 203.656   4
  -6   1   2 4522.19 204.227   4
  -6  -1   3 80455.8 903.797   1
  -6   1   3 79773.8 890.189   1
  -6   1   3 79993.7 849.849   4
  -6   1   3 79396.1 520.044   5
  -6  -1   3 79679.3 819.518   4
  -6   1   4 55.5289 55.9343   1
  -6   1   4 31.6762 25.7575   5
  -6  -1   4 114.393 54.4436   4
  -6   1   4 136.890 57.0769   4
  -6  -1   4 69.6429 61.7811   1
  -6  -1   4 66.8399 35.1032   5
  -6   1   5 35107.9 461.267   5
  -6  -1   5 34848.4 625.114   1
  -6   1   5 35860.7 645.128   1
  -6  -1   5 35203.7 498.949   5
  -6   1   6 14656.1 342.024   5
  -6  -1   6 14914.1 362.541   5
  -6  -1   7 910.509 107.099   5
  -6   1   7 925.642 103.868   5
  -6  -2 -10 8031.43 504.316   5
  -6   2 -10 8201.14 497.095   5
  -6   2  -9 18334.8 693.625   5
  -6  -2  -9 18506.0 705.875   5
  -6   2  -8 879.308 171.039   5
  -6  -2  -8 747.146 169.840   5
  -6   2  -7 37916.3 878.420   5
  -6  -2  -7 37816.9 886.813   5
  -6   2  -6 616.143 121.392   5
  -6   2  -6 733.474 145.198   3
  -6  -2  -6 737.288 138.682   5
  -6   2  -5 56657.8 919.118   5
  -6  -2  -5 58059.8 957.194   5
  -6   2  -5 58240.2 1010.90   3
  -6   2  -4 3558.31 221.186   5
  -6   2  -4 3236.62 230.784   3
  -6  -2  -4 3506.79 229.048   5
  -6  -2  -4 3455.70 226.843   3
  -6  -2  -4 3418.32 198.120   6
  -6  -2  -3 90834.6 1036.04   5
  -6   2  -3 94178.3 1192.16   2
  -6   2  -3 93461.4 1141.68   3
  -6  -2  -3 93415.2 1161.37   2
  -6   2  -3 93208.1 1002.89   5
  -6  -2  -3 92894.8 897.004   6
  -6   2  -3 95629.9 823.313   6
  -6  -2  -3 95212.0 1077.43   3
  -6   2  -2 8451.40 346.509   2
  -6   2  -2 8669.82 332.270   3
  -6  -2  -2 8353.84 300.245   3
  -6  -2  -2 8341.31 241.155   6
  -6   2  -2 8056.49 267.083   5
  -6  -2  -2 8501.45 334.255   2
  -6  -2  -2 8462.69 296.446   5
  -6   2  -2 8025.40 192.239   6
  -6  -2  -1 54030.0 774.312   2
  -6  -2  -1 55261.1 708.979   3
  -6  -2  -1 54201.3 675.676   5
  -6   2  -1 52652.4 604.607   5
  -6   2  -1 50148.8 342.279   6
  -6  -2  -1 55161.1 545.035   6
  -6   2  -1 52851.7 791.270   2
  -6   2   0 1745.89 100.709   5
  -6  -2   0 1566.82 109.941   5
  -6  -2   0 1927.92 97.3115   6
  -6   2   0 1580.08 137.896   4
  -6  -2   0 1490.79 129.123   4
  -6   2   0 1555.63 136.861   2
  -6  -2   0 1692.46 136.830   2
  -6   2   1 10602.0 316.862   1
  -6   2   1 10725.5 324.987   4
  -6  -2   1 10788.0 319.090   4
  -6   2   1 10364.7 192.927   5
  -6  -2   1 10785.2 219.787   6
  -6   2   2 483.319 39.3981   5
  -6  -2   2 404.620 70.7009   4
  -6   2   2 439.844 79.1611   1
  -6   2   2 786.332 91.6713   4
  -6  -2   3 19125.4 440.926   1
  -6   2   3 19588.2 446.700   1
  -6   2   3 18482.9 220.586   5
  -6  -2   3 19490.6 401.822   4
  -6   2   3 19771.4 431.518   4
  -6   2   4 23089.1 299.410   5
  -6   2   4 23637.1 478.930   4
  -6  -2   4 23139.1 387.321   5
  -6  -2   4 23271.1 439.295   4
  -6  -2   4 23768.2 498.991   1
  -6   2   4 23637.2 508.677   1
  -6  -2   5 12335.3 373.227   1
  -6   2   5 12508.4 384.421   1
  -6   2   5 12050.2 260.325   5
  -6  -2   5 12037.4 307.078   5
  -6  -2   6 4739.15 245.030   1
  -6  -2   6 4741.47 210.203   5
  -6   2   6 4762.02 191.068   5
  -6   2   7 18624.6 425.408   5
  -6   3 -10 4072.85 368.616   5
  -6  -3 -10 3754.24 347.010   5
  -6  -3  -9 3002.37 298.291   5
  -6   3  -9 2679.71 279.715   5
  -6   3  -8 44820.5 1014.14   5
  -6  -3  -8 43518.6 1012.21   5
  -6   3  -7 26.0600 91.0159   5
  -6  -3  -7 112.853 97.9937   5
  -6  -3  -6 52406.5 983.877   5
  -6   3  -6 51906.5 951.805   5
  -6   3  -6 54578.2 1055.46   3
  -6   3  -5 1070.34 141.720   5
  -6   3  -5 1289.48 170.221   3
  -6  -3  -5 1223.07 162.933   5
  -6   3  -4 45263.4 755.637   5
  -6   3  -4 47557.4 898.752   2
  -6  -3  -4 46249.1 794.211   3
  -6   3  -4 47457.8 879.260   3
  -6  -3  -4 45251.5 712.655   6
  -6  -3  -4 46286.6 815.794   5
  -6   3  -3 2947.27 179.756   5
  -6  -3  -3 3014.50 198.894   5
  -6   3  -3 3155.43 222.355   3
  -6  -3  -3 2857.08 191.372   3
  -6   3  -3 3281.81 234.887   2
  -6  -3  -3 2843.23 168.670   6
  -6   3  -2 63972.1 737.157   5
  -6   3  -2 65709.6 916.611   3
  -6  -3  -2 63617.9 695.354   6
  -6   3  -2 66610.5 951.911   2
  -6  -3  -2 65139.2 814.269   3
  -6   3  -2 64924.0 522.491   6
  -6  -3  -2 64733.0 821.228   5
  -6  -3  -2 64948.5 903.157   2
  -6  -3  -1 14309.0 358.842   5
  -6  -3  -1 14808.1 401.959   2
  -6  -3  -1 14134.1 296.456   6
  -6   3  -1 14149.6 304.556   5
  -6  -3  -1 14469.3 353.512   3
  -6   3  -1 14387.0 417.896   2
  -6  -3   0 8184.51 250.845   5
  -6   3   0 8197.55 305.828   2
  -6   3   0 8200.90 196.657   5
  -6   3   0 8191.87 296.002   4
  -6  -3   0 8182.60 210.062   6
  -6  -3   0 7940.47 292.123   4
  -6  -3   0 8297.27 286.367   2
  -6  -3   1 4338.16 197.270   2
  -6   3   1 4032.58 194.610   1
  -6   3   1 4150.21 110.482   5
  -6  -3   1 4219.56 151.793   6
  -6   3   1 4051.22 203.110   4
  -6  -3   1 4415.43 207.946   4
  -6  -3   2 19928.1 340.533   6
  -6   3   2 20601.9 444.929   4
  -6   3   2 19515.4 434.277   1
  -6  -3   2 19880.6 410.961   4
  -6   3   3 344.251 89.5172   1
  -6   3   3 222.857 65.8559   4
  -6   3   3 146.042 20.9313   5
  -6  -3   3 281.523 64.8445   4
  -6  -3   3 293.403 75.4755   1
  -6  -3   4 1909.98 129.782   4
  -6   3   4 2005.08 156.917   1
  -6   3   4 1760.59 77.6734   5
  -6  -3   4 2034.56 156.531   1
  -6  -3   4 1894.38 121.608   5
  -6   3   5 6113.72 178.186   5
  -6  -3   5 6141.59 228.066   5
  -6  -3   5 5989.37 263.159   1
  -6  -3   6 12417.8 386.806   1
  -6   3   6 12410.0 300.080   5
  -6  -3   6 12336.9 349.232   5
  -6   3   7 749.806 93.3941   5
  -6   4 -10 1012.82 206.585   5
  -6   4  -9 14504.9 622.192   5
  -6  -4  -9 14379.6 627.789   5
  -6  -4  -8 4748.24 343.658   5
  -6   4  -8 4441.02 328.245   5
  -6   4  -7 6921.60 376.839   5
  -6  -4  -7 7436.87 408.232   5
  -6   4  -6 996.673 148.413   5
  -6   4  -6 932.601 160.553   3
  -6  -4  -6 940.934 154.710   5
  -6  -4  -5 66336.7 1053.15   5
  -6   4  -5 64142.2 977.664   5
  -6   4  -5 66564.5 1110.53   3
  -6  -4  -4 37853.4 741.292   5
  -6   4  -4 38346.2 697.408   5
  -6   4  -4 38340.5 806.806   3
  -6   4  -4 38476.1 813.862   2
  -6  -4  -3 44928.5 712.490   3
  -6   4  -3 46174.6 848.607   2
  -6  -4  -3 45731.1 762.614   5
  -6  -4  -3 42909.8 649.678   6
  -6   4  -3 44774.6 685.088   5
  -6   4  -3 44474.6 810.169   3
  -6   4  -2 72046.3 991.095   2
  -6   4  -2 72319.2 978.035   3
  -6  -4  -2 69621.0 875.373   5
  -6  -4  -2 71684.9 935.331   2
  -6   4  -2 70587.8 530.285   6
  -6  -4  -2 68348.0 750.127   6
  -6   4  -2 69791.7 760.934   5
  -6  -4  -2 72102.9 837.319   3
  -6  -4  -1 169.568 60.2100   5
  -6   4  -1 212.309 50.8735   5
  -6  -4  -1 240.801 59.8563   3
  -6  -4  -1 230.795 80.3878   2
  -6   4  -1 352.156 92.7724   2
  -6  -4   0 32162.0 547.901   2
  -6   4   0 30896.9 363.442   5
  -6  -4   0 30998.3 503.331   5
  -6   4   0 31254.6 527.476   1
  -6  -4   0 31962.3 446.112   6
  -6   4   0 31906.4 598.621   2
  -6  -4   0 31554.8 570.934   4
  -6   4   1 48730.9 669.474   1
  -6   4   1 44185.3 317.886   5
  -6  -4   1 48538.7 641.005   2
  -6   4   1 46609.4 692.417   4
  -6  -4   1 46917.2 533.706   6
  -6  -4   1 47552.9 665.540   4
  -6   4   2 51488.6 718.217   4
  -6  -4   2 50810.1 651.129   4
  -6   4   2 52008.7 707.511   1
  -6  -4   2 52773.4 588.563   6
  -6   4   3 2653.74 168.093   4
  -6  -4   3 2451.19 173.333   1
  -6   4   3 2416.33 166.505   1
  -6  -4   3 2411.96 141.442   4
  -6  -4   4 12791.5 314.042   4
  -6  -4   4 13851.2 388.920   1
  -6   4   4 12238.8 178.606   5
  -6   4   4 13145.8 383.877   1
  -6  -4   4 13223.5 320.553   5
  -6  -4   5 7363.54 257.574   5
  -6   4   5 7175.86 182.462   5
  -6  -4   5 7353.43 287.632   1
  -6   4   6 1311.25 100.242   5
  -6  -4   6 1327.81 122.231   5
  -6  -4   6 1398.63 143.756   1
  -6   4   7 52221.5 687.482   5
  -6   5 -10 1210.69 211.554   5
  -6   5  -9 14100.6 613.888   5
  -6  -5  -9 14198.8 626.672   5
  -6  -5  -8 680.221 151.750   5
  -6   5  -8 676.563 145.330   5
  -6  -5  -7 426.917 124.021   5
  -6   5  -7 479.132 122.807   5
  -6   5  -6 1590.45 180.550   5
  -6  -5  -6 1363.37 182.536   5
  -6   5  -6 1179.39 176.178   3
  -6   5  -5 15861.2 487.373   5
  -6  -5  -5 16223.8 530.950   5
  -6   5  -5 16345.8 557.996   3
  -6  -5  -4 6426.49 314.324   5
  -6   5  -4 6895.01 353.754   3
  -6   5  -4 6360.78 286.263   5
  -6   5  -4 7004.51 358.817   2
  -6   5  -3 26973.5 654.768   2
  -6  -5  -3 26644.5 591.049   5
  -6   5  -3 26743.8 639.256   3
  -6   5  -3 26242.3 522.502   5
  -6  -5  -3 27571.2 549.083   3
  -6  -5  -3 25952.2 526.882   6
  -6   5  -2 5711.91 288.845   2
  -6  -5  -2 5904.20 233.335   3
  -6   5  -2 5529.65 215.973   5
  -6   5  -2 5921.67 290.824   3
  -6  -5  -2 5733.86 259.958   5
  -6  -5  -2 6095.41 238.884   6
  -6   5  -2 5566.42 140.390   6
  -6  -5  -2 5619.90 262.151   2
  -6  -5  -1 143789. 1048.75   3
  -6   5  -1 141412. 1100.09   1
  -6   5  -1 141024. 932.714   5
  -6  -5  -1 141002. 1040.26   6
  -6  -5  -1 146182. 1244.57   2
  -6  -5  -1 144378. 1191.30   5
  -6   5  -1 147814. 1357.06   2
  -6   5   0 434.565 71.8786   1
  -6  -5   0 442.549 75.8447   5
  -6   5   0 614.650 57.7363   5
  -6  -5   0 574.319 72.5953   3
  -6  -5   0 1023.17 100.281   6
  -6   5   0 549.608 103.365   2
  -6  -5   0 438.937 75.0726   2
  -6  -5   0 675.166 93.8774   4
  -6  -5   1 46971.3 657.313   4
  -6   5   1 46384.7 646.628   1
  -6  -5   1 46772.0 611.064   2
  -6  -5   1 47294.0 570.382   6
  -6  -5   2 7468.61 251.457   4
  -6  -5   2 7681.14 238.728   6
  -6   5   2 7409.13 271.839   1
  -6   5   3 25541.3 516.252   1
  -6  -5   3 25222.1 434.240   4
  -6  -5   4 13763.9 318.479   4
  -6  -5   4 14293.0 392.259   1
  -6   5   4 12439.4 151.289   5
  -6   5   5 15288.2 256.782   5
  -6  -5   5 15783.0 389.220   5
  -6  -5   5 15662.7 416.752   1
  -6   5   6 720.900 77.5104   5
  -6  -5   6 727.198 111.728   1
  -6   5   7 5580.82 225.192   5
  -6   6 -10 3490.48 296.034   6
  -6   6 -10 3385.02 326.538   5
  -6   6  -9 4017.27 346.395   5
  -6  -6  -9 4012.69 343.714   5
  -6  -6  -8 6006.65 396.683   5
  -6   6  -8 5955.42 379.084   5
  -6  -6  -7 25644.2 752.941   5
  -6   6  -7 27239.4 812.023   3
  -6   6  -7 25305.3 712.624   5
  -6   6  -6 3794.30 295.208   3
  -6  -6  -6 3742.26 286.324   5
  -6   6  -6 3654.56 261.110   5
  -6   6  -5 42894.2 915.955   3
  -6  -6  -5 40922.3 846.698   5
  -6   6  -5 41306.5 783.173   5
  -6   6  -4 11538.5 383.398   5
  -6   6  -4 11541.9 305.438   6
  -6  -6  -4 11884.8 434.547   5
  -6   6  -4 11899.4 461.374   3
  -6   6  -4 12167.4 466.602   2
  -6   6  -3 13080.1 466.722   2
  -6   6  -3 12601.3 446.207   3
  -6  -6  -3 12193.2 408.607   5
  -6  -6  -3 12765.7 384.660   6
  -6   6  -3 12606.5 270.896   6
  -6   6  -3 11806.0 352.480   5
  -6   6  -2 62244.2 715.581   5
  -6   6  -2 63537.5 950.463   2
  -6  -6  -2 63942.4 876.158   5
  -6   6  -2 64695.8 948.581   3
  -6  -6  -2 62725.5 782.577   6
  -6  -6  -2 64297.8 742.637   3
  -6   6  -2 61388.3 464.894   6
  -6  -6  -1 7703.26 287.895   5
  -6   6  -1 7068.02 247.446   1
  -6  -6  -1 7105.81 275.905   2
  -6  -6  -1 7710.54 237.659   3
  -6  -6  -1 8631.10 277.687   6
  -6   6  -1 7502.61 317.597   2
  -6   6  -1 7384.17 214.719   5
  -6  -6   0 62023.7 808.896   4
  -6  -6   0 64473.8 619.452   3
  -6  -6   0 64033.7 751.878   2
  -6   6   0 63493.6 744.823   1
  -6  -6   0 64100.1 710.977   6
  -6   6   0 62448.3 487.810   5
  -6   6   0 64740.5 876.192   2
  -6  -6   1 4184.62 185.272   2
  -6  -6   1 4598.29 193.207   6
  -6  -6   1 4152.60 199.333   4
  -6   6   1 4232.47 202.557   1
  -6  -6   2 95705.7 888.708   4
  -6   6   2 95139.7 961.737   1
  -6  -6   2 94890.5 882.552   6
  -6  -6   3 39786.9 593.922   6
  -6   6   3 39712.0 647.200   1
  -6  -6   3 38684.5 529.861   4
  -6  -6   4 42109.1 542.241   4
  -6  -6   4 41479.3 672.198   1
  -6   6   5 26351.0 320.102   5
  -6  -6   5 26818.0 522.108   5
  -6  -6   5 26836.5 544.402   1
  -6   6   6 409.826 60.3379   5
  -6  -6   6 528.881 98.8630   1
  -6  -6   7 10992.1 375.495   1
  -6   6   7 11129.5 312.533   5
  -6   6   8 800.721 102.645   5
  -6   7 -10 5020.13 397.703   5
  -6  -7  -9 4104.03 352.702   5
  -6   7  -9 4008.84 294.631   6
  -6   7  -9 3694.48 317.104   5
  -6   7  -8 32310.7 755.536   6
  -6  -7  -8 33277.0 912.637   5
  -6   7  -8 32355.6 866.362   5
  -6   7  -7 1231.93 150.153   6
  -6  -7  -7 1119.62 181.336   5
  -6   7  -7 1432.96 217.004   3
  -6   7  -7 1218.29 178.028   5
  -6   7  -6 74993.1 969.602   6
  -6  -7  -6 76139.4 1240.16   5
  -6   7  -6 76560.8 1303.77   3
  -6   7  -6 72651.0 1118.97   5
  -6  -7  -5 191.983 102.626   5
  -6   7  -5 167.974 108.848   3
  -6   7  -5 249.308 90.1678   5
  -6   7  -5 223.906 60.7278   6
  -6   7  -4 52431.8 654.503   6
  -6  -7  -4 53054.4 917.552   5
  -6   7  -4 53459.6 978.362   3
  -6   7  -4 53389.9 982.040   2
  -6   7  -4 52520.5 813.178   5
  -6   7  -3 14896.6 495.318   2
  -6   7  -3 14523.4 492.206   3
  -6   7  -3 14388.6 292.773   6
  -6  -7  -3 14657.6 458.706   5
  -6   7  -3 14387.8 388.746   5
  -6   7  -2 24347.3 443.888   1
  -6   7  -2 26383.7 615.693   2
  -6   7  -2 25071.6 307.295   6
  -6   7  -2 24922.6 604.399   3
  -6  -7  -2 25220.9 560.488   5
  -6  -7  -2 26467.9 528.390   6
  -6  -7  -2 24850.0 451.039   3
  -6   7  -2 25203.6 453.972   5
  -6  -7  -1 15292.3 378.137   6
  -6   7  -1 14877.8 301.081   5
  -6   7  -1 15240.4 356.743   1
  -6  -7  -1 14910.9 389.951   2
  -6  -7  -1 15370.3 415.561   5
  -6   7  -1 14498.8 441.199   2
  -6  -7  -1 15001.0 314.149   3
  -6  -7   0 16708.7 387.727   2
  -6   7   0 16361.4 379.292   1
  -6  -7   0 16540.6 298.584   3
  -6  -7   0 18058.9 399.624   6
  -6   7   0 16539.3 251.647   5
  -6  -7   1 32104.4 494.860   2
  -6  -7   1 31539.6 525.940   6
  -6  -7   1 31888.0 544.860   4
  -6   7   1 32336.3 545.878   1
  -6  -7   2 43759.2 620.891   6
  -6  -7   2 42978.0 590.970   4
  -6   7   2 44332.0 664.436   1
  -6  -7   3 5905.51 205.802   4
  -6  -7   3 6174.26 250.640   6
  -6  -7   4 26842.1 545.343   1
  -6  -7   4 26553.7 425.857   4
  -6  -7   5 1799.48 154.638   1
  -6  -7   6 71214.7 910.069   1
  -6   7   6 70493.8 647.546   5
  -6  -7   7 2997.83 202.220   1
  -6   7   7 3087.96 166.627   5
  -6   7   8 26317.1 537.833   5
  -6   8  -9 6831.69 431.189   5
  -6  -8  -9 6968.22 455.840   5
  -6   8  -9 7566.04 397.977   6
  -6   8  -8-109.635 82.0011   6
  -6  -8  -8-106.118 116.573   5
  -6   8  -8 18.9834 94.6451   5
  -6   8  -7 23446.3 599.769   6
  -6  -8  -7 22750.1 727.623   5
  -6   8  -7 24420.2 790.289   3
  -6   8  -7 22491.2 677.081   5
  -6   8  -6 1348.07 143.742   6
  -6   8  -6 1465.02 171.426   5
  -6   8  -6 1258.99 195.195   3
  -6  -8  -6 1172.52 179.972   5
  -6  -8  -5 54739.4 1000.55   5
  -6   8  -5 53683.2 900.464   5
  -6   8  -5 54068.9 750.955   6
  -6   8  -5 55333.4 1069.33   3
  -6   8  -4-3.39185 60.5719   5
  -6   8  -4 105.356 56.6818   1
  -6   8  -4 83.2910 89.0201   3
  -6  -8  -4 96.8148 79.3196   5
  -6   8  -4-8.24525 49.2228   6
  -6   8  -4 111.447 92.2035   2
  -6   8  -3 858.324 143.280   3
  -6   8  -3 700.753 100.661   5
  -6  -8  -3 704.427 115.456   5
  -6   8  -3 695.710 124.534   2
  -6   8  -3 656.512 74.4325   6
  -6   8  -3 536.713 75.5540   1
  -6   8  -2 23109.2 306.657   6
  -6   8  -2 22946.3 589.402   3
  -6  -8  -2 23537.6 515.590   6
  -6  -8  -2 23220.4 549.208   5
  -6   8  -2 23452.4 431.176   1
  -6   8  -2 23671.8 592.070   2
  -6   8  -2 23155.4 439.919   5
  -6   8  -1 6506.11 202.706   5
  -6  -8  -1 6384.48 278.325   5
  -6  -8  -1 6574.25 198.335   3
  -6  -8  -1 6692.03 263.760   2
  -6  -8  -1 7244.96 279.242   6
  -6   8  -1 6458.05 232.577   1
  -6   8  -1 6285.34 117.887   6
  -6   8  -1 6210.60 292.226   2
  -6  -8   0 25655.1 497.035   6
  -6  -8   0 25833.7 475.038   2
  -6  -8   0 25469.2 345.498   3
  -6   8   0 25414.7 469.456   1
  -6   8   1 6240.87 245.620   1
  -6  -8   1 6216.05 216.712   2
  -6  -8   1 7222.81 264.915   6
  -6  -8   1 6244.29 244.339   4
  -6  -8   2 19006.1 394.680   4
  -6  -8   2 18416.8 352.471   2
  -6  -8   2 19952.7 443.282   6
  -6  -8   3 39814.6 526.380   4
  -6  -8   3 40296.6 643.756   6
  -6  -8   4 6229.98 266.540   1
  -6  -8   4 5964.09 198.575   4
  -6  -8   5 25519.5 539.687   1
  -6   8   6 199.721 45.6258   5
  -6  -8   6 353.867 91.0121   1
  -6  -8   7 328.396 89.4406   1
  -6   8   7 188.988 55.8493   5
  -6  -9  -9 1955.67 252.174   5
  -6   9  -9 1988.49 215.189   6
  -6   9  -9 1818.91 238.701   5
  -6  -9  -8 4427.69 344.124   5
  -6   9  -8 4390.75 286.080   6
  -6   9  -8 4540.03 338.183   5
  -6  -9  -7 3876.68 315.728   5
  -6   9  -7 3776.75 249.052   6
  -6   9  -7 3641.25 323.404   3
  -6   9  -7 3730.95 286.895   5
  -6  -9  -6 14970.5 565.148   5
  -6   9  -6 15731.2 611.170   3
  -6   9  -6 14268.8 506.532   5
  -6   9  -6 15241.5 444.120   6
  -6  -9  -5 31074.3 767.685   5
  -6   9  -5 30100.0 568.891   6
  -6   9  -5 29963.7 465.075   1
  -6   9  -5 30866.7 817.067   3
  -6   9  -5 29874.5 674.959   5
  -6   9  -4 38540.0 530.179   1
  -6  -9  -4 39426.7 813.852   5
  -6   9  -4 39665.8 860.655   2
  -6   9  -4 39729.6 871.980   3
  -6   9  -4 38178.6 700.069   5
  -6   9  -4 38260.5 574.394   6
  -6  -9  -3 25388.3 621.060   5
  -6   9  -3 27363.3 681.281   2
  -6   9  -3 25773.1 668.732   3
  -6   9  -3 25645.3 437.174   1
  -6   9  -3 25636.7 405.690   6
  -6   9  -3 25159.7 515.286   5
  -6   9  -2 7171.00 181.627   6
  -6   9  -2 7511.95 345.130   2
  -6  -9  -2 7071.29 314.941   5
  -6   9  -2 7016.41 246.980   5
  -6   9  -2 7006.49 235.615   1
  -6   9  -1 61220.3 420.884   6
  -6  -9  -1 62887.8 834.730   6
  -6   9  -1 64986.1 937.465   2
  -6   9  -1 64963.0 723.574   1
  -6  -9  -1 66403.3 903.978   5
  -6   9  -1 64740.5 635.921   5
  -6  -9   0 3050.13 109.542   3
  -6  -9   0 3156.30 167.236   2
  -6  -9   0 3759.82 206.692   6
  -6   9   0 3107.57 170.783   1
  -6  -9   1 37978.2 598.326   4
  -6   9   1 38984.0 609.011   1
  -6  -9   1 40271.2 639.842   6
  -6  -9   1 39625.4 528.734   2
  -6  -9   1 36854.0 333.490   3
  -6  -9   2 1233.83 128.015   6
  -6  -9   2 1391.75 112.123   4
  -6  -9   2 1268.99 100.633   2
  -6  -9   3 26466.9 424.458   4
  -6  -9   4 2629.96 130.165   4
  -6  -9   5 165.296 69.1485   1
  -6  -9   6 952.356 119.136   1
  -6  -9   7 51.0248 58.3996   1
  -6   9   7 153.754 53.2108   5
  -6 -10  -9 279.530 133.743   5
  -6  10  -9 347.099 136.869   5
  -6 -10  -8 626.614 169.494   5
  -6  10  -8 307.313 80.3529   6
  -6  10  -8 407.505 135.934   5
  -6 -10  -7 135.150 117.266   5
  -6  10  -7 11.6567 76.6792   6
  -6  10  -7 72.0633 99.0361   3
  -6  10  -7 23.0324 103.938   5
  -6 -10  -6 533.865 146.125   5
  -6  10  -6 588.264 153.069   3
  -6  10  -6 422.429 97.7015   6
  -6  10  -6 485.711 121.528   5
  -6  10  -5 175.840 51.1491   1
  -6 -10  -5 222.068 91.3669   5
  -6  10  -5 197.761 110.078   3
  -6  10  -5 133.183 61.8391   6
  -6  10  -5 215.707 84.3587   5
  -6 -10  -4 15667.1 529.259   5
  -6  10  -4 16189.3 329.232   1
  -6  10  -4 16548.6 566.083   2
  -6  10  -4 16482.1 574.943   3
  -6  10  -4 15929.9 376.100   6
  -6  10  -4 15813.5 454.532   5
  -6  10  -3 127.200 71.8591   2
  -6  10  -3 85.3411 46.1590   1
  -6  10  -3 103.241 46.6070   6
  -6  10  -3 48.7688 90.4703   3
  -6 -10  -3-14.0414 71.1269   5
  -6  10  -3 113.580 58.7670   5
  -6  10  -2 63743.7 995.615   2
  -6  10  -2 62263.5 683.231   1
  -6  10  -2 62419.6 733.977   5
  -6 -10  -2 65217.5 966.191   5
  -6  10  -2 62043.1 556.718   6
  -6 -10  -1 3394.54 217.511   5
  -6  10  -1 3751.99 122.489   6
  -6  10  -1 3272.46 225.335   2
  -6  10  -1 3537.81 174.856   1
  -6  10   0 117556. 1014.22   1
  -6  10   0 114673. 590.595   6
  -6 -10   0 118052. 968.941   2
  -6 -10   1-11.3856 41.9562   4
  -6 -10   1-16.2044 41.7143   2
  -6 -10   1 84.2592 56.1550   6
  -6 -10   2 95950.8 871.350   4
  -6 -10   2 98744.1 757.760   2
  -6 -10   3 3582.50 159.101   4
  -6 -10   4 2016.96 111.742   4
  -6 -10   5 3328.47 201.444   1
  -6 -10   6 8532.45 320.035   1
  -6 -10   7 2083.75 166.806   1
  -6 -11  -9 2146.22 260.896   5
  -6  11  -9 2049.67 254.689   5
  -6 -11  -8 7452.37 460.133   5
  -6  11  -8 7564.04 436.765   5
  -6  11  -8 6977.94 362.971   6
  -6 -11  -7 3199.75 291.854   5
  -6  11  -7 3453.49 322.133   3
  -6  11  -7 3421.46 279.002   5
  -6  11  -7 3328.87 238.296   6
  -6 -11  -6 13197.2 546.388   5
  -6  11  -6 12783.9 487.294   5
  -6  11  -6 13164.9 569.347   3
  -6  11  -6 13094.9 424.576   6
  -6  11  -5 492.111 62.7354   1
  -6 -11  -5 586.063 140.190   5
  -6  11  -5 498.770 94.9104   6
  -6  11  -5 672.755 158.249   3
  -6  11  -5 458.966 105.053   5
  -6  11  -4 19959.0 348.114   1
  -6  11  -4 20663.0 631.146   2
  -6 -11  -4 19604.9 603.669   5
  -6  11  -4 20641.8 652.713   3
  -6  11  -4 20099.4 516.958   5
  -6  11  -4 20548.0 438.312   6
  -6  11  -3 3677.71 270.548   3
  -6  11  -3 3503.88 204.459   5
  -6 -11  -3 3525.88 251.953   5
  -6  11  -3 3532.85 162.869   6
  -6  11  -3 4118.42 280.446   2
  -6  11  -3 3486.84 157.042   1
  -6  11  -2 9954.99 402.205   2
  -6 -11  -2 9595.15 382.847   5
  -6  11  -2 10505.1 245.991   6
  -6  11  -2 9657.62 269.461   1
  -6  11  -1 2814.75 155.276   1
  -6 -11  -1 2830.38 203.565   5
  -6  11  -1 3461.10 130.041   6
  -6  11  -1 2734.46 206.590   2
  -6  11   0 8237.30 183.829   6
  -6 -11   1 10526.6 321.224   4
  -6 -11   1 11085.6 264.979   2
  -6 -11   2 5066.94 166.945   2
  -6 -11   2 5129.99 206.510   4
  -6 -11   3 13353.5 297.145   4
  -6 -11   3 13071.7 212.019   3
  -6 -11   4 930.126 77.1770   4
  -6 -11   5 3143.31 200.635   1
  -6 -11   5 2904.39 156.760   3
  -6 -11   6 26106.1 554.733   1
  -6 -11   6 25104.2 512.980   3
  -6 -11   7 4246.05 234.591   1
  -6  12  -9 7445.14 466.645   5
  -6 -12  -8 102.921 108.875   5
  -6  12  -8 137.585 95.6238   6
  -6  12  -8 91.4984 112.374   5
  -6  12  -7 23926.1 624.400   6
  -6  12  -7 24393.9 725.202   5
  -6  12  -7 24417.3 821.387   3
  -6 -12  -7 25964.6 813.239   5
  -6  12  -6 13.4100 70.9288   6
  -6  12  -6 84.6150 115.716   3
  -6 -12  -6 199.392 134.904   5
  -6  12  -6-156.711 92.4292   5
  -6 -12  -5 60658.7 1119.73   5
  -6  12  -5 62106.9 1201.18   3
  -6  12  -5 60426.7 837.049   6
  -6  12  -5 60188.7 977.623   5
  -6  12  -4 95.0614 58.4911   6
  -6  12  -4 278.667 120.356   3
  -6  12  -4 77.0702 64.9289   5
  -6  12  -4 136.133 106.656   2
  -6 -12  -4 204.922 99.8148   5
  -6  12  -4 134.133 41.8985   1
  -6  12  -3 23746.6 676.450   3
  -6  12  -3 24807.7 673.385   2
  -6 -12  -3 23678.4 636.980   5
  -6  12  -3 23967.7 436.017   6
  -6  12  -2 3365.13 241.779   2
  -6 -12  -2 3239.97 230.611   5
  -6  12  -2 3323.99 149.624   6
  -6 -12  -1 204.898 85.3866   5
  -6  12  -1 248.842 96.3148   2
  -6  12   0 11170.5 234.555   6
  -6 -12   1 2350.34 155.876   4
  -6 -12   2 15798.2 275.654   2
  -6 -12   2 14968.2 344.583   4
  -6 -12   3 38981.6 311.515   3
  -6 -12   3 43315.7 435.708   2
  -6 -12   3 42420.7 520.210   4
  -6 -12   4 371.698 52.4536   3
  -6 -12   4 422.762 55.3356   4
  -6 -12   5 39210.5 684.652   1
  -6 -12   5 38290.7 548.939   3
  -6 -12   6 6776.52 291.243   1
  -6 -12   6 6670.06 264.165   3
  -6 -12   7 1915.66 164.479   1
  -6  13  -9 2313.46 267.269   5
  -6 -13  -8 8996.01 515.300   5
  -6  13  -8 9654.77 554.302   3
  -6  13  -8 8891.30 472.994   5
  -6 -13  -7 477.397 135.206   5
  -6  13  -7 608.787 160.120   3
  -6  13  -7 558.662 114.492   6
  -6  13  -7 483.458 121.455   5
  -6 -13  -6 42526.2 1001.32   5
  -6  13  -6 41667.4 770.632   6
  -6  13  -6 40940.0 878.476   5
  -6  13  -6 43290.8 1052.72   3
  -6  13  -5 163.034 76.7747   5
  -6 -13  -5 166.400 117.845   5
  -6  13  -5 324.239 138.893   3
  -6  13  -5 136.371 68.1415   6
  -6  13  -4 18782.5 612.097   2
  -6  13  -4 18246.6 633.356   3
  -6 -13  -4 17550.4 590.038   5
  -6  13  -4 17978.9 430.110   6
  -6  13  -3 523.225 82.3429   6
  -6 -13  -3 510.293 126.791   5
  -6  13  -3 596.176 141.760   3
  -6  13  -3 704.416 134.827   2
  -6  13  -2 949.604 145.107   2
  -6 -13  -2 605.081 116.702   5
  -6  13  -2 688.296 76.9545   6
  -6  13  -1 19269.6 541.898   2
  -6  13  -1 20086.5 352.791   6
  -6  13   0 11688.2 261.848   6
  -6 -13   2 1822.54 87.4297   2
  -6 -13   2 1955.34 133.002   4
  -6 -13   3 150.592 30.0367   2
  -6 -13   3 182.000 52.3093   4
  -6 -13   4 20331.6 309.916   3
  -6 -13   4 20414.4 311.019   4
  -6 -13   5 1337.46 140.394   1
  -6 -13   5 1574.32 115.347   3
  -6 -13   6 21746.8 469.687   3
  -6 -13   6 22694.7 525.825   1
  -6 -13   7 32.7651 58.1847   1
  -6 -13   8 311.424 88.6572   1
  -6  14  -8 1591.21 246.577   3
  -6 -14  -8 1716.64 249.006   5
  -6  14  -7 3267.90 242.217   6
  -6 -14  -7 3345.37 310.259   5
  -6  14  -7 3211.10 311.810   3
  -6  14  -6 423.150 101.613   6
  -6 -14  -6 551.150 148.730   5
  -6  14  -6 522.174 163.519   3
  -6 -14  -5 16129.5 599.783   5
  -6  14  -5 15914.5 629.064   3
  -6  14  -5 15543.9 445.387   6
  -6  14  -4 17146.3 620.379   3
  -6  14  -4 16953.5 588.742   2
  -6 -14  -4 16656.4 582.373   5
  -6  14  -4 16894.7 428.257   6
  -6  14  -3 4377.20 295.454   2
  -6  14  -3 3988.34 296.541   3
  -6 -14  -3 3783.67 272.921   5
  -6  14  -3 3961.98 199.517   6
  -6  14  -2 4252.29 277.290   2
  -6 -14  -2 4454.39 288.069   5
  -6  14  -2 4465.21 194.905   6
  -6  14  -1 238.969 107.716   2
  -6  14  -1 963.430 109.531   6
  -6  14   0 417.916 67.2828   6
  -6 -14   2 45921.8 606.744   4
  -6 -14   3 4762.04 172.440   4
  -6 -14   4 7429.78 173.360   3
  -6 -14   4 7120.24 151.858   2
  -6 -14   4 7716.07 183.089   4
  -6 -14   5 2076.13 169.996   1
  -6 -14   5 2137.39 126.095   3
  -6 -14   6 54.2777 46.0441   3
  -6 -14   6 189.494 87.8837   1
  -6 -14   7 4288.02 239.264   1
  -6 -14   8 37.4744 60.3454   1
  -6 -15  -8 778.406 177.857   5
  -6  15  -8 795.274 188.497   3
  -6  15  -7 121.091 125.394   3
  -6 -15  -7 37.1039 122.778   5
  -6 -15  -6 50.0112 101.810   5
  -6  15  -6 162.644 93.7182   6
  -6  15  -6 159.924 105.832   3
  -6 -15  -5 11416.1 514.478   5
  -6  15  -5 11812.6 551.825   3
  -6  15  -5 10778.0 381.251   6
  -6  15  -4 4407.30 309.372   2
  -6  15  -4 4008.50 309.496   3
  -6 -15  -4 3964.64 298.459   5
  -6  15  -4 3964.75 217.480   6
  -6  15  -3 28234.8 738.239   2
  -6  15  -3 26846.4 750.994   3
  -6 -15  -3 26542.2 713.917   5
  -6  15  -3 26816.0 514.905   6
  -6  15  -2 13525.4 491.106   2
  -6 -15  -2 13113.7 485.941   5
  -6  15  -2 12988.0 335.753   6
  -6  15  -1 137878. 1041.39   6
  -6  15  -1 138297. 1486.73   2
  -6  15   0 1900.40 128.587   6
  -6  15   0 1759.33 176.336   2
  -6 -15   2 1081.56 99.6601   4
  -6 -15   3 13513.3 282.030   4
  -6 -15   4 63.1063 29.1678   4
  -6 -15   5 11236.9 379.840   1
  -6 -15   5 11359.6 274.744   3
  -6 -15   6 655.483 107.066   1
  -6 -15   7 7275.03 305.717   1
  -6 -15   8 102.982 61.9226   1
  -6  16  -8 1447.85 231.629   3
  -6 -16  -7 4012.74 351.549   5
  -6  16  -7 4133.04 369.147   3
  -6 -16  -6 7408.50 442.557   5
  -6  16  -6 7689.34 470.920   3
  -6  16  -6 7907.63 358.761   6
  -6 -16  -5 13802.3 574.028   5
  -6  16  -5 14428.0 616.016   3
  -6  16  -5 14496.9 451.636   6
  -6  16  -4 7432.81 401.365   2
  -6  16  -4 8100.42 444.472   3
  -6 -16  -4 6438.61 378.751   5
  -6  16  -4 6939.44 293.361   6
  -6  16  -3 23813.0 683.460   2
  -6  16  -3 23395.0 715.347   3
  -6  16  -3 23120.6 494.921   6
  -6 -16  -3 23006.4 681.303   5
  -6  16  -2 38286.6 825.708   2
  -6 -16  -2 37336.8 836.191   5
  -6  16  -2 37474.2 598.918   6
  -6  16  -1 3519.90 187.302   6
  -6  16  -1 3144.75 243.105   2
  -6  16   0 1946.08 135.804   6
  -6  16   0 1904.85 182.952   2
  -6  16   1 2648.36 168.897   6
  -6 -16   2 4425.84 192.321   4
  -6 -16   3 126.530 46.7711   4
  -6 -16   6 1587.38 151.367   1
  -6 -16   7 10446.1 363.205   1
  -6 -16   8 721.083 112.454   1
  -6  17  -7 133.045 142.269   3
  -6 -17  -7 376.812 153.374   5
  -6 -17  -6 11375.3 558.578   5
  -6  17  -6 12740.6 608.892   3
  -6 -17  -5 132.243 103.658   5
  -6  17  -5 211.368 94.5298   6
  -6  17  -5 157.718 102.833   3
  -6  17  -4 24485.7 723.610   2
  -6  17  -4 23611.7 548.681   6
  -6  17  -4 24928.0 776.633   3
  -6 -17  -4 24030.3 743.234   5
  -6  17  -3 463.933 89.9803   6
  -6 -17  -3 372.130 132.396   5
  -6  17  -3 471.229 136.011   3
  -6  17  -3 299.894 112.367   2
  -6  17  -2 2417.81 221.668   2
  -6  17  -2 2237.91 162.010   6
  -6 -17  -2 2172.09 221.050   5
  -6  17  -2 2531.81 240.455   3
  -6  17  -1 8678.34 390.598   2
  -6  17  -1 9198.10 302.226   6
  -6  17   0 2928.41 179.833   6
  -6  17   0 2278.28 205.832   2
  -6  17   1 8670.55 300.607   6
  -6 -17   2 9428.09 275.778   4
  -6 -17   3 5100.40 168.114   4
  -6 -17   6 22214.8 537.306   1
  -6 -17   7 4177.08 238.477   1
  -6 -17   8 9300.31 340.555   1
  -6 -18  -7 17353.3 719.711   5
  -6  18  -7 18097.7 761.949   3
  -6 -18  -6 2376.89 276.841   5
  -6  18  -6 2592.62 294.574   3
  -6 -18  -5 17761.8 674.785   5
  -6  18  -5 18409.0 717.034   3
  -6  18  -5 17863.3 520.437   6
  -6  18  -4 2628.69 269.337   3
  -6  18  -4 2531.07 192.772   6
  -6  18  -4 2788.04 259.915   2
  -6 -18  -4 2714.37 263.597   5
  -6  18  -3 17407.4 597.708   2
  -6  18  -3 17559.6 639.199   3
  -6  18  -3 17513.1 463.614   6
  -6 -18  -3 17134.1 615.254   5
  -6  18  -2 4314.77 228.142   6
  -6  18  -2 3559.61 270.592   2
  -6 -18  -2 4032.26 302.527   5
  -6  18  -2 3761.76 300.115   3
  -6  18  -1 1217.13 138.516   6
  -6  18  -1 811.666 146.401   2
  -6  18   0 8837.43 391.181   2
  -6  18   0 9490.17 320.495   6
  -6  18   1 4284.36 229.717   6
  -6 -18   6 2190.36 183.387   1
  -6 -18   7 22495.5 533.465   1
  -6  19  -7 105.938 122.955   3
  -6 -19  -6 22.6250 108.266   5
  -6  19  -6 197.632 141.278   3
  -6  19  -5 8664.52 501.455   3
  -6 -19  -5 8255.55 468.455   5
  -6  19  -4 7303.89 444.617   3
  -6 -19  -4 7100.24 420.243   5
  -6  19  -4 6706.47 313.192   6
  -6  19  -4 7549.08 416.909   2
  -6  19  -3 13323.6 528.336   2
  -6  19  -3 12920.6 561.000   3
  -6 -19  -3 13203.5 552.113   5
  -6  19  -3 13160.6 417.508   6
  -6  19  -2 2461.52 227.400   2
  -6  19  -2 2566.73 255.002   3
  -6  19  -2 2443.16 182.865   6
  -6 -19  -2 2412.03 243.102   5
  -6  19  -1 41543.8 696.846   6
  -6  19  -1 41452.0 862.671   2
  -6  19   0 95.5904 87.6641   2
  -6  19   0 208.382 80.4515   6
  -6  19   1 35260.6 661.284   6
  -6 -19   6 3698.18 226.695   1
  -6 -19   7 567.308 105.126   1
  -6 -20  -6 2241.38 274.527   5
  -6  20  -6 2324.31 282.449   3
  -6 -20  -5 3725.51 329.528   5
  -6  20  -5 3783.67 339.785   3
  -6  20  -4 1195.29 158.615   6
  -6 -20  -4 1264.89 210.324   5
  -6  20  -4 1299.24 215.129   3
  -6  20  -4 1379.55 197.944   2
  -6  20  -3 2969.64 264.531   2
  -6  20  -3 3274.43 298.421   3
  -6  20  -3 3229.69 222.312   6
  -6 -20  -3 2991.38 277.690   5
  -6  20  -2 35546.8 832.476   2
  -6  20  -2 35773.4 908.377   3
  -6 -20  -2 34765.9 880.594   5
  -6  20  -2 33997.4 667.007   6
  -6  20  -1 1089.66 165.022   2
  -6  20  -1 1135.52 133.562   6
  -6  20   0 38782.1 699.894   6
  -6  20   0 39537.5 842.767   2
  -6  20   1 2349.35 186.692   6
  -6 -20   6 490.074 102.693   1
  -6 -21  -6 3788.24 352.073   5
  -6  21  -6 3839.17 357.199   3
  -6 -21  -5 14222.5 638.039   5
  -6  21  -5 14688.8 668.483   3
  -6  21  -4 14595.3 635.338   3
  -6  21  -4 15153.5 594.113   2
  -6 -21  -4 14966.7 626.445   5
  -6  21  -3 17324.0 509.224   6
  -6  21  -3 18773.1 643.846   2
  -6 -21  -3 18406.1 676.726   5
  -6  21  -3 18413.5 691.124   3
  -6  21  -2 19167.4 622.433   2
  -6  21  -2 18442.2 668.868   3
  -6  21  -2 18811.2 516.459   6
  -6 -21  -2 19016.7 672.712   5
  -6  21  -1 18132.7 589.043   2
  -6  21  -1 17502.6 490.924   6
  -6  21   0 1202.31 145.952   6
  -6  21   0 1142.66 165.497   2
  -6  21   1 6393.27 307.224   6
  -6 -21   6 12732.2 420.198   1
  -6  22  -6 241.543 145.305   3
  -6  22  -5 7791.35 495.313   3
  -6 -22  -5 6646.84 452.258   5
  -6  22  -4-10.7198 104.885   2
  -6 -22  -4 73.3375 124.535   5
  -6  22  -4-9.53542 113.572   3
  -6  22  -3 11981.9 517.570   2
  -6  22  -3 12200.6 577.387   3
  -6 -22  -3 12332.7 567.455   5
  -6  22  -2 99.5758 117.897   3
  -6 -22  -2-150.843 112.077   5
  -6  22  -2 135.043 89.9849   6
  -6  22  -2 215.899 115.639   2
  -6  22  -1 666.906 132.430   6
  -6  22  -1 475.042 118.036   2
  -6  22   0 1948.88 209.512   2
  -6  22   0 2448.15 199.960   6
  -6  22   1 4560.66 273.858   6
  -6 -23  -5-76.0784 118.002   5
  -6  23  -4 4078.80 324.022   2
  -6  23  -4 4012.13 352.124   3
  -6 -23  -4 4126.21 350.002   5
  -6 -23  -3 283.472 144.472   5
  -6  23  -3 236.941 133.243   3
  -6  23  -3 209.434 102.668   2
  -6  23  -2 5598.96 350.931   2
  -6  23  -2 5622.20 391.461   3
  -6 -23  -2 5658.44 389.863   5
  -6  23  -1 6263.38 361.473   2
  -6  23  -1 5956.04 310.623   6
  -6  23   0 994.522 151.581   6
  -6  23   0 725.444 151.072   2
  -6  23   1 3387.92 244.726   6
  -6  24  -5 546.569 158.740   3
  -6  24  -4 13331.1 642.229   3
  -6 -24  -4 13539.6 636.053   5
  -6  24  -4 13988.5 588.488   2
  -6 -24  -3 2831.94 303.352   5
  -6  24  -3 2422.24 278.223   3
  -6  24  -3 2764.22 262.733   2
  -6  24  -2 11375.6 564.849   3
  -6 -24  -2 11429.0 555.532   5
  -6  24  -1 41.2102 77.4318   6
  -6  24  -1 236.624 101.354   2
  -6  24   0 18487.0 556.442   6
  -6  24   0 18425.3 603.484   2
  -6  24   1 1709.38 196.921   2
  -6  24   1 1203.98 157.475   6
  -6  25  -4 494.178 166.721   3
  -6  25  -4 466.031 151.369   2
  -6  25  -3 13356.7 557.489   2
  -6  25  -3 12745.9 622.302   3
  -6 -25  -3 12427.7 602.281   5
  -6 -25  -2 1029.68 199.811   5
  -6  25  -2 1367.34 214.290   3
  -6  25  -2 1166.89 179.093   2
  -6  25  -1 11231.4 494.380   2
  -6  25   0 72.0694 80.7606   2
  -6  25   0 17.5738 86.9590   6
  -6  25   1 12509.2 483.929   6
  -6  25   1 12789.4 515.092   2
  -6  26  -3 3411.74 334.941   3
  -6  26  -2 11388.9 573.506   3
  -6  26  -2 11811.2 521.027   2
  -6 -26  -2 10846.7 568.178   5
  -6  26  -1 4580.58 324.644   2
  -6  26   0 17897.9 617.211   2
  -6  26   1 213.139 110.178   2
  -6  27  -3 682.545 177.772   3
  -6  27  -2 5527.62 416.141   3
  -6  27  -1 788.601 176.566   3
  -6  27   1 225.264 106.913   2
  -6  28  -3 604.549 168.523   3
  -6  28  -2-80.4184 127.451   3
  -6  28  -1 1303.00 218.424   3
  -6  29  -2 967.645 204.303   3
  -6  29  -1 9322.57 541.637   3
  -6  30  -1 208.362 139.355   3
  -5   0 -10 2459.37 283.073   5
  -5   0  -9 78.6894 97.9756   5
  -5   0  -8 596.696 143.523   5
  -5   0  -7 25.8525 86.0803   5
  -5   0  -6 4498.32 280.165   5
  -5   0  -5 156.082 105.810   5
  -5   0  -5 12.2810 89.9125   3
  -5   0  -4 66503.7 893.373   5
  -5   0  -4 67627.7 945.048   3
  -5   0  -3 123.587 73.0483   5
  -5   0  -3 180.239 77.3871   3
  -5   0  -3-102.738 75.1361   2
  -5   0  -2 238215. 1405.34   5
  -5   0  -2 242771. 1540.54   3
  -5   0  -2 239601. 1126.76   6
  -5   0  -2 248475. 1676.29   2
  -5   0  -1 50.4665 44.2949   5
  -5   0  -1-3.37565 23.4276   6
  -5   0  -1-18.5381 50.8795   2
  -5   0  -1-39.3599 45.8508   4
  -5   0   0 42634.4 600.505   2
  -5   0   0 41564.7 455.386   5
  -5   0   0 41860.9 591.933   4
  -5   0   0 41101.7 312.514   6
  -5   0   1 3.68335 42.3431   4
  -5   0   1 41.3692 24.7006   5
  -5   0   2 11551.2 290.021   4
  -5   0   2 12013.3 312.781   1
  -5   0   3 31.5294 34.0492   4
  -5   0   3 81.5027 50.3005   1
  -5   0   3 34.9634 23.3703   5
  -5   0   4 2967.65 179.276   1
  -5   0   4 2727.36 122.243   5
  -5   0   5 47.1237 34.1843   5
  -5   0   5 47.6775 53.0431   1
  -5   0   6 106574. 953.748   5
  -5   0   7-13.5346 49.9022   5
  -5   1 -10 2408.24 272.804   5
  -5  -1 -10 2591.82 285.688   5
  -5  -1  -9 3101.49 293.211   5
  -5   1  -9 2897.53 285.003   5
  -5   1  -8 703.049 157.736   5
  -5  -1  -8 421.253 138.781   5
  -5  -1  -7 1622.60 186.481   5
  -5   1  -7 1501.77 183.618   5
  -5   1  -6 37243.6 779.966   5
  -5  -1  -6 37603.1 797.539   5
  -5   1  -5 41308.8 804.321   3
  -5  -1  -5 41018.4 768.928   5
  -5   1  -5 40721.4 755.927   5
  -5   1  -4 3180.12 215.526   3
  -5   1  -4 3388.58 205.914   5
  -5  -1  -4 3276.80 211.087   5
  -5  -1  -4 4374.13 221.538   6
  -5  -1  -4 3326.80 211.083   3
  -5   1  -3 36324.9 598.830   5
  -5  -1  -3 38419.1 634.699   5
  -5   1  -3 38197.6 679.090   3
  -5   1  -3 38377.8 707.909   2
  -5  -1  -3 38260.6 699.860   2
  -5  -1  -3 38373.7 547.037   6
  -5  -1  -3 37961.4 650.145   3
  -5   1  -2 24387.4 443.667   5
  -5  -1  -2 24227.9 457.566   5
  -5  -1  -2 24946.8 526.441   2
  -5  -1  -2 23735.6 475.995   3
  -5  -1  -2 23482.8 373.569   6
  -5   1  -2 24030.1 343.718   6
  -5   1  -2 24516.4 502.452   3
  -5   1  -2 25038.2 535.618   2
  -5  -1  -1 14945.6 376.266   2
  -5   1  -1 15952.9 312.872   5
  -5  -1  -1 15694.0 351.920   3
  -5  -1  -1 15341.5 384.766   4
  -5   1  -1 15535.6 388.149   2
  -5   1  -1 15153.6 214.284   6
  -5  -1  -1 15849.3 260.303   6
  -5   1  -1 14973.5 377.841   4
  -5  -1  -1 15337.0 326.492   5
  -5  -1   0 9866.05 285.966   2
  -5  -1   0 9868.63 179.831   6
  -5   1   0 9802.29 293.595   2
  -5   1   0 9801.63 212.359   5
  -5  -1   0 9551.60 229.960   5
  -5  -1   0 9622.69 286.286   4
  -5   1   0 9575.22 286.674   4
  -5   1   0 8342.97 111.960   6
  -5   1   1 27562.5 463.015   4
  -5  -1   1 27534.0 303.101   6
  -5   1   1 26797.4 455.086   1
  -5   1   1 27533.8 296.866   5
  -5  -1   1 28293.0 463.010   4
  -5  -1   2 107761. 928.592   1
  -5  -1   2 109799. 871.472   4
  -5   1   2 108342. 897.020   4
  -5   1   2 111995. 945.233   1
  -5  -1   3 6056.85 228.025   1
  -5   1   3 5796.11 209.716   4
  -5   1   3 5507.72 219.452   1
  -5  -1   3 5547.34 198.448   4
  -5   1   3 5651.85 136.128   5
  -5  -1   3 5549.59 162.845   5
  -5  -1   4 61610.8 664.920   4
  -5  -1   4 59941.9 737.261   1
  -5   1   4 60355.7 527.949   5
  -5  -1   4 61108.6 589.275   5
  -5   1   4 61713.9 755.938   1
  -5   1   5 312.893 52.4158   5
  -5  -1   5 425.402 81.7195   1
  -5  -1   5 338.301 61.3840   5
  -5   1   6 17420.2 381.960   5
  -5  -1   6 17329.0 394.538   5
  -5   1   7 16402.4 411.977   5
  -5   2 -10 1337.29 219.235   5
  -5  -2 -10 1442.30 225.272   5
  -5   2  -9 7671.43 443.078   5
  -5  -2  -9 7105.84 429.138   5
  -5   2  -8 1947.78 220.481   5
  -5  -2  -8 2032.55 230.473   5
  -5   2  -7 2609.28 230.822   5
  -5  -2  -7 2587.63 236.207   5
  -5   2  -6 462.500 107.458   5
  -5  -2  -6 695.799 132.028   5
  -5   2  -5-89.0524 75.8312   5
  -5  -2  -5 38.2871 69.5710   5
  -5   2  -5 106.523 73.1205   3
  -5   2  -4 2378.79 174.920   5
  -5  -2  -4 2685.41 190.661   5
  -5  -2  -4 2587.19 187.170   3
  -5   2  -4 2943.55 210.628   3
  -5  -2  -4 2909.09 187.668   6
  -5   2  -3 11651.1 396.104   2
  -5  -2  -3 11775.6 316.690   6
  -5  -2  -3 11345.7 348.508   5
  -5   2  -3 11956.3 386.536   3
  -5  -2  -3 11399.1 350.970   3
  -5   2  -3 11219.4 332.138   5
  -5   2  -2 657.559 104.729   2
  -5   2  -2 295.194 62.2455   5
  -5  -2  -2 229.197 60.5573   5
  -5  -2  -2 712.433 101.467   6
  -5   2  -2 340.855 78.5128   3
  -5  -2  -2 189.442 46.8736   3
  -5  -2  -2 292.615 72.2796   2
  -5   2  -2 191.062 63.0092   4
  -5  -2  -1 50243.9 682.064   2
  -5  -2  -1 48661.7 490.566   6
  -5  -2  -1 50302.3 615.746   3
  -5  -2  -1 50646.2 608.879   5
  -5   2  -1 49002.4 538.375   5
  -5   2  -1 49873.9 689.699   4
  -5   2  -1 50389.3 707.337   2
  -5   2   0 14820.4 247.641   5
  -5   2   0 14985.6 360.169   4
  -5  -2   0 14839.2 300.009   5
  -5  -2   0 15072.9 358.978   4
  -5  -2   0 16153.0 259.773   6
  -5   2   0 15201.3 370.424   2
  -5  -2   0 14702.9 339.334   2
  -5   2   1 144192. 1073.34   4
  -5   2   1 144901. 1044.45   1
  -5  -2   1 146104. 1046.63   4
  -5  -2   1 141413. 757.758   6
  -5  -2   2 27849.1 434.024   4
  -5   2   2 28824.8 480.642   1
  -5   2   2 27745.3 463.582   4
  -5   2   3 62875.5 405.689   5
  -5  -2   3 65450.1 743.593   1
  -5   2   3 64613.8 745.305   1
  -5   2   3 65916.3 715.447   4
  -5  -2   3 64215.7 654.293   4
  -5   2   4 797.532 65.6113   5
  -5  -2   4 901.401 93.1144   4
  -5  -2   4 832.933 80.9197   5
  -5  -2   4 928.622 108.165   1
  -5   2   4 1070.66 123.929   1
  -5   2   5 17846.7 330.871   5
  -5  -2   5 17945.9 420.126   1
  -5  -2   5 18759.5 379.034   5
  -5  -2   6 15119.9 378.327   5
  -5   2   6 14465.6 342.910   5
  -5   2   7 22535.8 479.901   5
  -5  -3 -10 8879.58 510.626   5
  -5   3 -10 8899.99 504.890   5
  -5  -3  -9 885.461 171.728   5
  -5   3  -9 1116.71 189.573   5
  -5   3  -8 399.828 114.644   5
  -5  -3  -8 621.618 148.131   5
  -5   3  -7 170.733 92.2495   5
  -5  -3  -7 116.800 89.3669   5
  -5  -3  -6 2759.05 222.016   5
  -5   3  -6 2900.40 238.161   3
  -5   3  -6 2997.57 229.405   5
  -5   3  -5 373.764 86.9232   5
  -5  -3  -5 526.261 110.031   5
  -5   3  -5 644.422 126.226   3
  -5   3  -4 9195.62 331.633   5
  -5  -3  -4 9390.18 321.208   6
  -5  -3  -4 9245.82 351.297   5
  -5  -3  -4 9562.25 343.420   3
  -5   3  -4 9415.96 376.410   3
  -5   3  -3 319.124 81.6834   3
  -5  -3  -3 304.377 76.5340   5
  -5  -3  -3 313.719 71.6760   3
  -5   3  -3 103.584 70.3012   2
  -5  -3  -3 322.196 68.7010   6
  -5   3  -3 389.071 81.8584   5
  -5   3  -2 1583.66 150.815   2
  -5  -3  -2 1707.02 143.800   2
  -5  -3  -2 1582.07 123.425   3
  -5   3  -2 1707.52 121.336   5
  -5   3  -2 1483.81 139.309   3
  -5  -3  -2 2200.17 142.875   6
  -5  -3  -2 1526.32 129.464   5
  -5   3  -2 1522.06 134.033   4
  -5   3  -1 71424.3 634.133   5
  -5  -3  -1 73867.7 725.033   3
  -5  -3  -1 72270.3 750.125   5
  -5   3  -1 73818.4 866.368   2
  -5  -3  -1 72816.1 816.347   2
  -5   3  -1 72274.8 831.828   4
  -5  -3  -1 72859.3 642.608   6
  -5   3   0 41942.1 395.990   5
  -5  -3   0 42492.2 570.273   2
  -5  -3   0 41906.7 521.770   5
  -5  -3   0 42711.1 454.177   6
  -5  -3   0 42512.8 602.403   4
  -5   3   0 42502.7 606.941   4
  -5  -3   1 60743.4 538.608   6
  -5   3   1 60977.7 676.687   1
  -5   3   1 58440.1 341.314   5
  -5   3   1 61594.8 700.649   4
  -5  -3   1 60310.6 671.651   4
  -5   3   2 134886. 1041.11   1
  -5  -3   2 135232. 946.353   4
  -5  -3   2 133926. 856.146   6
  -5   3   2 134714. 1038.07   4
  -5  -3   3 104.523 48.8467   4
  -5   3   3 276.790 66.1826   4
  -5   3   3 42.3129 16.9950   5
  -5   3   3 162.962 68.4023   1
  -5  -3   3 235.436 74.0415   1
  -5  -3   4 159776. 1022.31   4
  -5   3   4 159663. 781.948   5
  -5  -3   4 161307. 1050.84   5
  -5  -3   5 395.347 72.0420   5
  -5  -3   5 351.079 79.1408   1
  -5   3   5 305.204 51.5653   5
  -5   3   6 79886.8 793.115   5
  -5  -3   6 78566.1 876.128   5
  -5   3   7 3126.96 181.404   5
  -5   4 -10 132.527 100.570   5
  -5  -4 -10 585.373 177.074   5
  -5  -4  -9 218.284 124.728   5
  -5   4  -9 31.5107 100.428   5
  -5  -4  -8 15118.1 586.029   5
  -5   4  -8 15153.5 577.557   5
  -5   4  -7 2109.45 212.270   5
  -5  -4  -7 2050.92 221.274   5
  -5   4  -6 43132.3 835.750   5
  -5  -4  -6 42840.8 865.153   5
  -5   4  -6 43974.5 921.034   3
  -5   4  -5 277.017 83.4297   5
  -5  -4  -5 404.042 106.419   5
  -5   4  -5 359.830 99.5015   3
  -5   4  -4 23370.6 525.237   5
  -5  -4  -4 24169.8 563.814   5
  -5   4  -4 23943.4 603.951   3
  -5  -4  -4 24715.1 528.266   6
  -5   4  -4 24185.3 608.985   2
  -5  -4  -3 674.457 108.553   5
  -5  -4  -3 565.113 86.2006   6
  -5   4  -3 622.670 109.692   3
  -5  -4  -3 582.670 90.7258   3
  -5   4  -3 597.183 86.9106   5
  -5   4  -3 552.216 110.982   2
  -5   4  -2 36373.5 656.958   2
  -5   4  -2 36498.4 650.163   3
  -5  -4  -2 35418.2 587.912   5
  -5  -4  -2 36885.3 622.040   2
  -5   4  -2 35664.2 616.464   4
  -5  -4  -2 35069.9 536.946   3
  -5   4  -2 34787.2 510.143   5
  -5  -4  -2 35571.8 524.710   6
  -5   4  -1 35332.1 441.011   5
  -5  -4  -1 36489.5 491.873   3
  -5  -4  -1 37093.0 577.112   2
  -5   4  -1 33081.2 248.556   6
  -5  -4  -1 36627.8 548.782   5
  -5   4  -1 35895.7 613.114   2
  -5  -4  -1 36287.6 485.417   6
  -5   4  -1 35687.3 584.477   4
  -5  -4   0 123654. 956.761   2
  -5  -4   0 121989. 1017.89   4
  -5   4   0 122047. 655.790   5
  -5  -4   0 121333. 832.085   6
  -5  -4   0 122394. 925.688   5
  -5   4   0 125880. 1048.96   4
  -5   4   0 121333. 931.631   1
  -5   4   1 10648.8 299.637   4
  -5   4   1 10878.7 287.370   1
  -5  -4   1 10964.0 249.606   6
  -5  -4   1 10811.8 282.229   4
  -5   4   1 9162.89 115.272   5
  -5   4   2 5271.98 212.295   1
  -5   4   2 5501.17 216.674   4
  -5  -4   2 6133.43 198.506   6
  -5  -4   2 5649.57 195.953   4
  -5   4   3 194530. 1290.95   4
  -5   4   3 194325. 1314.81   1
  -5  -4   3 190495. 1080.40   4
  -5  -4   3 190413. 1281.08   1
  -5  -4   4 882.695 83.6290   4
  -5  -4   4 943.352 92.7861   5
  -5   4   4 876.673 57.9435   5
  -5  -4   4 1146.36 115.920   1
  -5   4   5 50612.3 528.424   5
  -5  -4   5 50163.7 688.911   1
  -5  -4   5 51789.5 669.163   5
  -5  -4   6 15517.4 398.698   1
  -5   4   6 14670.6 336.396   5
  -5  -4   6 14914.1 394.158   5
  -5   4   7 3532.53 191.396   5
  -5   5 -10 138.079 120.266   5
  -5  -5 -10 40.5281 118.457   5
  -5  -5  -9 12812.5 577.747   5
  -5   5  -9 12876.0 570.373   5
  -5  -5  -8 352.493 129.301   5
  -5   5  -8 307.049 116.344   5
  -5  -5  -7 13165.2 516.355   5
  -5   5  -7 13046.6 500.945   5
  -5   5  -6 2110.70 199.714   5
  -5  -5  -6 2119.51 210.057   5
  -5   5  -6 2297.86 220.097   3
  -5  -5  -5 60075.8 973.652   5
  -5   5  -5 60430.9 913.169   5
  -5   5  -5 61882.9 1034.32   3
  -5   5  -4 576.644 108.882   5
  -5  -5  -4 723.463 118.006   5
  -5   5  -4 663.250 116.249   3
  -5   5  -4 626.262 125.360   2
  -5  -5  -3 53729.5 735.365   6
  -5   5  -3 51696.5 699.516   5
  -5  -5  -3 52818.4 791.882   5
  -5   5  -3 53551.3 851.462   3
  -5   5  -3 53392.4 863.842   2
  -5   5  -2 3014.56 199.211   2
  -5  -5  -2 3026.30 155.660   3
  -5   5  -2 2872.99 198.806   3
  -5  -5  -2 2845.61 177.344   5
  -5   5  -2 2841.93 107.162   6
  -5   5  -2 2877.87 147.892   5
  -5  -5  -2 2745.42 158.471   6
  -5   5  -2 2997.49 182.793   4
  -5   5  -1 43519.5 484.153   5
  -5  -5  -1 45264.9 530.278   3
  -5  -5  -1 44973.1 628.146   2
  -5  -5  -1 44441.8 623.299   5
  -5  -5  -1 45869.3 579.374   6
  -5   5  -1 46569.9 667.119   4
  -5   5  -1 43562.3 681.096   2
  -5   5  -1 43177.8 543.939   1
  -5  -5   0 5017.35 195.505   2
  -5  -5   0 5033.36 160.380   3
  -5   5   0 4701.87 186.734   1
  -5  -5   0 4942.49 180.599   6
  -5   5   0 4976.10 213.040   4
  -5   5   0 4851.80 128.107   5
  -5  -5   1 85659.5 736.434   2
  -5  -5   1 85441.8 793.926   4
  -5   5   1 84458.6 798.918   1
  -5   5   1 86130.8 854.715   4
  -5  -5   1 87289.8 743.668   6
  -5   5   2 51867.4 652.347   1
  -5  -5   2 51770.5 580.011   4
  -5  -5   2 52975.2 598.808   6
  -5   5   2 52692.6 675.228   4
  -5   5   3 4266.66 200.732   4
  -5   5   3 4258.73 206.531   1
  -5  -5   3 4135.53 158.549   4
  -5  -5   4 201.584 44.9257   4
  -5   5   4 251.550 33.7531   5
  -5  -5   4 391.617 78.2339   1
  -5  -5   4 254.797 56.4561   5
  -5   5   5 43400.7 482.024   5
  -5  -5   5 43433.1 635.174   5
  -5  -5   5 43726.9 643.188   1
  -5  -5   6 6091.22 252.151   1
  -5   5   6 5470.26 205.888   5
  -5   5   7 40314.5 628.906   5
  -5   6 -11 635.736 168.418   6
  -5   6 -10 1824.37 245.180   5
  -5  -6 -10 1610.29 236.619   5
  -5  -6  -9 3927.56 328.103   5
  -5   6  -9 3902.37 323.721   5
  -5  -6  -8 9138.81 465.414   5
  -5   6  -8 8832.02 446.116   5
  -5  -6  -7 28118.5 758.945   5
  -5   6  -7 26407.6 710.989   5
  -5  -6  -6 4541.59 297.203   5
  -5   6  -6 4349.07 298.933   3
  -5   6  -6 4571.58 283.076   5
  -5  -6  -5 3798.59 261.824   5
  -5   6  -5 3959.21 277.411   3
  -5   6  -5 3865.95 244.727   5
  -5  -6  -4 34758.0 701.024   5
  -5   6  -4 35420.3 754.592   3
  -5   6  -4 35022.7 741.254   2
  -5   6  -4 33897.7 632.656   5
  -5  -6  -3 523.241 100.127   6
  -5   6  -3 523.987 88.2613   5
  -5  -6  -3 344.979 90.2513   5
  -5   6  -3 451.953 102.746   3
  -5   6  -3 477.117 96.7102   2
  -5   6  -3 520.529 72.5604   6
  -5   6  -2 56834.9 773.243   4
  -5   6  -2 57699.6 836.687   2
  -5  -6  -2 58153.8 788.123   5
  -5   6  -2 56626.9 839.748   3
  -5  -6  -2 58959.1 659.005   3
  -5   6  -2 57453.6 486.070   6
  -5  -6  -2 57821.0 722.493   6
  -5   6  -2 57672.4 654.621   5
  -5   6  -1 23778.6 401.531   1
  -5  -6  -1 24188.3 457.160   2
  -5  -6  -1 24452.3 477.527   5
  -5   6  -1 24413.4 488.863   4
  -5   6  -1 22614.5 222.967   6
  -5  -6  -1 24091.0 374.611   3
  -5  -6  -1 24729.3 443.497   6
  -5   6  -1 24563.6 518.706   2
  -5   6  -1 24148.1 360.962   5
  -5  -6   0 1802.22 122.362   2
  -5  -6   0 1611.09 89.6345   3
  -5   6   0 2118.04 91.0607   5
  -5   6   0 1709.33 116.454   1
  -5   6   0 1827.32 136.277   4
  -5  -6   1 2065.71 116.600   2
  -5  -6   1 2141.27 134.033   4
  -5  -6   1 2201.33 132.557   6
  -5   6   1 2489.89 150.334   1
  -5   6   1 2092.07 140.575   4
  -5   6   2 1118.14 113.227   1
  -5   6   2 914.335 106.306   4
  -5  -6   2 969.457 90.4275   4
  -5  -6   2 1801.16 157.261   6
  -5   6   3 84030.2 886.454   4
  -5  -6   3 85295.6 842.611   6
  -5  -6   3 82493.5 676.388   4
  -5  -6   4 12075.9 257.880   4
  -5  -6   4 11383.5 322.958   1
  -5   6   4 11535.2 185.275   5
  -5  -6   5 153492. 1229.76   5
  -5   6   5 151375. 884.307   5
  -5  -6   5 149194. 1186.37   1
  -5   6   6 42348.0 561.483   5
  -5  -6   6 43292.1 656.899   1
  -5   6   7 15457.4 387.960   5
  -5   7 -11 1512.15 221.522   6
  -5  -7 -10 1098.58 196.320   5
  -5   7 -10 976.621 173.969   6
  -5   7 -10 952.158 188.053   5
  -5  -7  -9 2963.08 299.596   5
  -5   7  -9 3004.27 264.319   6
  -5   7  -9 3072.33 289.793   5
  -5   7  -8 925.985 160.599   5
  -5  -7  -8 846.231 162.264   5
  -5  -7  -7 3579.51 289.814   5
  -5   7  -7 3873.40 312.855   3
  -5   7  -7 3398.26 260.422   5
  -5   7  -6 2510.56 212.465   5
  -5  -7  -6 2158.94 213.936   5
  -5   7  -6 2482.07 239.938   3
  -5   7  -5 118.075 84.2705   5
  -5   7  -5 186.841 75.0528   3
  -5   7  -5 295.637 87.0721   6
  -5  -7  -5-66.8599 76.8241   5
  -5   7  -4 6562.31 237.242   6
  -5   7  -4 6636.97 332.367   3
  -5   7  -4 6028.23 271.084   5
  -5   7  -4 6515.11 327.901   2
  -5  -7  -4 6629.98 314.894   5
  -5   7  -3 20409.5 542.726   2
  -5  -7  -3 19491.0 500.834   5
  -5   7  -3 19595.8 353.607   6
  -5   7  -3 19356.0 531.647   3
  -5  -7  -3 19590.6 474.320   6
  -5   7  -3 18601.1 424.668   5
  -5   7  -2 10975.4 377.160   2
  -5   7  -2 10967.4 266.779   1
  -5   7  -2 10464.6 342.646   4
  -5   7  -2 10853.7 376.367   3
  -5  -7  -2 10760.8 350.839   5
  -5   7  -2 10803.0 218.978   6
  -5  -7  -2 11139.3 333.962   6
  -5   7  -2 10923.1 287.829   5
  -5   7  -1 6278.27 254.636   4
  -5  -7  -1 6675.83 259.948   5
  -5   7  -1 6404.46 208.104   1
  -5  -7  -1 6377.38 235.353   2
  -5  -7  -1 6284.37 181.555   3
  -5  -7  -1 8601.21 285.102   6
  -5   7  -1 6482.99 272.556   2
  -5   7  -1 6808.53 147.447   6
  -5   7  -1 6816.18 198.690   5
  -5  -7   0 245679. 1306.51   2
  -5  -7   0 242206. 957.996   3
  -5   7   0 245886. 1504.58   4
  -5  -7   0 246429. 1396.63   6
  -5   7   1 4932.93 214.544   4
  -5  -7   1 4691.61 195.199   6
  -5  -7   1 4868.82 192.594   4
  -5  -7   1 4849.99 170.255   2
  -5   7   1 5280.30 208.511   1
  -5  -7   2 400307. 1577.49   4
  -5  -7   2 410054. 1838.48   6
  -5   7   2 400823. 1922.99   4
  -5  -7   3 18974.2 420.808   6
  -5  -7   3 18646.8 316.981   4
  -5  -7   4 56087.7 714.720   1
  -5  -7   4 55867.4 533.884   4
  -5   7   5 1295.31 85.0313   5
  -5  -7   5 1475.29 135.477   1
  -5  -7   6 11157.6 335.238   1
  -5   7   6 11273.4 288.051   5
  -5   7   7 12561.8 348.252   5
  -5   8 -11 2676.04 288.712   6
  -5   8 -10 224.013 120.974   6
  -5  -8 -10 333.366 151.974   5
  -5   8 -10 104.096 115.945   5
  -5  -8  -9 11815.2 565.933   5
  -5   8  -9 12477.8 512.072   6
  -5   8  -9 11790.0 552.168   5
  -5   8  -8 5256.00 314.654   6
  -5  -8  -8 5599.23 371.377   5
  -5   8  -8 5624.73 361.900   5
  -5  -8  -7 13008.7 534.558   5
  -5   8  -7 12977.4 505.926   5
  -5   8  -7 12790.6 444.845   6
  -5   8  -7 12719.7 548.796   3
  -5  -8  -6 14809.0 535.540   5
  -5   8  -6 15600.8 571.826   3
  -5   8  -6 15310.4 447.112   6
  -5   8  -6 14617.7 496.251   5
  -5   8  -5 98.2231 60.9316   6
  -5  -8  -5 153.367 93.4361   5
  -5   8  -5 14.6107 82.6592   3
  -5   8  -5 110.932 70.6176   5
  -5   8  -4 19726.1 486.176   5
  -5  -8  -4 18896.8 532.167   5
  -5   8  -4 19505.4 562.171   2
  -5   8  -4 19189.6 572.160   3
  -5   8  -4 19247.7 407.452   6
  -5   8  -3 5780.86 200.753   6
  -5   8  -3 5878.10 189.733   1
  -5   8  -3 6158.39 303.786   2
  -5   8  -3 5682.78 300.366   3
  -5  -8  -3 5689.35 279.943   5
  -5   8  -3 5927.39 244.167   5
  -5   8  -2 20334.3 509.216   2
  -5   8  -2 19117.2 345.144   1
  -5   8  -2 19585.6 308.410   6
  -5   8  -2 19316.6 384.692   5
  -5  -8  -2 19625.1 483.000   5
  -5  -8  -2 20002.3 463.233   6
  -5  -8  -1 80052.7 912.296   5
  -5   8  -1 75943.5 508.218   6
  -5   8  -1 81940.8 963.543   2
  -5  -8  -1 77863.3 862.847   6
  -5   8  -1 79022.9 716.547   1
  -5   8  -1 80367.3 893.120   4
  -5   8  -1 78496.9 665.762   5
  -5  -8   0 105318. 841.285   2
  -5   8   0 104351. 523.682   6
  -5  -8   0 100654. 560.979   3
  -5  -8   0 106432. 969.767   6
  -5   8   0 105506. 996.624   4
  -5   8   0 103369. 857.397   1
  -5  -8   1 36298.0 448.820   2
  -5   8   1 37136.7 596.238   4
  -5   8   1 36914.6 540.607   1
  -5  -8   1 35749.1 518.591   4
  -5  -8   1 35980.4 560.982   6
  -5   8   2 589.834 99.8134   4
  -5  -8   2 439.806 84.3407   6
  -5  -8   2 371.691 60.4453   4
  -5  -8   3 93916.2 695.458   4
  -5  -8   3 97055.5 970.575   6
  -5  -8   4 9624.33 215.381   4
  -5  -8   4 9680.28 303.239   1
  -5  -8   5 86919.0 907.654   1
  -5  -8   6 15247.8 391.348   1
  -5   8   6 14659.9 329.005   5
  -5   8   7 28053.1 522.362   5
  -5   9 -11-26.5566 112.717   6
  -5   9 -10 1122.19 193.217   6
  -5   9 -10 1210.39 208.280   5
  -5  -9  -9 2164.05 263.781   5
  -5   9  -9 2149.42 227.090   6
  -5   9  -9 1800.33 224.840   5
  -5   9  -8 1271.36 166.753   6
  -5   9  -8 1200.41 183.337   5
  -5  -9  -8 1263.36 199.025   5
  -5  -9  -7 10708.2 492.814   5
  -5   9  -7 11305.1 424.655   6
  -5   9  -7 10775.3 512.570   3
  -5   9  -7 10160.6 447.321   5
  -5  -9  -6 63.1385 81.5115   5
  -5   9  -6 1.40293 91.4049   3
  -5   9  -6 54.5698 72.9209   6
  -5   9  -6 126.868 88.1094   5
  -5   9  -5 31930.2 786.562   3
  -5  -9  -5 30247.7 728.713   5
  -5   9  -5 31450.4 587.262   6
  -5   9  -5 30994.0 668.042   5
  -5   9  -5 31448.5 413.015   1
  -5   9  -4 22.9430 77.7055   3
  -5   9  -4 43.4705 63.3339   6
  -5   9  -4 57.8042 37.4712   1
  -5  -9  -4 10.4333 73.9784   5
  -5   9  -4-14.6623 69.0611   2
  -5   9  -4 44.9075 68.3135   5
  -5   9  -3 39926.8 768.093   2
  -5   9  -3 39769.7 628.471   5
  -5   9  -3 41152.3 798.494   3
  -5   9  -3 39625.1 470.883   1
  -5  -9  -3 39979.9 747.049   5
  -5   9  -3 39873.4 527.563   6
  -5   9  -2 2132.38 178.689   2
  -5  -9  -2 2567.93 182.467   6
  -5  -9  -2 2209.98 175.025   5
  -5   9  -2 2260.62 141.678   5
  -5   9  -2 2591.36 125.707   6
  -5   9  -2 2146.38 117.384   1
  -5  -9  -1 112284. 1114.32   5
  -5  -9  -1 114500. 1085.60   6
  -5   9  -1 110260. 671.156   6
  -5   9  -1 110857. 1067.59   4
  -5   9  -1 110157. 849.056   1
  -5   9  -1 111790. 1143.36   2
  -5  -9   0 2845.02 140.689   2
  -5  -9   0 3262.37 185.136   6
  -5   9   0 2894.87 153.372   1
  -5   9   0 3324.27 114.066   6
  -5   9   0 2980.59 173.930   4
  -5  -9   1 174252. 952.450   2
  -5  -9   1 167896. 1129.90   4
  -5  -9   1 175042. 1287.59   6
  -5   9   1 173547. 1308.98   4
  -5  -9   2 66447.4 547.034   2
  -5  -9   2 64943.7 796.075   6
  -5  -9   2 64614.8 632.225   4
  -5  -9   3 6358.07 180.977   4
  -5  -9   3 7047.50 281.433   6
  -5  -9   4 9918.63 209.149   4
  -5  -9   4 10138.0 312.750   1
  -5  -9   5 26519.4 507.447   1
  -5  -9   6 1054.98 112.844   1
  -5  -9   7 3399.10 195.955   1
  -5   9   7 3017.38 173.294   5
  -5  10 -10 5271.07 362.914   6
  -5  10 -10 5332.99 401.034   5
  -5 -10  -9 297.357 145.004   5
  -5  10  -9 240.103 122.965   6
  -5  10  -9 285.538 140.613   5
  -5 -10  -8 18734.6 693.283   5
  -5  10  -8 17951.6 641.889   5
  -5  10  -8 19135.1 589.649   6
  -5 -10  -7 1287.21 193.358   5
  -5  10  -7 1203.20 153.780   6
  -5  10  -7 1458.61 212.792   3
  -5  10  -7 1143.59 174.741   5
  -5  10  -6 18481.0 279.377   1
  -5 -10  -6 18214.7 608.244   5
  -5  10  -6 19115.0 652.383   3
  -5  10  -6 17691.2 553.386   5
  -5  10  -6 18774.4 502.065   6
  -5  10  -5 2809.17 214.839   5
  -5  10  -5 2770.83 113.986   1
  -5  10  -5 2672.26 183.905   6
  -5 -10  -5 2805.74 240.391   5
  -5  10  -5 2791.03 250.801   3
  -5 -10  -4 21413.4 588.298   5
  -5  10  -4 22491.0 616.119   2
  -5  10  -4 22047.8 630.080   3
  -5  10  -4 21495.3 444.117   6
  -5  10  -4 22178.7 326.360   1
  -5  10  -4 22250.0 527.527   5
  -5  10  -3 194.985 93.2185   3
  -5 -10  -3 138.955 86.0108   5
  -5  10  -3 172.192 87.6274   2
  -5  10  -3 54.3022 48.7724   5
  -5  10  -3 143.287 45.1648   1
  -5  10  -3-20.4591 44.6110   6
  -5  10  -2 77735.5 1021.58   2
  -5  10  -2 77599.1 673.574   6
  -5  10  -2 76190.9 666.923   1
  -5 -10  -2 76749.9 998.678   5
  -5  10  -2 75709.0 785.276   5
  -5  10  -1 39117.3 506.892   1
  -5  10  -1 40336.2 441.900   6
  -5 -10  -1 40629.4 675.917   6
  -5  10  -1 40101.3 696.475   2
  -5  10   0 58863.7 508.101   6
  -5  10   0 57870.7 763.312   4
  -5 -10   0 58090.5 784.827   6
  -5 -10   1 50687.3 495.752   2
  -5 -10   1 51973.4 730.101   6
  -5 -10   2 153.322 34.7399   2
  -5 -10   2 147.881 46.9204   4
  -5 -10   3 7819.37 194.437   4
  -5 -10   3 7793.49 175.013   3
  -5 -10   4 4164.84 131.642   4
  -5 -10   5 3019.01 178.416   1
  -5 -10   5 2901.29 160.818   3
  -5 -10   6 13903.9 373.528   1
  -5 -10   6 14271.8 396.637   3
  -5 -10   7 1056.87 119.790   1
  -5  11 -10 438.053 168.475   5
  -5  11 -10-73.8306 111.606   6
  -5 -11  -9 1178.14 204.225   5
  -5  11  -9 1469.40 193.421   6
  -5  11  -9 1213.66 204.824   5
  -5  11  -8 5065.12 310.778   6
  -5 -11  -8 5112.93 371.881   5
  -5  11  -8 4907.69 348.186   5
  -5  11  -7 11198.5 528.679   3
  -5 -11  -7 10802.5 506.512   5
  -5  11  -7 9639.84 445.070   5
  -5  11  -7 10453.3 414.932   6
  -5 -11  -6 12066.5 503.537   5
  -5  11  -6 12247.9 414.051   6
  -5  11  -6 12332.4 531.863   3
  -5  11  -6 12126.9 467.674   5
  -5  11  -5 18367.7 464.906   6
  -5 -11  -5 18396.0 587.700   5
  -5  11  -5 18325.4 618.627   3
  -5  11  -5 17662.2 517.602   5
  -5  11  -4 2135.96 211.625   3
  -5 -11  -4 2035.27 196.742   5
  -5  11  -4 2096.78 154.125   6
  -5  11  -4 1943.23 196.915   2
  -5  11  -4 2124.12 171.016   5
  -5  11  -4 2115.28 96.1032   1
  -5  11  -3 11438.4 238.334   1
  -5  11  -3 11806.6 428.564   2
  -5  11  -3 11649.3 444.651   3
  -5 -11  -3 11456.9 415.504   5
  -5  11  -3 11555.7 351.396   5
  -5  11  -3 11718.9 305.363   6
  -5  11  -2 44686.8 539.293   6
  -5  11  -2 46916.8 802.161   2
  -5 -11  -2 46332.8 792.768   5
  -5  11  -1 87252.1 697.856   6
  -5  11  -1 86812.4 1039.13   2
  -5  11   0 1378.10 93.7941   6
  -5  11   1 8741.85 228.408   6
  -5 -11   2 47728.0 405.421   2
  -5 -11   2 47683.8 542.596   4
  -5 -11   3 1076.93 64.4494   3
  -5 -11   3 1157.50 78.5222   4
  -5 -11   4 81425.4 537.780   4
  -5 -11   4 83303.5 707.517   3
  -5 -11   5 20868.2 454.142   1
  -5 -11   5 19922.4 409.006   3
  -5 -11   6 34185.5 586.309   1
  -5 -11   6 33384.0 600.841   3
  -5 -11   7 4496.38 223.154   1
  -5  12 -10 85.3104 110.790   6
  -5 -12  -9 7963.92 493.272   5
  -5  12  -9 7290.46 404.535   6
  -5  12  -9 7887.89 466.606   5
  -5 -12  -8 2616.92 281.478   5
  -5  12  -8 2447.63 227.615   6
  -5  12  -8 2714.44 269.340   5
  -5 -12  -7 5868.40 382.446   5
  -5  12  -7 5691.77 353.194   5
  -5  12  -7 5859.30 393.278   3
  -5  12  -7 5874.95 313.776   6
  -5  12  -6 5353.65 278.613   6
  -5 -12  -6 5663.98 356.407   5
  -5  12  -6 5438.33 362.142   3
  -5  12  -6 5178.28 312.699   5
  -5  12  -5 4884.82 279.397   5
  -5 -12  -5 4795.98 310.824   5
  -5  12  -5 4552.99 319.731   3
  -5  12  -5 4966.59 252.052   6
  -5 -12  -4 1095.33 149.038   5
  -5  12  -4 1066.04 160.722   3
  -5  12  -4 1149.17 126.852   6
  -5  12  -4 734.164 127.247   2
  -5  12  -4 1089.10 131.892   5
  -5  12  -3 20301.2 570.314   2
  -5  12  -3 19849.2 588.272   3
  -5 -12  -3 19509.3 556.681   5
  -5  12  -3 20023.8 422.992   6
  -5  12  -2 8947.85 360.211   2
  -5 -12  -2 8698.99 356.167   5
  -5  12  -2 8646.22 255.608   6
  -5  12  -1 16594.3 465.402   2
  -5  12  -1 16519.4 328.394   6
  -5  12   0 7841.01 219.669   6
  -5  12   1 152750. 1022.93   6
  -5 -12   2 2908.35 90.6702   2
  -5 -12   2 3300.84 146.334   4
  -5 -12   3 84130.5 499.216   3
  -5 -12   3 87937.0 622.633   4
  -5 -12   3 84436.5 490.649   2
  -5 -12   4 4362.28 118.534   4
  -5 -12   4 4462.18 162.696   3
  -5 -12   5 28969.2 538.210   1
  -5 -12   5 27427.1 479.881   3
  -5 -12   6 186.281 70.2085   3
  -5 -12   6 181.042 79.7833   1
  -5 -12   7 18377.3 435.451   1
  -5 -13  -9 2481.61 282.371   5
  -5  13  -9 2617.38 249.714   6
  -5  13  -9 2328.88 275.507   5
  -5 -13  -8 11966.2 575.813   5
  -5  13  -8 11971.9 488.861   6
  -5  13  -8 11609.4 530.673   5
  -5  13  -7 1190.91 172.518   5
  -5 -13  -7 1116.49 191.964   5
  -5  13  -7 1299.64 163.112   6
  -5  13  -7 1261.20 202.182   3
  -5 -13  -6 2707.49 252.947   5
  -5  13  -6 3025.55 283.053   3
  -5  13  -6 3184.31 225.816   6
  -5  13  -6 2511.88 223.221   5
  -5 -13  -5 20403.4 637.750   5
  -5  13  -5 21176.4 683.201   3
  -5  13  -5 21033.8 515.713   6
  -5 -13  -4 106.891 93.1003   5
  -5  13  -4 199.694 104.034   3
  -5  13  -4 167.760 81.3933   6
  -5  13  -4 13.6475 77.0553   2
  -5  13  -3 83512.0 1165.08   2
  -5  13  -3 80196.9 1192.36   3
  -5  13  -3 79897.8 856.959   6
  -5 -13  -3 79465.3 1136.63   5
  -5  13  -2 40348.1 765.445   2
  -5  13  -2 39718.0 563.371   6
  -5 -13  -2 39663.7 771.549   5
  -5  13  -1 7813.51 246.938   6
  -5  13  -1 6702.91 300.987   2
  -5  13   0 16147.5 338.166   6
  -5  13   1 5898.85 222.033   6
  -5 -13   2 115437. 848.567   4
  -5 -13   3 1084.10 74.0570   4
  -5 -13   4 76592.1 646.390   3
  -5 -13   5 2132.95 155.126   1
  -5 -13   5 1988.38 131.737   3
  -5 -13   6 52927.7 760.596   3
  -5 -13   6 54123.4 737.575   1
  -5 -13   7 1347.53 125.141   1
  -5 -14  -9 3639.69 343.761   5
  -5  14  -9 3621.42 293.210   6
  -5 -14  -8 5209.26 391.558   5
  -5  14  -8 4421.41 300.523   6
  -5 -14  -7 2573.10 264.656   5
  -5  14  -7 2721.64 281.073   3
  -5  14  -7 3080.67 241.749   6
  -5 -14  -6 11752.8 517.194   5
  -5  14  -6 12089.2 543.945   3
  -5  14  -6 11311.9 418.635   6
  -5  14  -5 1599.07 159.086   6
  -5 -14  -5 1749.83 205.522   5
  -5  14  -5 1878.02 223.289   3
  -5  14  -4 32414.2 764.604   2
  -5 -14  -4 31246.1 768.357   5
  -5  14  -4 32058.9 606.754   6
  -5  14  -4 32532.3 811.373   3
  -5  14  -3 155.764 100.497   3
  -5  14  -3 361.970 99.4204   6
  -5 -14  -3 213.317 99.5043   5
  -5  14  -3 222.415 97.7464   2
  -5  14  -2 74956.6 1055.74   2
  -5 -14  -2 75876.6 1090.10   5
  -5  14  -2 74223.8 805.224   6
  -5  14  -1 146.154 83.2730   2
  -5  14  -1 1323.83 129.223   6
  -5  14   0 66940.9 727.882   6
  -5  14   1 14619.9 346.630   6
  -5 -14   2 3984.28 161.689   4
  -5 -14   3 19474.9 280.927   4
  -5 -14   4 2425.03 113.290   3
  -5 -14   5 3181.01 186.613   1
  -5 -14   5 3033.78 158.163   3
  -5 -14   6 36736.7 626.333   3
  -5 -14   6 38875.6 630.235   1
  -5 -14   7 1873.23 145.202   1
  -5  15  -9 7461.09 419.848   6
  -5  15  -8 1080.52 200.761   3
  -5 -15  -8 601.542 159.400   5
  -5  15  -8 792.590 145.347   6
  -5 -15  -7 12724.1 574.465   5
  -5  15  -7 13111.0 488.659   6
  -5  15  -7 12940.3 595.284   3
  -5 -15  -6 3155.82 280.895   5
  -5  15  -6 3117.27 230.856   6
  -5  15  -6 2971.78 288.869   3
  -5  15  -5 23613.3 574.806   6
  -5 -15  -5 23457.0 707.711   5
  -5  15  -5 24294.7 749.978   3
  -5  15  -4 1521.99 191.968   3
  -5  15  -4 1372.14 137.391   6
  -5  15  -4 1485.23 178.839   2
  -5 -15  -4 1335.90 174.073   5
  -5  15  -3 37988.6 634.629   6
  -5  15  -3 39802.9 820.018   2
  -5  15  -3 39198.5 861.385   3
  -5 -15  -3 37909.9 823.091   5
  -5  15  -2 4765.73 277.796   2
  -5 -15  -2 4135.58 271.573   5
  -5  15  -2 4475.23 209.584   6
  -5  15  -1 27771.9 499.216   6
  -5  15  -1 26902.2 612.999   2
  -5  15   0 1214.80 113.470   6
  -5  15   1 16524.4 394.917   6
  -5 -15   2 9281.95 244.199   4
  -5 -15   3 9339.06 191.321   4
  -5 -15   5 3876.37 179.968   3
  -5 -15   5 3721.01 118.090   2
  -5 -15   5 4188.86 215.350   1
  -5 -15   6 2187.81 160.717   1
  -5 -15   6 1981.96 155.324   3
  -5 -15   6 2077.64 120.013   2
  -5 -15   7 12282.7 354.567   1
  -5 -16  -8 9407.99 527.598   5
  -5  16  -8 9430.58 547.183   3
  -5  16  -8 9652.73 452.793   6
  -5  16  -7 2166.73 264.051   3
  -5 -16  -7 2121.44 246.213   5
  -5  16  -7 1944.39 199.678   6
  -5 -16  -6 16082.2 627.689   5
  -5  16  -6 16513.5 650.750   3
  -5  16  -6 15961.8 512.243   6
  -5  16  -5 44.0639 104.526   3
  -5  16  -5 132.348 81.8427   6
  -5 -16  -5 113.229 92.5966   5
  -5  16  -4 22988.1 708.072   3
  -5  16  -4 22121.8 529.938   6
  -5 -16  -4 22676.5 678.410   5
  -5  16  -4 22585.4 651.293   2
  -5  16  -3 5404.76 337.887   3
  -5  16  -3 5613.06 318.356   2
  -5  16  -3 5561.70 255.369   6
  -5 -16  -3 5314.69 320.712   5
  -5  16  -2 18128.1 534.858   2
  -5 -16  -2 16767.3 541.945   5
  -5  16  -2 17295.9 425.532   6
  -5  16  -1 16324.4 484.802   2
  -5  16  -1 15949.8 396.897   6
  -5  16   0 66735.2 803.944   6
  -5  16   1 9069.31 310.355   6
  -5 -16   2 1241.22 96.2072   4
  -5 -16   3 50159.6 426.647   4
  -5 -16   5 62487.1 821.972   1
  -5 -16   6 27398.4 538.887   1
  -5 -16   7 1088.99 117.723   1
  -5 -17  -8 14025.7 653.080   5
  -5  17  -8 13686.0 542.497   6
  -5 -17  -7 2644.16 289.212   5
  -5  17  -7 3055.19 313.198   3
  -5  17  -7 2526.36 230.247   6
  -5 -17  -6 497.854 141.451   5
  -5  17  -6 648.588 163.150   3
  -5  17  -6 636.895 130.080   6
  -5 -17  -5 5032.32 351.168   5
  -5  17  -5 5709.55 384.857   3
  -5  17  -5 5100.25 287.990   6
  -5  17  -4 192.938 123.087   3
  -5  17  -4 174.712 103.549   6
  -5  17  -4 40.4766 81.9408   2
  -5 -17  -4 228.834 108.707   5
  -5  17  -3 3201.72 245.037   2
  -5  17  -3 3171.67 265.494   3
  -5  17  -3 3553.83 219.127   6
  -5 -17  -3 2870.66 253.792   5
  -5  17  -2 5109.87 250.756   6
  -5  17  -2 4933.65 289.885   2
  -5 -17  -2 4742.41 303.562   5
  -5  17  -1 5161.87 284.082   2
  -5  17  -1 5504.03 250.431   6
  -5  17   0 36353.7 622.655   6
  -5  17   1 4835.15 235.952   6
  -5 -17   2 81441.5 724.182   4
  -5 -17   3 12251.2 203.046   4
  -5 -17   6 21868.7 485.317   1
  -5 -17   7 474.345 87.3952   1
  -5 -18  -8 2764.82 311.109   5
  -5  18  -8 2823.06 318.226   3
  -5 -18  -7 3293.35 322.551   5
  -5  18  -7 3127.37 325.277   3
  -5  18  -7 3074.95 255.733   6
  -5 -18  -6 19.6268 111.186   5
  -5  18  -6 120.984 84.1756   6
  -5  18  -6 41.1523 109.604   3
  -5  18  -5 306.680 123.437   3
  -5 -18  -5 119.239 105.814   5
  -5  18  -5 232.431 93.4629   6
  -5  18  -4 13519.0 442.750   6
  -5  18  -4 12486.2 537.381   3
  -5  18  -4 13066.8 509.299   2
  -5 -18  -4 13193.0 541.414   5
  -5  18  -3 245.222 101.152   2
  -5 -18  -3-23.6198 97.0314   5
  -5  18  -3 375.795 130.670   6
  -5  18  -3 319.029 134.407   3
  -5 -18  -2 25568.8 697.626   5
  -5  18  -2 25165.6 700.376   3
  -5  18  -2 26100.1 653.786   2
  -5  18  -2 25634.5 562.271   6
  -5  18  -1 49576.1 870.296   2
  -5  18  -1 48350.8 750.638   6
  -5  18   0 926.802 122.513   6
  -5  18   0 873.811 136.396   2
  -5  18   1 53869.5 800.271   6
  -5 -18   2 5440.98 190.376   4
  -5 -18   3 21470.5 253.361   4
  -5 -18   6 9581.28 324.828   1
  -5 -18   7 3470.60 196.224   1
  -5  19  -8 7313.32 494.842   3
  -5  19  -7 8989.51 525.340   3
  -5 -19  -7 8836.57 510.998   5
  -5  19  -7 8518.54 423.268   6
  -5 -19  -6 262.197 132.909   5
  -5  19  -6 313.896 106.546   6
  -5  19  -6 96.6366 100.196   3
  -5 -19  -5 15077.8 611.751   5
  -5  19  -5 15372.3 633.265   3
  -5  19  -5 14843.6 499.876   6
  -5  19  -4 5663.96 343.048   2
  -5 -19  -4 5966.09 383.583   5
  -5  19  -4 5846.12 385.996   3
  -5  19  -4 6131.73 318.223   6
  -5  19  -3 53596.3 863.174   6
  -5  19  -3 56460.1 1015.97   2
  -5  19  -3 55306.8 1095.25   3
  -5 -19  -3 54793.7 1074.57   5
  -5  19  -2 4057.30 267.915   2
  -5  19  -2 4032.24 297.183   3
  -5  19  -2 3918.09 243.857   6
  -5 -19  -2 4122.08 296.985   5
  -5  19  -1 25783.0 637.650   2
  -5  19  -1 25932.0 576.713   6
  -5  19   0 9127.03 344.493   6
  -5  19   0 9211.40 381.526   2
  -5  19   1 16308.9 463.987   6
  -5  19   2 20135.5 530.501   6
  -5 -19   6 9132.91 320.565   1
  -5  20  -7-65.5867 117.515   3
  -5 -20  -7-35.3231 120.673   5
  -5 -20  -6 10540.4 547.279   5
  -5  20  -6 10616.6 453.039   6
  -5  20  -6 11681.1 579.553   3
  -5 -20  -5 1559.10 222.582   5
  -5  20  -5 1346.55 174.902   6
  -5  20  -5 1612.31 233.383   3
  -5  20  -4 51488.2 904.931   6
  -5  20  -4 52837.2 1131.60   3
  -5  20  -4 53053.3 1032.40   2
  -5 -20  -4 50524.1 1087.87   5
  -5 -20  -3 1478.42 206.711   5
  -5  20  -3 1676.01 207.838   3
  -5  20  -3 1564.09 164.304   6
  -5  20  -3 1816.42 201.222   2
  -5  20  -2 35162.2 774.706   2
  -5  20  -2 35523.0 706.522   6
  -5 -20  -2 35482.2 862.952   5
  -5  20  -2 36283.0 867.061   3
  -5  20  -1 351.531 89.0431   6
  -5  20  -1 394.836 102.746   2
  -5  20   0 6684.42 333.724   2
  -5  20   0 7429.78 330.195   6
  -5  20   1 415.687 101.998   6
  -5  20   2 595.939 127.943   6
  -5 -20   6 14378.1 401.805   1
  -5  21  -7 9253.41 550.722   3
  -5 -21  -6 4042.37 348.236   5
  -5  21  -6 3805.75 350.779   3
  -5  21  -6 3471.04 274.422   6
  -5  21  -5 16108.6 545.977   6
  -5 -21  -5 17050.1 673.588   5
  -5  21  -5 17280.2 690.086   3
  -5 -21  -4 1907.26 241.220   5
  -5  21  -4 2027.98 247.164   3
  -5  21  -4 2206.51 208.741   6
  -5  21  -4 2215.20 228.635   2
  -5  21  -3 20430.2 693.476   3
  -5 -21  -3 20609.3 692.934   5
  -5  21  -3 21103.8 639.909   2
  -5  21  -3 20750.2 573.629   6
  -5  21  -2 3487.22 253.786   2
  -5  21  -2 3680.59 288.866   3
  -5  21  -2 3584.18 240.575   6
  -5 -21  -2 3293.27 282.598   5
  -5  21  -1 10874.9 398.614   6
  -5  21  -1 11385.8 436.925   2
  -5  21   0 45853.2 815.706   6
  -5  21   0 46733.2 868.349   2
  -5  21   1 12052.1 428.919   6
  -5  21   2 34286.9 737.772   6
  -5  22  -7 3638.48 359.582   3
  -5 -22  -6 559.901 161.265   5
  -5  22  -6 393.698 152.225   3
  -5  22  -5 21.9837 89.2372   6
  -5  22  -5 93.1565 125.682   3
  -5 -22  -5 355.204 143.266   5
  -5  22  -4 3865.58 329.340   3
  -5  22  -4 4330.45 309.297   2
  -5 -22  -4 3522.02 311.147   5
  -5  22  -4 3902.77 277.892   6
  -5  22  -3 74.5709 77.8491   2
  -5 -22  -3-73.4708 101.002   5
  -5  22  -3 202.240 109.150   3
  -5  22  -3 204.513 109.992   6
  -5  22  -2 584.538 144.837   3
  -5  22  -2 612.135 112.149   6
  -5 -22  -2 528.798 134.490   5
  -5  22  -2 647.753 129.236   2
  -5  22  -1 8193.16 364.646   6
  -5  22  -1 8480.40 384.432   2
  -5  22   0 868.159 148.902   2
  -5  22   0 960.236 142.332   6
  -5  22   1 22226.1 599.363   6
  -5  22   2 1684.92 184.985   6
  -5 -23  -6 594.084 170.646   5
  -5  23  -6 673.059 176.018   3
  -5 -23  -5 1403.10 224.224   5
  -5  23  -5 1210.50 208.679   3
  -5  23  -5 1353.39 184.907   6
  -5  23  -4 1326.83 186.240   6
  -5  23  -4 1290.22 179.077   2
  -5 -23  -4 1372.60 229.980   5
  -5  23  -4 1708.81 234.108   3
  -5  23  -3 2791.61 245.811   2
  -5  23  -3 2734.66 268.806   3
  -5 -23  -3 2887.01 279.358   5
  -5  23  -3 2904.68 240.844   6
  -5  23  -2 2431.29 224.930   2
  -5 -23  -2 2463.58 263.667   5
  -5  23  -2 2601.99 221.112   6
  -5  23  -2 2321.75 246.476   3
  -5  23  -1 1269.51 165.840   2
  -5  23  -1 1430.56 170.051   6
  -5  23   0 9338.19 402.944   2
  -5  23   0 9423.06 404.170   6
  -5  23   1 2056.48 196.856   6
  -5  23   2 12675.8 482.229   6
  -5  24  -6 15655.4 703.748   3
  -5  24  -5 776.663 191.547   3
  -5 -24  -5 977.053 199.269   5
  -5 -24  -4 2465.02 281.271   5
  -5  24  -4 2374.98 228.936   6
  -5  24  -4 2632.56 289.914   3
  -5  24  -3 3204.04 267.932   2
  -5  24  -3 3154.81 301.873   3
  -5 -24  -3 3284.98 309.375   5
  -5  24  -3 2974.66 244.652   6
  -5  24  -2 16292.0 560.384   2
  -5  24  -2 15688.1 537.599   6
  -5 -24  -2 15831.6 631.719   5
  -5  24  -2 16610.5 644.514   3
  -5  24  -1 349.237 112.359   6
  -5  24  -1 140.171 91.9889   2
  -5  24   0 14757.9 512.196   6
  -5  24   0 15239.8 518.493   2
  -5  24   1 4503.97 295.738   6
  -5  24   2 1375.82 175.453   6
  -5  25  -6 260.412 156.471   3
  -5  25  -5 14897.8 685.504   3
  -5  25  -4 7418.89 468.771   3
  -5 -25  -4 7210.47 463.699   5
  -5  25  -3 16115.4 574.077   2
  -5  25  -3 16029.4 660.814   3
  -5  25  -3 15876.7 564.749   6
  -5 -25  -3 16788.8 682.866   5
  -5 -25  -2 1057.90 195.935   5
  -5  25  -2 644.354 136.584   2
  -5  25  -2 631.010 148.057   3
  -5  25  -2 646.169 121.938   6
  -5  25  -1 16523.8 553.623   2
  -5  25  -1 15791.1 551.366   6
  -5  25   0-42.3744 89.8719   2
  -5  25   0 416.249 123.870   6
  -5  25   1 14463.5 513.355   2
  -5  25   1 13201.6 510.389   6
  -5  26  -5 2133.18 281.972   3
  -5 -26  -4 12971.3 625.320   5
  -5  26  -3-8.64382 114.348   3
  -5 -26  -3-125.783 129.084   5
  -5 -26  -2 4638.78 370.847   5
  -5  26  -2 4436.73 355.930   3
  -5  26  -2 4379.46 307.811   6
  -5  26  -1 3833.76 292.657   6
  -5  26  -1 3412.64 259.426   2
  -5  26   0 3717.68 284.882   6
  -5  26   0 3737.89 270.375   2
  -5  26   1 5669.89 352.017   6
  -5  26   1 5874.75 336.590   2
  -5  27  -5 315.174 150.616   3
  -5  27  -4 3410.45 340.648   3
  -5 -27  -3 7649.74 484.699   5
  -5  27  -2 3491.08 316.821   3
  -5 -27  -2 3525.31 335.973   5
  -5  27  -2 3487.32 291.388   6
  -5  27  -1 244.938 127.242   3
  -5  27  -1 331.248 127.627   6
  -5  27   0 7319.59 404.967   6
  -5  27   1 22.6102 93.1422   6
  -5  27   1 50.8096 87.4554   2
  -5  28  -4 124.322 144.199   3
  -5  28  -3 216.098 113.671   3
  -5  28  -2 1364.41 219.795   3
  -5 -28  -2 844.913 184.974   5
  -5  28  -1 1245.97 207.812   3
  -5  28  -1 1512.89 206.864   6
  -5  28   0 2275.55 246.055   6
  -5  28   1 5514.16 371.912   6
  -5  29  -4 1428.76 239.420   3
  -5  29  -3 1021.21 214.458   3
  -5  29  -2 648.235 171.195   3
  -5  29  -1 6041.61 427.807   3
  -5  29   1 2255.25 255.834   6
  -5  30  -3 158.394 148.958   3
  -5  30  -2 5326.08 405.280   3
  -5  30  -1 198.948 141.616   3
  -5  31  -1 3436.02 336.780   3
  -5  31   0 2162.41 268.423   3
  -4   0 -11 184.338 151.200   5
  -4   0 -10 30042.2 887.354   5
  -4   0  -9 58.0536 98.9380   5
  -4   0  -8 45247.4 960.908   5
  -4   0  -7-25.0387 76.3454   5
  -4   0  -6 67556.9 1015.04   5
  -4   0  -5-123.185 79.6578   5
  -4   0  -4 6367.78 270.618   5
  -4   0  -4 6397.88 279.559   3
  -4   0  -3 24.6595 45.6420   5
  -4   0  -3 141.743 62.8587   3
  -4   0  -3 72.8334 58.5144   2
  -4   0  -2 2616.78 143.579   5
  -4   0  -2 2645.80 168.045   2
  -4   0  -2 2625.11 154.182   3
  -4   0  -2 2723.95 129.920   6
  -4   0  -1 315.185 60.2069   2
  -4   0  -1 79.8015 44.5239   5
  -4   0  -1 177.959 48.6461   6
  -4   0   0 2867.45 111.218   5
  -4   0   0 2543.50 132.626   4
  -4   0   0 2884.85 142.133   2
  -4   0   0 2741.26 78.8909   6
  -4   0   1 2.77608 32.7044   4
  -4   0   2 9529.22 253.332   1
  -4   0   2 9650.97 236.291   4
  -4   0   3 61.5701 39.8379   4
  -4   0   3 89.5736 56.3867   1
  -4   0   3 98.7819 32.1488   5
  -4   0   4 15291.7 284.575   5
  -4   0   4 15136.5 348.376   1
  -4   0   5 24.3510 33.9961   5
  -4   0   6 99954.2 947.901   5
  -4  -1 -11 27794.3 910.959   5
  -4   1 -11 29570.0 945.382   5
  -4   1 -10 739.832 176.258   5
  -4  -1 -10 933.504 181.897   5
  -4   1  -9 23394.7 738.399   5
  -4  -1  -9 24464.3 761.161   5
  -4   1  -8 350.424 120.734   5
  -4  -1  -8 413.997 118.110   5
  -4   1  -7 1295.50 169.673   5
  -4  -1  -7 1206.99 160.954   5
  -4   1  -6 12025.1 432.279   5
  -4  -1  -6 12106.0 441.625   5
  -4   1  -5 5068.54 264.051   5
  -4  -1  -5 5207.02 269.467   5
  -4   1  -5 5239.40 280.212   3
  -4   1  -4 52594.7 754.148   5
  -4  -1  -4 52144.2 765.282   5
  -4  -1  -4 53253.9 788.224   3
  -4   1  -4 52952.2 805.616   3
  -4   1  -3 52435.4 683.169   5
  -4  -1  -3 54474.0 715.883   5
  -4   1  -3 54034.5 779.285   2
  -4   1  -3 55110.7 763.011   3
  -4  -1  -3 52220.0 711.905   3
  -4  -1  -2 35335.0 438.990   6
  -4   1  -2 36468.9 504.629   5
  -4   1  -2 36354.3 599.357   2
  -4  -1  -2 35471.7 516.529   5
  -4  -1  -2 36271.8 580.800   2
  -4   1  -2 35483.0 559.059   3
  -4  -1  -2 35851.1 533.216   3
  -4   1  -1 69769.6 743.418   2
  -4  -1  -1 68780.1 720.568   2
  -4   1  -1 71150.4 603.752   5
  -4  -1  -1 70433.0 676.150   3
  -4  -1  -1 68617.3 632.976   5
  -4   1  -1 69398.5 731.586   4
  -4  -1  -1 67547.1 510.454   6
  -4   1  -1 67781.6 430.291   6
  -4  -1   0 23073.4 321.757   5
  -4   1   0 23148.5 287.831   5
  -4  -1   0 23422.6 394.495   4
  -4   1   0 23620.9 394.914   4
  -4  -1   0 23419.2 254.937   6
  -4  -1   0 24247.0 393.452   2
  -4  -1   1 21909.4 253.829   6
  -4   1   1 23263.2 373.362   4
  -4   1   1 22179.0 225.730   5
  -4  -1   1 23248.2 366.116   4
  -4   1   1 22506.0 371.569   1
  -4  -1   2 33807.1 471.771   1
  -4  -1   2 32889.5 422.149   4
  -4   1   2 34618.3 476.611   1
  -4   1   2 33269.8 446.435   4
  -4  -1   3 101151. 751.199   4
  -4   1   3 98540.3 783.887   4
  -4  -1   3 98926.8 828.778   1
  -4   1   3 100292. 842.684   1
  -4  -1   3 98917.1 654.935   5
  -4   1   3 98485.9 571.608   5
  -4   1   4 27249.7 366.345   5
  -4   1   4 27236.3 466.530   1
  -4  -1   4 27159.7 454.139   1
  -4  -1   4 27011.6 394.511   5
  -4  -1   5 52484.0 623.629   5
  -4   1   5 51074.1 595.729   5
  -4  -1   6 10228.9 308.470   5
  -4   1   6 9739.56 294.099   5
  -4   2 -11 220.661 129.096   5
  -4  -2 -11-178.567 130.185   5
  -4  -2 -10 3997.53 339.525   5
  -4   2 -10 4051.13 334.275   5
  -4  -2  -9 4764.98 348.393   5
  -4   2  -9 4780.29 339.592   5
  -4   2  -8 1804.57 206.509   5
  -4  -2  -8 2194.45 226.154   5
  -4  -2  -7 3001.26 243.913   5
  -4   2  -7 3118.43 245.083   5
  -4   2  -6 28719.5 662.558   5
  -4  -2  -6 28798.5 673.031   5
  -4  -2  -5 98045.4 1147.38   5
  -4   2  -5 97301.4 1117.08   5
  -4   2  -5 101717. 1219.06   3
  -4   2  -4 5333.04 245.686   5
  -4  -2  -4 4890.92 244.926   5
  -4   2  -4 4965.25 255.745   3
  -4   2  -3 119734. 1026.87   5
  -4  -2  -3 119206. 1059.97   5
  -4   2  -3 121110. 1172.64   2
  -4   2  -3 121077. 1147.96   3
  -4  -2  -3 118952. 1054.41   3
  -4  -2  -3 123788. 1001.74   6
  -4   2  -2 22533.7 392.752   5
  -4   2  -2 23814.3 487.873   2
  -4   2  -2 23231.5 462.892   3
  -4  -2  -2 23082.1 426.916   5
  -4  -2  -2 23291.1 462.302   2
  -4  -2  -2 23088.2 422.968   3
  -4  -2  -2 22641.0 367.202   6
  -4   2  -1 32997.0 503.785   4
  -4   2  -1 32107.0 276.000   6
  -4  -2  -1 33789.8 503.864   2
  -4   2  -1 32082.1 398.237   5
  -4  -2  -1 33250.1 447.999   3
  -4  -2  -1 33733.3 460.461   5
  -4  -2  -1 31727.0 379.205   6
  -4   2  -1 33056.5 520.499   2
  -4  -2   0 7862.22 221.849   2
  -4   2   0 7921.40 160.044   5
  -4  -2   0 7803.62 200.204   5
  -4   2   0 8017.73 235.321   4
  -4  -2   0 7763.02 228.302   4
  -4  -2   0 7696.65 166.225   6
  -4  -2   1 117240. 650.617   6
  -4  -2   1 118438. 821.378   4
  -4   2   1 114580. 440.545   5
  -4   2   1 116835. 836.955   1
  -4   2   1 116114. 851.332   4
  -4   2   2 105101. 830.780   1
  -4  -2   2 101919. 722.262   4
  -4   2   2 104999. 805.731   4
  -4  -2   3 84030.1 657.296   4
  -4   2   3 84576.1 489.384   5
  -4   2   3 84277.4 748.336   4
  -4  -2   3 85932.6 774.246   1
  -4   2   3 86014.6 793.150   1
  -4  -2   3 84195.9 644.711   5
  -4   2   4 181562. 917.383   5
  -4  -2   4 177866. 1049.44   5
  -4  -2   4 177496. 1154.92   1
  -4  -2   5 19445.2 387.571   5
  -4   2   5 18416.2 349.274   5
  -4  -2   6 61106.4 766.588   5
  -4   2   6 60453.1 728.790   5
  -4   2   7 12775.7 376.403   5
  -4  -3 -11 147.471 126.330   5
  -4   3 -11 237.936 142.905   5
  -4   3 -10 155.141 115.208   5
  -4  -3 -10 85.8611 106.069   5
  -4  -3  -9 7645.45 435.818   5
  -4   3  -9 7945.96 441.078   5
  -4   3  -8 16287.1 579.532   5
  -4  -3  -8 16403.2 588.809   5
  -4   3  -7 36434.7 799.766   5
  -4  -3  -7 35401.8 808.296   5
  -4   3  -6 13189.5 451.732   5
  -4  -3  -6 13041.8 459.935   5
  -4   3  -5 6032.88 287.710   5
  -4  -3  -5 5871.90 293.324   5
  -4   3  -5 5867.97 298.586   3
  -4   3  -4 45354.3 698.094   5
  -4  -3  -4 46859.2 746.110   5
  -4   3  -4 46935.5 783.140   3
  -4  -3  -4 48236.4 707.600   6
  -4   3  -3 9050.92 279.375   5
  -4  -3  -3 9359.47 307.118   5
  -4   3  -3 9364.59 333.260   2
  -4   3  -3 9662.79 329.764   3
  -4  -3  -3 9978.52 290.310   6
  -4  -3  -3 9997.63 302.405   3
  -4   3  -2 75724.4 706.673   5
  -4   3  -2 76424.2 873.713   2
  -4   3  -2 76665.8 858.227   3
  -4  -3  -2 75861.5 790.298   5
  -4  -3  -2 75946.9 824.521   2
  -4  -3  -2 77267.4 748.697   3
  -4  -3  -2 74364.3 697.823   6
  -4   3  -2 75373.1 813.976   4
  -4  -3  -1 4098.43 154.746   3
  -4   3  -1 3855.97 137.608   5
  -4  -3  -1 4263.49 181.060   2
  -4   3  -1 4316.14 195.758   2
  -4  -3  -1 4078.01 169.221   5
  -4  -3  -1 4022.54 146.395   6
  -4   3  -1 3885.26 177.027   4
  -4  -3   0 4202.92 139.011   6
  -4   3   0 4152.36 111.065   5
  -4   3   0 3890.50 152.639   1
  -4   3   0 4267.52 173.852   4
  -4  -3   0 4040.96 159.703   2
  -4  -3   1 1599.13 98.8276   4
  -4   3   1 1782.47 113.623   1
  -4  -3   1 1632.38 88.8825   6
  -4   3   1 1584.87 107.734   4
  -4   3   2 187216. 1114.03   1
  -4  -3   2 186221. 958.501   4
  -4  -3   2 189055. 976.738   6
  -4  -3   3 45627.8 471.587   4
  -4  -3   3 45598.1 565.740   1
  -4   3   3 46546.5 343.635   5
  -4   3   3 46735.3 591.454   1
  -4   3   4 139987. 793.058   5
  -4  -3   4 141403. 968.282   5
  -4  -3   5 27554.8 477.913   1
  -4   3   5 28215.9 428.725   5
  -4  -3   5 28185.4 480.570   5
  -4  -3   6 30570.8 553.293   5
  -4   3   6 30701.4 511.222   5
  -4   3   7 24268.7 509.432   5
  -4   4 -11 114.934 118.614   5
  -4  -4 -10 26855.6 853.972   5
  -4   4 -10 25860.6 829.614   5
  -4  -4  -9 4611.75 345.930   5
  -4   4  -9 4581.38 341.363   5
  -4  -4  -8 7210.52 398.106   5
  -4   4  -8 7567.74 398.302   5
  -4  -4  -7 18651.9 592.717   5
  -4   4  -7 18881.7 581.116   5
  -4   4  -6 1384.63 158.431   5
  -4  -4  -6 1646.43 177.546   5
  -4   4  -6 1238.83 158.865   3
  -4   4  -5 75676.6 986.314   5
  -4  -4  -5 77311.6 1043.58   5
  -4   4  -5 76877.2 1085.85   3
  -4   4  -4 6060.33 259.168   5
  -4  -4  -4 6182.89 275.362   5
  -4  -4  -4 6264.17 266.953   6
  -4   4  -4 6398.39 298.337   3
  -4  -4  -3 37278.7 617.678   5
  -4   4  -3 36387.8 655.943   2
  -4   4  -3 36407.7 564.340   5
  -4   4  -3 37292.9 658.927   3
  -4  -4  -3 37414.4 571.053   6
  -4   4  -2 44659.1 546.762   5
  -4  -4  -2 45347.9 577.984   6
  -4   4  -2 45961.3 686.116   2
  -4   4  -2 47273.8 687.498   3
  -4  -4  -2 45792.5 628.300   5
  -4  -4  -2 45797.0 560.820   3
  -4   4  -2 45815.0 630.650   4
  -4   4  -1 1071.67 76.0942   5
  -4   4  -1 886.965 88.5878   4
  -4  -4  -1 1038.76 78.6011   3
  -4  -4  -1 1191.82 100.272   6
  -4  -4  -1 1121.83 98.8738   5
  -4   4  -1 946.057 48.0326   6
  -4  -4  -1 973.335 91.4715   2
  -4   4  -1 939.367 104.292   2
  -4   4   0 1056.44 56.6697   5
  -4  -4   0 743.924 75.4900   2
  -4   4   0 718.560 73.2816   1
  -4  -4   0 726.823 66.9221   6
  -4   4   0 765.175 81.3199   4
  -4  -4   1 99583.7 747.935   4
  -4   4   1 99258.7 779.141   1
  -4  -4   1 100610. 711.522   6
  -4   4   1 100299. 815.888   4
  -4   4   2 74421.2 715.885   4
  -4  -4   2 75101.1 651.139   6
  -4  -4   2 73354.4 592.278   4
  -4   4   2 73999.1 709.404   1
  -4  -4   3 23131.9 324.899   4
  -4   4   3 22059.1 226.160   5
  -4  -4   3 22696.3 400.374   1
  -4  -4   4 31550.8 478.469   5
  -4   4   4 31865.2 368.333   5
  -4  -4   4 31349.9 482.581   1
  -4  -4   5 10022.8 288.381   1
  -4   4   5 10110.1 257.796   5
  -4  -4   5 10118.3 298.055   5
  -4  -4   6 81938.9 917.533   5
  -4   4   6 81726.4 831.511   5
  -4   4   7 6031.40 259.214   5
  -4   5 -11 7545.21 481.646   5
  -4   5 -10 15.5949 115.577   5
  -4  -5 -10 336.549 141.037   5
  -4  -5  -9 43193.3 1020.97   5
  -4   5  -9 43709.9 1015.00   5
  -4  -5  -8 194.670 120.118   5
  -4   5  -8 220.121 107.413   5
  -4  -5  -7 30956.7 763.385   5
  -4   5  -7 30815.6 741.375   5
  -4   5  -6 2900.67 221.776   5
  -4  -5  -6 2646.40 229.641   5
  -4   5  -6 2952.47 242.116   3
  -4   5  -5 314.288 87.0264   5
  -4  -5  -5 185.081 78.5511   5
  -4   5  -5 339.957 90.7202   3
  -4   5  -4 48715.1 722.576   5
  -4  -5  -4 50831.4 795.548   5
  -4   5  -4 50231.6 838.365   3
  -4  -5  -4 50675.3 749.195   6
  -4   5  -3 6466.23 256.125   4
  -4   5  -3 6401.25 240.200   5
  -4   5  -3 6262.07 277.322   2
  -4  -5  -3 6323.17 263.937   5
  -4   5  -3 6454.51 282.163   3
  -4  -5  -3 6657.12 254.377   6
  -4   5  -2 23681.9 397.950   5
  -4   5  -2 24283.5 500.641   2
  -4  -5  -2 24265.2 432.998   6
  -4   5  -2 24330.2 317.386   6
  -4  -5  -2 24193.4 470.010   5
  -4  -5  -2 24756.0 402.852   3
  -4   5  -2 24104.2 506.982   3
  -4   5  -2 24121.1 460.102   4
  -4   5  -1 8989.68 146.553   6
  -4  -5  -1 9264.75 257.288   2
  -4  -5  -1 8903.29 264.373   5
  -4  -5  -1 8995.45 252.702   6
  -4   5  -1 9114.20 285.772   2
  -4   5  -1 9230.52 270.243   4
  -4  -5  -1 9551.76 216.833   3
  -4   5  -1 8999.44 208.491   5
  -4   5  -1 9024.90 220.571   1
  -4  -5   0 4406.23 160.024   2
  -4  -5   0 4176.91 123.410   3
  -4   5   0 4248.85 156.469   1
  -4   5   0 4377.59 111.118   5
  -4  -5   0 4562.69 173.272   6
  -4   5   0 4383.08 182.023   4
  -4  -5   1 28842.5 403.477   4
  -4  -5   1 29293.8 412.370   6
  -4   5   1 29514.4 425.453   1
  -4   5   1 29282.4 454.029   4
  -4   5   2 6990.42 227.419   4
  -4   5   2 7093.46 226.470   1
  -4  -5   2 6796.01 180.527   4
  -4  -5   2 7256.52 219.011   6
  -4  -5   3 113827. 701.392   4
  -4   5   3 111750. 489.707   5
  -4  -5   3 115632. 903.875   1
  -4   5   4 22313.2 308.892   5
  -4  -5   4 21970.1 404.559   1
  -4  -5   4 22432.5 420.354   5
  -4  -5   5 200930. 1362.51   5
  -4   5   5 196192. 1116.10   5
  -4   5   6 23569.6 444.275   5
  -4   5   7 76093.5 896.638   5
  -4  -6 -10 36387.0 999.194   5
  -4   6 -10 36785.0 995.922   5
  -4  -6  -9 1598.63 211.552   5
  -4   6  -9 1842.95 228.431   5
  -4  -6  -8 6760.05 395.727   5
  -4   6  -8 6372.36 367.863   5
  -4  -6  -7 17093.7 574.360   5
  -4   6  -7 16761.8 551.354   5
  -4   6  -6 37303.2 833.641   3
  -4  -6  -6 36875.4 793.501   5
  -4   6  -6 36914.6 757.218   5
  -4  -6  -5 21848.5 566.436   5
  -4   6  -5 21577.7 594.887   3
  -4   6  -5 21158.6 526.921   5
  -4   6  -4 469.133 99.9838   5
  -4  -6  -4 477.419 102.278   5
  -4   6  -4 512.392 109.227   3
  -4   6  -4 299.970 90.9699   2
  -4   6  -3 5586.64 267.645   2
  -4   6  -3 5848.57 272.672   3
  -4  -6  -3 5445.07 239.375   6
  -4  -6  -3 5665.66 254.442   5
  -4   6  -3 5666.74 238.794   4
  -4   6  -3 5281.74 184.051   6
  -4   6  -3 5365.75 221.500   5
  -4   6  -2 14849.7 318.151   5
  -4   6  -2 14704.2 397.642   3
  -4  -6  -2 14828.3 378.095   5
  -4  -6  -2 14561.3 356.090   6
  -4   6  -2 14741.1 358.901   4
  -4   6  -2 14585.9 253.639   6
  -4   6  -2 14420.6 391.496   2
  -4  -6  -1 7750.93 246.952   6
  -4   6  -1 7452.18 262.978   2
  -4   6  -1 7278.41 195.342   1
  -4   6  -1 7937.69 252.218   4
  -4  -6  -1 7615.32 254.620   5
  -4  -6  -1 7259.13 178.799   3
  -4  -6  -1 7466.21 230.896   2
  -4   6  -1 7843.51 151.703   6
  -4   6  -1 7198.18 189.625   5
  -4   6   0 55688.8 638.164   4
  -4  -6   0 55896.6 554.341   2
  -4  -6   0 55192.1 403.888   3
  -4  -6   0 54402.4 599.763   6
  -4   6   0 54821.6 399.208   5
  -4   6   0 51555.9 324.172   6
  -4   6   0 54289.7 550.294   1
  -4  -6   1 29624.4 360.173   2
  -4   6   1 29443.8 430.859   1
  -4  -6   1 28717.9 406.456   4
  -4  -6   1 29360.2 436.286   6
  -4   6   1 28846.4 459.369   4
  -4   6   2 95005.8 845.457   4
  -4  -6   2 90996.1 649.434   4
  -4  -6   2 92196.5 801.502   6
  -4  -6   3 2450.05 142.892   6
  -4  -6   3 2205.45 97.1522   4
  -4  -6   4 60997.9 715.330   5
  -4  -6   4 61536.8 678.348   1
  -4   6   4 62366.5 511.204   5
  -4   6   5 21931.5 373.696   5
  -4  -6   5 22435.1 424.366   1
  -4  -6   5 22621.3 470.652   5
  -4   6   6 72366.8 785.663   5
  -4   6   7 252.574 68.0636   5
  -4   7 -11 1160.12 210.005   6
  -4  -7 -10-116.806 109.924   5
  -4   7 -10 236.772 121.634   6
  -4   7 -10 155.505 121.922   5
  -4  -7  -9 1396.82 207.757   5
  -4   7  -9 1398.38 208.916   5
  -4  -7  -8 34262.4 871.453   5
  -4   7  -8 33785.4 838.592   5
  -4  -7  -7 4207.93 293.458   5
  -4   7  -7 4347.07 294.805   5
  -4  -7  -6 35741.2 791.044   5
  -4   7  -6 36349.3 822.643   3
  -4   7  -6 35890.3 746.054   5
  -4  -7  -5 3214.64 231.152   5
  -4   7  -5 3222.71 241.742   3
  -4   7  -5 3345.20 197.424   6
  -4   7  -5 3136.72 215.677   5
  -4   7  -4 32672.2 597.613   5
  -4  -7  -4 33262.7 666.258   5
  -4   7  -4 33264.1 705.426   3
  -4   7  -4 33555.2 688.409   2
  -4   7  -4 33394.3 531.865   6
  -4   7  -3 9423.36 307.155   4
  -4  -7  -3 9990.21 332.596   6
  -4   7  -3 9842.93 353.384   2
  -4   7  -3 9093.46 347.027   3
  -4  -7  -3 9292.58 328.544   5
  -4   7  -3 9390.27 291.259   5
  -4   7  -3 9184.00 247.714   6
  -4   7  -2 146040. 1239.58   2
  -4   7  -2 143561. 820.834   1
  -4  -7  -2 143950. 1204.34   5
  -4   7  -2 145006. 1272.83   3
  -4   7  -2 145318. 1134.54   4
  -4   7  -2 141982. 824.896   6
  -4   7  -2 142987. 999.306   5
  -4  -7  -2 145335. 1152.38   6
  -4   7  -1 39504.2 450.490   1
  -4   7  -1 41237.0 376.042   6
  -4  -7  -1 40325.7 595.159   5
  -4  -7  -1 41155.4 580.899   6
  -4   7  -1 40135.6 566.734   4
  -4   7  -1 39951.8 611.936   2
  -4   7  -1 39581.1 451.663   5
  -4  -7   0 52646.9 524.768   2
  -4  -7   0 53528.6 628.380   6
  -4   7   0 50717.3 378.302   6
  -4  -7   0 50465.3 343.506   3
  -4   7   0 51821.8 542.560   1
  -4   7   0 53490.9 632.584   4
  -4   7   1 1642.63 118.698   4
  -4  -7   1 1871.19 124.103   6
  -4  -7   1 1605.39 84.5953   2
  -4   7   2 247.378 59.0434   4
  -4  -7   2 325.831 47.5895   4
  -4  -7   2 258.081 69.9799   6
  -4  -7   3 26494.0 478.309   6
  -4  -7   3 25435.8 306.281   4
  -4  -7   4 11347.4 291.570   1
  -4  -7   4 11485.4 323.579   5
  -4  -7   5 13045.0 368.563   5
  -4   7   5 13065.6 288.649   5
  -4  -7   5 12624.8 318.450   1
  -4  -7   6 113.639 54.0173   1
  -4   7   6 65.9730 47.6739   5
  -4   7   7 7490.57 284.832   5
  -4   8 -11 222.971 118.014   6
  -4  -8 -10-19.5752 115.284   5
  -4   8 -10 205.991 129.891   6
  -4   8 -10-58.3309 123.078   5
  -4  -8  -9 3290.80 307.032   5
  -4   8  -9 3234.79 290.669   5
  -4   8  -9 3157.80 261.855   6
  -4  -8  -8 10301.6 485.248   5
  -4   8  -8 9676.32 418.202   6
  -4   8  -8 9625.61 453.068   5
  -4  -8  -7 5405.23 336.774   5
  -4   8  -7 5328.04 320.304   5
  -4   8  -7 5817.74 302.845   6
  -4   8  -6 4657.91 304.610   3
  -4  -8  -6 4668.41 297.015   5
  -4   8  -6 4511.15 243.024   6
  -4   8  -6 4225.84 263.458   5
  -4   8  -5 18227.0 442.450   6
  -4  -8  -5 17928.8 533.781   5
  -4   8  -5 19007.4 573.752   3
  -4   8  -5 18413.0 500.960   5
  -4  -8  -4 8830.98 352.274   5
  -4   8  -4 9570.53 384.657   3
  -4   8  -4 9359.89 367.909   2
  -4   8  -4 9872.14 296.729   6
  -4   8  -4 9306.59 327.402   5
  -4   8  -3 38085.6 608.480   4
  -4   8  -3 37870.3 694.891   2
  -4   8  -3 37987.3 712.262   3
  -4  -8  -3 36807.4 666.249   5
  -4   8  -3 37476.4 397.627   1
  -4  -8  -3 36245.5 647.748   6
  -4   8  -3 36695.4 502.567   6
  -4   8  -3 36682.4 579.089   5
  -4   8  -2 639.557 115.792   3
  -4   8  -2 411.622 76.4867   4
  -4   8  -2 437.690 52.4239   1
  -4  -8  -2 518.093 86.2420   6
  -4  -8  -2 493.709 94.6312   5
  -4   8  -2 754.658 107.520   2
  -4   8  -2 511.371 70.7883   5
  -4   8  -2 501.523 64.5268   6
  -4   8  -1 110555. 671.432   6
  -4   8  -1 112939. 966.547   4
  -4   8  -1 114105. 1046.52   2
  -4  -8  -1 112990. 999.408   6
  -4   8   0 32581.9 433.900   1
  -4  -8   0 32910.2 404.877   2
  -4  -8   0 33010.9 519.823   6
  -4   8   0 32758.8 504.074   4
  -4   8   0 31882.4 341.654   6
  -4  -8   1 33402.8 350.745   2
  -4   8   1 34077.1 374.073   6
  -4  -8   1 33603.0 520.442   6
  -4   8   1 33521.8 517.991   4
  -4  -8   2 17372.5 385.452   6
  -4   8   2 17131.9 380.431   4
  -4  -8   2 16795.6 274.199   4
  -4  -8   3 36459.2 580.732   6
  -4  -8   3 35595.5 349.578   4
  -4  -8   4 8145.24 250.324   1
  -4  -8   5 12913.8 322.468   1
  -4   8   5 12995.0 292.899   5
  -4  -8   6 140.664 52.2662   1
  -4   8   6 66.5747 46.1169   5
  -4  -8   6 74.4664 41.6356   3
  -4   8   7 3873.32 212.250   5
  -4   9 -11 11677.0 566.881   6
  -4  -9 -10 265.682 135.573   5
  -4   9 -10 355.360 129.438   6
  -4   9 -10 217.656 128.230   5
  -4  -9  -9 19264.2 708.504   5
  -4   9  -9 20115.1 647.246   6
  -4   9  -9 19413.2 685.895   5
  -4  -9  -8 3701.45 307.400   5
  -4   9  -8 3699.70 269.450   6
  -4   9  -8 3668.54 287.231   5
  -4  -9  -7 5022.33 329.020   5
  -4   9  -7 4901.95 337.554   3
  -4   9  -7 5637.75 298.542   6
  -4   9  -7 4948.45 307.339   5
  -4  -9  -6 26628.2 698.928   5
  -4   9  -6 28329.5 747.773   3
  -4   9  -6 28157.1 609.652   6
  -4   9  -6 26655.1 653.607   5
  -4   9  -5 125.564 34.1630   1
  -4  -9  -5 35.6985 79.9099   5
  -4   9  -5 82.5288 69.9495   5
  -4   9  -5 152.641 89.7063   3
  -4   9  -5 118.912 67.2482   6
  -4   9  -4 14346.3 365.570   6
  -4   9  -4 14342.8 228.321   1
  -4  -9  -4 14378.9 455.000   5
  -4   9  -4 14831.9 482.827   3
  -4   9  -4 14390.6 461.007   2
  -4   9  -4 14266.5 407.214   5
  -4   9  -3 1240.11 118.982   4
  -4   9  -3 1072.09 136.726   3
  -4  -9  -3 1017.70 127.719   5
  -4   9  -3 1146.00 97.0949   6
  -4   9  -3 1236.53 140.886   2
  -4   9  -3 1169.20 70.9051   1
  -4   9  -3 1108.19 109.562   5
  -4   9  -2 21417.7 401.526   5
  -4  -9  -2 21499.8 481.315   6
  -4  -9  -2 21958.5 497.005   5
  -4   9  -2 21442.3 354.379   6
  -4   9  -2 22103.0 442.727   4
  -4   9  -2 21497.6 493.565   2
  -4   9  -2 21288.2 304.778   1
  -4  -9  -1 22818.0 470.683   6
  -4   9  -1 22448.6 328.567   6
  -4   9  -1 23586.0 485.881   2
  -4   9  -1 23156.6 438.227   4
  -4   9   0 105831. 686.375   6
  -4  -9   0 107962. 988.021   6
  -4   9   0 109606. 947.296   4
  -4   9   1 51965.9 506.107   6
  -4   9   1 52093.0 656.475   4
  -4  -9   1 52186.5 422.078   2
  -4  -9   1 51844.6 675.543   6
  -4  -9   2 17513.3 193.022   3
  -4  -9   2 19352.8 420.801   6
  -4  -9   2 18575.8 285.895   4
  -4  -9   3 333.798 38.1179   4
  -4  -9   3 453.932 50.4228   3
  -4  -9   3 208.351 64.9393   6
  -4  -9   4 4912.42 182.620   3
  -4  -9   4 4776.63 194.882   1
  -4  -9   5 119390. 964.930   1
  -4  -9   5 118072. 1025.49   3
  -4  -9   6 5904.39 259.760   3
  -4   9   6 5754.69 226.495   5
  -4  -9   6 5623.37 219.881   1
  -4   9   7 79540.5 926.301   5
  -4  10 -11 7.24484 104.784   6
  -4 -10 -10 9129.25 519.181   5
  -4  10 -10 8709.08 467.054   6
  -4  10 -10 8270.19 489.674   5
  -4 -10  -9 758.871 174.635   5
  -4  10  -9 488.608 130.384   6
  -4  10  -9 436.821 126.680   5
  -4 -10  -8 32248.3 874.550   5
  -4  10  -8 32637.8 767.503   6
  -4  10  -8 33153.7 846.029   5
  -4  10  -7 580.539 141.199   3
  -4  10  -7 589.842 119.305   6
  -4 -10  -7 513.552 128.681   5
  -4  10  -7 485.174 128.988   5
  -4  10  -6 12727.5 414.004   6
  -4  10  -6 11884.0 444.146   5
  -4  10  -6 12213.6 503.279   3
  -4 -10  -6 12059.3 479.718   5
  -4 -10  -5 17039.5 534.099   5
  -4  10  -5 16963.1 561.696   3
  -4  10  -5 16580.6 437.163   6
  -4  10  -5 16030.6 477.617   5
  -4  10  -4 977.725 124.316   2
  -4 -10  -4 1344.96 156.145   5
  -4  10  -4 1302.25 158.571   3
  -4  10  -4 1255.69 121.295   6
  -4  10  -4 1146.66 124.758   5
  -4  10  -4 1183.59 60.7019   1
  -4  10  -3 4165.88 205.561   5
  -4  10  -3 4385.21 125.206   1
  -4  10  -3 4347.66 242.792   2
  -4  10  -3 4402.20 209.225   4
  -4 -10  -3 4206.95 239.812   5
  -4  10  -3 4365.66 258.664   3
  -4  10  -3 4327.14 187.629   6
  -4  10  -2 365.885 88.8155   2
  -4 -10  -2 493.637 103.548   6
  -4  10  -2 319.321 66.0973   6
  -4 -10  -2 109.169 63.1151   5
  -4  10  -2 241.828 60.3891   4
  -4  10  -1 15979.9 405.834   2
  -4  10  -1 15532.3 364.284   4
  -4 -10  -1 15600.0 408.547   6
  -4  10  -1 15643.1 296.649   6
  -4  10   0 35666.3 437.869   6
  -4 -10   0 35126.4 586.711   6
  -4  10   0 35172.7 545.834   4
  -4 -10   1 387.301 75.8792   6
  -4  10   1 254.414 52.9452   4
  -4  10   1 365.273 59.6191   6
  -4 -10   2 32940.1 571.558   6
  -4 -10   2 31229.5 372.068   4
  -4 -10   2 30750.9 265.056   2
  -4 -10   3 1333.94 77.3745   3
  -4 -10   3 1316.20 63.7645   4
  -4 -10   3 1172.34 120.817   6
  -4 -10   4 52538.8 590.851   3
  -4 -10   5 1544.02 120.183   1
  -4 -10   5 1512.82 122.376   3
  -4 -10   6 63310.7 722.263   1
  -4 -10   6 62400.1 839.956   3
  -4  11 -11 4379.37 362.283   6
  -4 -11 -10 51.6320 115.184   5
  -4  11 -10 101.154 106.186   6
  -4  11 -10 172.700 111.657   5
  -4 -11  -9 20007.1 730.365   5
  -4  11  -9 18555.6 633.695   6
  -4  11  -9 19142.9 695.225   5
  -4 -11  -8 1688.63 221.414   5
  -4  11  -8 1390.86 177.099   6
  -4  11  -8 1301.01 190.899   5
  -4 -11  -7 31738.6 827.866   5
  -4  11  -7 32478.7 868.587   3
  -4  11  -7 32106.0 721.360   6
  -4  11  -7 31951.2 785.689   5
  -4  11  -6 4409.38 252.633   6
  -4 -11  -6 4425.91 301.192   5
  -4  11  -6 4337.13 306.802   3
  -4  11  -6 4260.23 273.451   5
  -4  11  -5 25467.1 692.859   3
  -4 -11  -5 25132.0 658.273   5
  -4  11  -5 25469.2 549.448   6
  -4  11  -5 25409.8 605.038   5
  -4 -11  -4 7530.93 347.096   5
  -4  11  -4 7934.72 369.545   3
  -4  11  -4 7430.10 336.078   2
  -4  11  -4 7576.51 307.999   5
  -4  11  -4 7585.89 278.845   6
  -4  11  -3 869.854 122.307   2
  -4  11  -3 814.250 123.744   3
  -4 -11  -3 890.593 123.200   5
  -4  11  -3 792.601 98.1959   4
  -4  11  -3 1010.58 105.981   6
  -4  11  -2 18471.0 470.966   2
  -4 -11  -2 18357.9 481.164   5
  -4  11  -2 18878.6 367.261   6
  -4  11  -2 18662.7 411.908   4
  -4  11  -1 9041.43 244.888   6
  -4 -11  -1 9298.94 330.876   6
  -4  11  -1 9006.34 313.980   2
  -4  11  -1 9325.88 288.576   4
  -4  11   0 44447.3 629.603   4
  -4  11   0 45263.0 524.593   6
  -4 -11   0 46349.9 700.551   6
  -4  11   1 2556.00 156.818   4
  -4 -11   1 2572.86 169.885   6
  -4  11   1 2409.37 131.258   6
  -4 -11   2 9540.78 324.451   6
  -4 -11   2 8836.91 198.975   4
  -4 -11   3 36332.9 314.024   4
  -4 -11   3 38360.0 394.970   3
  -4 -11   4 24162.3 399.666   3
  -4 -11   5 49171.3 662.293   3
  -4 -11   5 49325.9 634.126   1
  -4 -11   6 1265.97 126.454   3
  -4 -11   6 1223.43 110.439   1
  -4  12 -11 2549.56 283.173   6
  -4 -12 -10 862.777 197.827   5
  -4  12 -10 539.570 159.978   5
  -4  12 -10 509.907 143.560   6
  -4 -12  -9 1852.65 249.399   5
  -4  12  -9 1974.56 223.561   6
  -4  12  -9 1545.76 210.916   5
  -4  12  -8 7501.92 387.960   6
  -4 -12  -8 7858.00 446.437   5
  -4  12  -8 7234.73 410.719   5
  -4  12  -7 14898.4 596.850   3
  -4 -12  -7 13718.1 554.134   5
  -4  12  -7 13947.5 530.392   5
  -4  12  -7 13949.9 483.236   6
  -4  12  -6 118.266 96.1268   3
  -4 -12  -6 47.5610 86.0675   5
  -4  12  -6 200.387 109.217   6
  -4  12  -6 156.364 100.829   5
  -4 -12  -5 21482.3 620.020   5
  -4  12  -5 22576.0 664.773   3
  -4  12  -5 21754.5 518.052   6
  -4  12  -5 21696.7 565.135   5
  -4  12  -4 168.236 84.2887   6
  -4 -12  -4 187.679 87.5229   5
  -4  12  -4 31.5792 73.8483   3
  -4  12  -4 22.8164 72.2302   2
  -4  12  -3 6961.78 313.191   2
  -4  12  -3 6952.48 333.495   3
  -4  12  -3 7147.27 260.120   6
  -4  12  -3 6526.84 255.839   4
  -4 -12  -3 6599.34 313.854   5
  -4  12  -2 601.702 105.040   2
  -4  12  -2 660.503 83.4773   4
  -4  12  -2 977.103 105.455   6
  -4 -12  -2 791.957 119.767   5
  -4  12  -1 43950.1 560.965   6
  -4  12  -1 44572.7 636.795   4
  -4  12  -1 44454.3 697.256   2
  -4  12   0 3473.75 180.922   4
  -4  12   0 4438.55 186.721   6
  -4  12   1 8971.90 257.169   6
  -4 -12   2 10774.3 221.080   4
  -4 -12   3 1224.76 70.6916   3
  -4 -12   3 1065.60 53.9275   4
  -4 -12   4 2359.24 126.473   3
  -4 -12   5 3487.88 173.347   1
  -4 -12   5 3541.67 182.861   3
  -4 -12   6 236.688 65.6286   3
  -4 -12   6 372.158 67.7682   1
  -4  13 -11 1024.65 190.843   6
  -4  13 -10-43.9426 111.680   5
  -4  13 -10 72.6003 102.309   6
  -4 -13  -9 19.4663 112.524   5
  -4  13  -9 98.2211 115.378   6
  -4  13  -9-49.0709 114.930   5
  -4 -13  -8 9253.12 489.072   5
  -4  13  -8 9057.70 426.314   6
  -4  13  -8 9042.01 459.303   5
  -4 -13  -7 236.897 109.795   5
  -4  13  -7 305.041 109.414   5
  -4  13  -7 458.882 133.490   3
  -4  13  -7 290.834 104.749   6
  -4  13  -6 21550.4 689.081   3
  -4 -13  -6 21001.4 659.355   5
  -4  13  -6 21093.6 561.969   6
  -4 -13  -5 6184.61 346.216   5
  -4  13  -5 5992.68 352.138   3
  -4  13  -5 5998.53 280.928   6
  -4  13  -4 14418.1 510.391   3
  -4  13  -4 14113.2 471.974   2
  -4 -13  -4 14145.4 489.777   5
  -4  13  -4 14141.3 397.661   6
  -4 -13  -3 11435.0 416.812   5
  -4  13  -3 11170.3 397.546   2
  -4  13  -3 11431.8 432.263   3
  -4  13  -3 11847.7 344.449   6
  -4  13  -3 11443.3 338.580   4
  -4  13  -2 44029.2 613.303   6
  -4  13  -2 44866.1 746.651   2
  -4 -13  -2 44575.5 780.548   5
  -4  13  -2 44057.2 646.229   4
  -4  13  -1 5098.15 206.739   6
  -4  13  -1 4970.22 244.386   2
  -4  13  -1 4927.62 219.649   4
  -4  13   0 83063.3 883.613   4
  -4  13   0 80492.7 791.953   6
  -4  13   1 17168.3 374.621   6
  -4 -13   2 1620.74 87.3494   4
  -4 -13   3 39.7415 17.8203   4
  -4 -13   4 37446.8 489.110   3
  -4 -13   4 36066.1 339.401   2
  -4 -13   5 8012.56 261.093   1
  -4 -13   5 7928.37 268.783   3
  -4 -13   6 10062.4 341.068   3
  -4 -13   6 10181.0 292.704   1
  -4  14 -10 8445.41 470.292   6
  -4  14  -9 298.483 142.429   6
  -4 -14  -9 338.237 158.401   5
  -4 -14  -8 16223.6 655.190   5
  -4  14  -8 16259.9 569.312   6
  -4 -14  -7 12884.4 553.556   5
  -4  14  -7 12733.1 477.192   6
  -4  14  -7 12888.4 569.463   3
  -4  14  -6 21246.0 693.923   3
  -4 -14  -6 21032.0 667.712   5
  -4  14  -6 21330.1 572.499   6
  -4 -14  -5 16593.5 565.407   5
  -4  14  -5 16642.5 589.888   3
  -4  14  -5 16698.1 475.443   6
  -4  14  -4 33995.4 793.788   3
  -4  14  -4 33055.6 724.139   2
  -4 -14  -4 33357.9 760.674   5
  -4  14  -4 33240.2 627.376   6
  -4  14  -3 1690.71 177.032   3
  -4  14  -3 1717.28 146.952   6
  -4  14  -3 1499.53 162.121   2
  -4 -14  -3 1626.91 172.757   5
  -4  14  -3 1603.19 134.762   4
  -4  14  -2 3828.78 228.614   2
  -4  14  -2 3626.51 192.014   6
  -4  14  -2 3722.54 194.019   4
  -4 -14  -2 3588.59 235.745   5
  -4  14  -1 63980.3 779.901   4
  -4  14  -1 62636.5 743.122   6
  -4  14  -1 63100.7 855.373   2
  -4  14   0 256.441 69.9192   4
  -4  14   0 307.689 75.3036   6
  -4  14   1 48278.8 654.155   6
  -4 -14   2 5680.57 163.052   4
  -4  14   2 5879.60 252.939   6
  -4 -14   3 865.744 43.4664   4
  -4 -14   4 17937.2 184.973   2
  -4 -14   5 2974.51 164.901   1
  -4 -14   5 2840.01 161.794   3
  -4 -14   5 3050.77 125.639   2
  -4 -14   6 41528.4 564.537   2
  -4 -14   6 41983.9 587.691   1
  -4 -14   6 40731.9 683.340   3
  -4 -14   7 1090.23 108.832   2
  -4  15 -10 2887.18 284.566   6
  -4 -15  -9 13680.0 640.175   5
  -4  15  -9 13361.5 561.702   6
  -4 -15  -8 622.204 172.947   5
  -4  15  -8 656.358 145.618   6
  -4 -15  -7 6915.59 414.447   5
  -4  15  -7 6604.45 411.925   3
  -4  15  -7 6222.60 341.732   6
  -4 -15  -6 2351.44 242.093   5
  -4  15  -6 2564.51 207.385   6
  -4  15  -6 2370.27 247.180   3
  -4  15  -5 390.970 100.639   6
  -4 -15  -5 359.636 109.500   5
  -4  15  -5 252.508 105.887   3
  -4 -15  -4 882.106 150.919   5
  -4  15  -4 994.193 127.641   6
  -4  15  -4 963.936 140.319   2
  -4  15  -4 1033.89 163.107   3
  -4  15  -3 329.912 102.455   3
  -4  15  -3 305.527 86.2638   2
  -4 -15  -3 397.349 104.433   5
  -4  15  -3 297.648 78.5904   6
  -4  15  -2 1090.43 111.793   4
  -4  15  -2 1181.98 126.089   6
  -4  15  -2 1165.44 134.532   2
  -4  15  -1 1045.31 112.766   4
  -4  15  -1 1801.40 152.532   6
  -4  15  -1 1090.30 134.489   2
  -4  15   0 1880.03 143.934   6
  -4  15   1 8238.11 295.608   6
  -4  15   2-23.6529 54.8675   6
  -4 -15   5 49999.8 656.963   1
  -4 -15   5 47650.1 444.895   2
  -4 -15   5 47725.3 645.029   3
  -4 -15   6 6267.07 214.298   2
  -4 -15   6 6095.56 266.690   3
  -4 -15   6 6321.38 232.900   1
  -4 -15   7 9106.28 275.244   1
  -4  16 -10 2003.28 240.137   6
  -4 -16  -9-7.27340 118.695   5
  -4  16  -9 115.835 119.723   6
  -4 -16  -8 15576.6 654.738   5
  -4  16  -8 15717.8 580.536   6
  -4 -16  -7 174.969 124.376   5
  -4  16  -7 207.065 124.526   3
  -4  16  -7 58.7354 83.7940   6
  -4  16  -6 6662.59 406.705   3
  -4 -16  -6 6405.23 386.504   5
  -4  16  -6 6212.01 325.682   6
  -4 -16  -5 7992.24 412.232   5
  -4  16  -5 8567.25 436.402   3
  -4  16  -5 8313.20 357.178   6
  -4  16  -4 426.900 120.819   3
  -4  16  -4 452.614 106.522   6
  -4  16  -4 485.734 107.773   2
  -4 -16  -4 467.015 117.169   5
  -4  16  -3 3469.50 238.564   2
  -4  16  -3 3218.45 250.766   3
  -4 -16  -3 3353.78 246.957   5
  -4  16  -3 3325.11 212.167   6
  -4  16  -2 9709.46 366.015   2
  -4  16  -2 9647.00 326.943   6
  -4  16  -1 2240.37 162.528   6
  -4  16  -1 1941.04 162.290   2
  -4  16   0 618.358 115.603   6
  -4  16   1 84652.7 947.652   6
  -4  16   2 5172.82 255.876   6
  -4 -16   5 71.5224 45.0627   1
  -4 -16   5 30.4833 19.8847   2
  -4 -16   6 28840.8 571.692   3
  -4 -16   6 30297.6 505.217   1
  -4 -16   7 178.572 58.9326   1
  -4  17 -10 152.280 137.811   6
  -4 -17  -9 360.479 141.852   5
  -4  17  -9 116.652 106.931   6
  -4 -17  -8 4208.87 355.732   5
  -4  17  -8 4640.53 326.738   6
  -4 -17  -7 1868.00 239.813   5
  -4  17  -7 1666.19 194.914   6
  -4  17  -7 2028.95 251.475   3
  -4 -17  -6 5227.85 356.345   5
  -4  17  -6 5524.75 376.968   3
  -4  17  -6 5168.98 305.223   6
  -4  17  -5 175.062 105.906   6
  -4  17  -5 38.7818 90.8946   3
  -4 -17  -5 29.1017 93.4352   5
  -4  17  -4 9733.78 448.885   3
  -4  17  -4 10127.3 413.228   2
  -4 -17  -4 9637.63 439.602   5
  -4  17  -4 9830.82 374.049   6
  -4  17  -3 4563.15 276.205   2
  -4  17  -3 4454.49 297.898   3
  -4 -17  -3 4155.49 286.993   5
  -4  17  -3 4426.05 247.687   6
  -4  17  -2 8815.55 329.746   6
  -4  17  -2 8904.96 353.970   2
  -4  17  -1 165.927 72.9549   2
  -4  17  -1 469.838 97.8983   6
  -4  17   0 32532.4 608.427   6
  -4  17   1 17045.6 446.414   6
  -4  17   2 29850.8 623.615   6
  -4 -17   5 69.6565 48.7614   1
  -4 -17   6 2848.76 160.905   1
  -4 -17   7 987.236 99.0280   1
  -4  18  -9 2562.98 273.518   6
  -4 -18  -8 660.641 175.715   5
  -4  18  -8 431.965 130.643   6
  -4 -18  -7 8580.15 481.158   5
  -4  18  -7 8113.65 411.153   6
  -4  18  -7 8317.13 485.691   3
  -4 -18  -6 3496.75 304.873   5
  -4  18  -6 3665.62 314.804   3
  -4  18  -6 3525.15 266.624   6
  -4 -18  -5 31119.5 832.531   5
  -4  18  -5 32246.0 863.377   3
  -4  18  -5 31367.2 717.515   6
  -4 -18  -4 58.6331 106.161   5
  -4  18  -4 113.618 87.9039   6
  -4  18  -4 151.938 78.0728   2
  -4  18  -4 181.056 111.932   3
  -4  18  -3 62912.9 998.927   2
  -4  18  -3 61462.1 1085.31   3
  -4 -18  -3 61042.2 1071.67   5
  -4  18  -3 60193.9 904.909   6
  -4  18  -2 9045.88 361.833   2
  -4  18  -2 9049.92 402.740   3
  -4  18  -2 9052.85 344.017   6
  -4  18  -1 9999.55 354.604   6
  -4  18  -1 10408.4 372.378   2
  -4  18   0 8423.02 324.569   6
  -4  18   1 3000.06 201.457   6
  -4  18   2 798.965 134.497   6
  -4 -18   5 149.419 66.4463   1
  -4 -18   6 365.335 69.7613   1
  -4  19  -9 4318.06 352.677   6
  -4 -19  -8 269.720 154.402   5
  -4  19  -8 68.3422 107.168   6
  -4 -19  -7 14441.7 629.096   5
  -4  19  -7 13699.0 623.872   3
  -4  19  -7 13848.6 544.241   6
  -4  19  -6 11003.9 464.142   6
  -4 -19  -6 12130.9 551.706   5
  -4  19  -6 11910.0 555.126   3
  -4  19  -5 9179.94 471.820   3
  -4 -19  -5 8962.09 465.331   5
  -4  19  -5 9339.21 401.600   6
  -4  19  -4 29045.2 790.329   3
  -4  19  -4 29763.6 722.028   2
  -4 -19  -4 28396.7 775.308   5
  -4  19  -4 28149.6 662.480   6
  -4 -19  -3 1035.06 171.889   5
  -4  19  -3 1065.60 171.162   3
  -4  19  -3 913.656 138.567   6
  -4  19  -3 1051.62 143.727   2
  -4  19  -2 2911.67 211.303   2
  -4  19  -2 3196.14 246.925   3
  -4  19  -2 3417.53 224.627   6
  -4  19  -1 20538.6 525.384   6
  -4  19  -1 20575.8 530.071   2
  -4  19   0 8631.15 342.582   6
  -4  19   1 14901.6 451.504   6
  -4  19   2 6374.01 314.610   6
  -4 -19   6 186.078 63.3033   1
  -4 -20  -8 7137.43 473.135   5
  -4  20  -8 6720.74 415.077   6
  -4  20  -7 100.611 96.5562   6
  -4  20  -7-44.3345 108.560   3
  -4 -20  -7-64.6538 110.390   5
  -4 -20  -6 8874.89 484.688   5
  -4  20  -6 8605.37 418.612   6
  -4  20  -6 8621.02 480.326   3
  -4  20  -5 203.633 116.374   3
  -4 -20  -5 33.9773 108.920   5
  -4  20  -5 307.386 117.005   6
  -4 -20  -4 1899.93 231.294   5
  -4  20  -4 2148.73 204.143   6
  -4  20  -4 1931.49 227.744   3
  -4  20  -4 1582.16 182.298   2
  -4  20  -3 1377.41 183.994   3
  -4  20  -3 1698.89 179.242   6
  -4  20  -3 1560.98 175.259   2
  -4 -20  -3 1101.39 163.756   5
  -4  20  -2 154.798 75.7507   2
  -4  20  -2 112.216 83.1638   3
  -4  20  -2 252.943 94.6327   6
  -4  20  -1 27.7936 60.7116   2
  -4  20  -1 117.249 84.8176   6
  -4  20   0 4416.24 254.204   2
  -4  20   0 4707.52 272.058   6
  -4  20   1 7777.20 341.293   6
  -4  20   2 23569.0 609.172   6
  -4 -20   6 10778.1 307.008   1
  -4  21  -8 48.6945 110.888   6
  -4  21  -7 3278.88 319.594   3
  -4 -21  -7 3573.89 335.905   5
  -4  21  -7 3201.50 280.604   6
  -4  21  -6 2120.11 226.767   6
  -4  21  -6 2364.93 269.623   3
  -4 -21  -6 2093.88 243.124   5
  -4  21  -5 2232.12 215.734   6
  -4 -21  -5 2159.62 248.637   5
  -4  21  -5 2481.06 263.712   3
  -4  21  -4 9706.77 477.221   3
  -4  21  -4 9469.27 416.550   2
  -4 -21  -4 9727.53 478.103   5
  -4  21  -4 9006.63 403.828   6
  -4  21  -3 139.030 80.8349   2
  -4  21  -3 71.6008 83.7187   3
  -4  21  -3 18.6069 86.2806   6
  -4 -21  -3 20.9329 103.176   5
  -4  21  -2 6019.33 309.045   2
  -4  21  -2 5626.18 337.939   3
  -4  21  -2 6023.41 315.065   6
  -4  21  -1 366.096 117.582   6
  -4  21  -1 58.0722 81.1467   2
  -4  21   0 2049.01 190.030   6
  -4  21   0 2028.15 181.439   2
  -4  21   1 2287.03 209.921   6
  -4  21   2 5060.13 299.370   6
  -4 -22  -7 3848.49 349.745   5
  -4  22  -7 3753.18 310.571   6
  -4  22  -7 3768.92 347.420   3
  -4 -22  -6 2825.63 292.120   5
  -4  22  -6 2393.32 239.092   6
  -4  22  -6 2789.21 292.765   3
  -4 -22  -5 11578.3 553.269   5
  -4  22  -5 12035.3 571.534   3
  -4  22  -5 11685.5 484.854   6
  -4  22  -4 8378.40 455.945   3
  -4 -22  -4 8722.19 464.615   5
  -4  22  -4 8663.34 402.268   2
  -4  22  -4 7922.90 390.710   6
  -4 -22  -3 20384.9 681.876   5
  -4  22  -3 19199.4 584.865   6
  -4  22  -3 20723.1 598.269   2
  -4  22  -2 651.144 131.101   3
  -4  22  -2 772.904 140.253   6
  -4  22  -2 578.148 114.696   2
  -4  22  -1 10931.2 427.525   6
  -4  22  -1 11116.4 409.100   2
  -4  22   0 140.253 85.5020   2
  -4  22   0 97.2518 79.2463   6
  -4  22   1 24964.8 646.547   6
  -4  22   2 277.834 103.137   6
  -4  23  -7 2439.81 252.374   6
  -4  23  -7 2543.90 292.441   3
  -4 -23  -6 2746.72 294.942   5
  -4  23  -6 2038.47 234.624   6
  -4  23  -6 2314.68 264.002   3
  -4 -23  -5 362.047 147.409   5
  -4  23  -5 263.589 106.658   6
  -4  23  -5 244.368 120.251   3
  -4  23  -4 23025.8 753.689   3
  -4 -23  -4 23218.8 762.696   5
  -4  23  -4 22864.0 670.785   6
  -4  23  -3 3866.14 264.317   2
  -4  23  -3 4231.95 322.504   3
  -4 -23  -3 4042.99 326.755   5
  -4  23  -3 4188.81 291.707   6
  -4  23  -2 10792.7 423.271   2
  -4  23  -2 10993.7 492.307   3
  -4  23  -2 11484.8 458.547   6
  -4  23  -1 245.848 79.8062   2
  -4  23  -1 150.799 87.4072   6
  -4  23   0 8914.54 399.897   6
  -4  23   0 9523.18 382.765   2
  -4  23   1 4671.01 297.433   6
  -4  23   2 13053.6 505.523   6
  -4  24  -7 1389.76 223.907   3
  -4  24  -6 6863.07 457.997   3
  -4 -24  -6 6951.70 468.338   5
  -4  24  -6 6412.43 388.231   6
  -4 -24  -5 5315.44 392.044   5
  -4  24  -5 5173.44 384.909   3
  -4  24  -5 5118.33 341.468   6
  -4 -24  -4 1308.36 216.985   5
  -4  24  -4 1254.60 182.293   6
  -4  24  -4 1310.84 198.546   3
  -4  24  -3 11522.8 452.516   2
  -4  24  -3 11063.7 517.242   3
  -4 -24  -3 10941.4 523.752   5
  -4  24  -3 10482.1 460.277   6
  -4  24  -2 7440.44 357.615   2
  -4  24  -2 7696.87 422.675   3
  -4  24  -2 7124.26 374.351   6
  -4  24  -1 4902.99 282.434   2
  -4  24  -1 5220.50 314.552   6
  -4  24   0 507.371 139.483   6
  -4  24   0 13.8958 72.9339   2
  -4  24   1 2828.97 241.765   6
  -4  24   2 5618.02 348.551   6
  -4  25  -6-40.2269 122.250   3
  -4  25  -6 28.8924 102.682   6
  -4  25  -5 1060.79 200.486   3
  -4 -25  -5 1346.68 226.237   5
  -4  25  -5 958.789 163.314   6
  -4 -25  -4 1178.97 202.326   5
  -4  25  -4 1020.93 179.830   6
  -4  25  -4 860.628 174.071   3
  -4  25  -3 1658.49 201.322   6
  -4  25  -3 2054.78 246.698   3
  -4 -25  -3 1768.43 231.266   5
  -4  25  -2 3698.28 259.163   2
  -4  25  -2 2998.23 270.636   3
  -4  25  -2 3215.38 266.335   6
  -4  25  -1 2105.39 192.956   2
  -4  25  -1 2047.23 213.676   6
  -4  25   0 3304.98 237.017   2
  -4  25   0 3651.62 280.535   6
  -4  25   1 4165.04 303.261   6
  -4  25   2 978.367 175.277   6
  -4  26  -6 700.669 183.446   3
  -4 -26  -5 4157.03 369.458   5
  -4  26  -5 3977.97 349.496   3
  -4  26  -5 4152.22 327.432   6
  -4  26  -4 2196.79 262.484   3
  -4 -26  -4 2112.99 271.067   5
  -4  26  -4 1837.50 223.050   6
  -4 -26  -3 1332.17 207.089   5
  -4  26  -3 1064.14 167.138   6
  -4  26  -3 1080.49 182.191   3
  -4  26  -2 245.146 121.600   6
  -4  26  -2 224.784 130.491   3
  -4  26  -1 10265.7 488.346   3
  -4  26  -1 9972.77 465.305   6
  -4  26   0 2659.07 253.644   6
  -4  26   1 16943.3 525.089   2
  -4  26   1 15811.7 582.804   6
  -4  26   2 860.789 169.358   6
  -4  27  -5 2623.59 273.840   6
  -4  27  -5 2938.20 320.593   3
  -4  27  -4 8754.78 507.891   3
  -4 -27  -4 8444.68 505.076   5
  -4  27  -4 8065.85 445.012   6
  -4  27  -3 120.744 97.5141   3
  -4  27  -3 320.519 145.100   6
  -4 -27  -3 45.9221 108.325   5
  -4  27  -2 28883.6 844.050   3
  -4  27  -2 27525.5 787.279   6
  -4 -27  -2 29098.4 886.924   5
  -4  27  -1 2479.06 259.765   3
  -4  27  -1 2569.07 255.996   6
  -4  27   0 15102.1 580.546   6
  -4  27   1 423.189 140.502   6
  -4  27   2 8538.89 456.976   6
  -4  28  -5 4954.23 399.461   3
  -4  28  -4 769.046 191.979   3
  -4  28  -4 624.658 161.425   6
  -4  28  -3 16157.4 666.847   3
  -4 -28  -3 16071.2 689.063   5
  -4  28  -3 15533.8 621.504   6
  -4  28  -2 112.343 116.387   3
  -4  28  -2-13.2017 101.856   6
  -4 -28  -2 115.371 126.354   5
  -4  28  -1 6853.39 414.541   3
  -4  28  -1 6712.14 405.305   6
  -4  28   0 390.359 145.897   6
  -4  28   1 2237.79 247.208   6
  -4  28   2 6861.09 421.497   6
  -4  29  -4 4314.86 366.391   3
  -4  29  -3 6345.14 431.671   3
  -4  29  -3 6011.73 406.071   6
  -4  29  -2 5170.55 386.751   3
  -4 -29  -2 4405.10 377.075   5
  -4  29  -2 4778.98 353.600   6
  -4  29  -1 94.6447 103.444   3
  -4  29  -1 100.367 109.688   6
  -4  29   0 855.736 175.006   6
  -4  29   1 2267.16 254.347   6
  -4  29   2 724.720 167.918   6
  -4  30  -3 102.930 107.237   3
  -4  30  -2 145.800 139.966   6
  -4  30  -2 67.7254 103.190   3
  -4  30  -1 36.8913 114.882   6
  -4  30  -1 104.076 105.257   3
  -4  30   0 6422.03 418.064   6
  -4  30   1 115.191 124.360   6
  -4  30   2 1467.46 221.961   6
  -4  31  -1 1129.82 201.882   6
  -4  31   0 3178.71 306.619   6
  -4  31   1 5123.05 388.803   6
  -4  32   0 428.253 151.955   6
  -4  32   1 1964.38 265.890   6
  -3   0 -11 191.247 138.405   5
  -3   0 -10 16366.3 643.799   5
  -3   0  -9 6.14368 91.8990   5
  -3   0  -8 180.048 90.2223   5
  -3   0  -7-35.4518 87.2961   5
  -3   0  -6 21486.0 553.314   5
  -3   0  -5-88.6554 71.9158   5
  -3   0  -4 204523. 1426.00   5
  -3   0  -4 203456. 1474.70   3
  -3   0  -3 10.3751 46.5535   5
  -3   0  -3 67.2211 46.1776   3
  -3   0  -2 151500. 1087.88   2
  -3   0  -2 150995. 1027.04   3
  -3   0  -1-11.4536 41.2922   2
  -3   0  -1 18.7080 34.0849   5
  -3   0  -1 34.6800 35.4101   3
  -3   0  -1 56.7913 27.3598   6
  -3   0   0 134123. 635.755   5
  -3   0   0 137120. 824.681   4
  -3   0   0 131747. 454.064   6
  -3   0   1 34.1346 32.4292   4
  -3   0   2 39452.2 444.464   1
  -3   0   2 39055.5 314.636   5
  -3   0   2 39401.5 410.481   4
  -3   0   3 80.8574 29.8272   5
  -3   0   3 40.5202 48.5397   1
  -3   0   4 161454. 955.456   5
  -3   0   5 24.1151 39.6285   5
  -3   0   6 4803.99 215.888   5
  -3  -1 -11 5338.43 405.872   5
  -3   1 -11 4842.57 383.792   5
  -3   1 -10 6085.90 403.425   5
  -3  -1 -10 5296.45 375.517   5
  -3   1  -9 1914.04 224.841   5
  -3  -1  -9 1466.23 201.023   5
  -3   1  -8 29753.6 755.964   5
  -3  -1  -8 29331.0 756.241   5
  -3   1  -7 10483.2 425.157   5
  -3  -1  -7 10102.7 415.110   5
  -3   1  -6 85985.6 1103.77   5
  -3  -1  -6 85612.1 1115.23   5
  -3   1  -5 42546.4 712.186   5
  -3  -1  -5 43918.7 733.547   5
  -3   1  -4 2216.50 155.882   5
  -3  -1  -4 2156.57 155.308   5
  -3   1  -4 2147.79 162.341   3
  -3   1  -3 33138.8 514.217   5
  -3  -1  -3 32992.8 526.108   5
  -3   1  -3 33036.8 550.465   3
  -3  -1  -3 32607.4 524.435   3
  -3  -1  -2 947.636 92.0405   2
  -3  -1  -2 920.475 90.7030   3
  -3   1  -2 950.330 83.9197   5
  -3  -1  -2 875.574 87.0426   5
  -3   1  -2 1099.93 99.5649   3
  -3   1  -2 983.303 100.790   2
  -3   1  -1 25520.0 401.382   2
  -3  -1  -1 25347.6 391.007   2
  -3   1  -1 25642.8 330.788   5
  -3  -1  -1 25856.7 360.938   3
  -3  -1  -1 24972.7 349.529   5
  -3  -1  -1 24416.8 288.809   6
  -3  -1   0 23856.4 234.594   6
  -3   1   0 24277.5 349.396   4
  -3   1   0 24025.0 248.672   5
  -3  -1   0 24066.9 290.515   5
  -3  -1   0 24358.7 345.969   4
  -3  -1   0 24794.0 343.709   2
  -3   1   1 336417. 1239.29   1
  -3  -1   1 338148. 1182.19   4
  -3   1   1 339320. 1225.35   4
  -3  -1   1 333991. 924.225   6
  -3   1   2 17568.7 282.974   4
  -3   1   2 17020.4 297.380   1
  -3  -1   2 17534.4 298.646   1
  -3   1   2 17142.3 186.179   5
  -3  -1   2 17574.6 266.096   4
  -3   1   3 124087. 665.892   5
  -3  -1   3 121997. 828.272   1
  -3  -1   4 500.132 63.8383   5
  -3   1   4 450.722 56.4493   5
  -3  -1   5 18291.5 374.138   5
  -3   1   5 18803.2 369.300   5
  -3  -1   6 878.951 98.5845   5
  -3   1   6 859.101 100.305   5
  -3  -2 -11 11505.4 575.739   5
  -3   2 -11 11396.6 576.580   5
  -3  -2 -10 87.9181 100.687   5
  -3   2 -10 246.836 126.916   5
  -3  -2  -9 20433.4 678.490   5
  -3   2  -9 21186.7 687.896   5
  -3   2  -8 233.455 109.178   5
  -3  -2  -8 232.446 116.509   5
  -3   2  -7 74682.6 1112.26   5
  -3  -2  -7 74730.7 1122.83   5
  -3  -2  -6 3487.31 236.951   5
  -3   2  -6 3350.27 230.361   5
  -3   2  -5 91699.7 1045.24   5
  -3  -2  -5 90832.8 1059.37   5
  -3   2  -4 1563.03 130.453   5
  -3  -2  -4 1790.85 149.883   5
  -3   2  -4 1971.93 159.439   3
  -3   2  -3 223744. 1319.87   5
  -3   2  -3 224713. 1476.52   3
  -3  -2  -3 222713. 1378.88   5
  -3   2  -3 225993. 1489.19   2
  -3  -2  -3 223996. 1354.96   3
  -3   2  -2 908.905 78.9217   5
  -3   2  -2 1008.29 101.553   2
  -3  -2  -2 897.100 87.3544   5
  -3  -2  -2 897.221 77.9142   6
  -3   2  -2 748.845 86.9444   3
  -3  -2  -2 903.616 82.7639   3
  -3   2  -1 319.029 48.4325   5
  -3   2  -1 286.436 51.9168   4
  -3  -2  -1 305.219 46.2568   6
  -3   2  -1 278.669 59.3252   2
  -3  -2  -1 211.845 29.6335   3
  -3  -2  -1 323.173 55.3257   2
  -3  -2  -1 328.209 56.4901   5
  -3   2   0 2229.33 75.7066   5
  -3  -2   0 1942.84 81.8485   6
  -3   2   0 2136.82 106.391   4
  -3  -2   0 1981.08 99.1109   2
  -3   2   1 601796. 1662.36   1
  -3   2   1 600896. 1666.63   4
  -3  -2   1 591430. 1376.38   6
  -3  -2   1 601752. 1555.10   4
  -3  -2   2 89564.1 673.708   1
  -3  -2   2 90385.0 575.659   4
  -3   2   2 88236.6 373.795   5
  -3   2   2 90895.1 670.554   4
  -3  -2   3 32217.0 424.820   1
  -3   2   3 33199.2 333.691   5
  -3  -2   3 32169.1 391.301   5
  -3   2   4 7220.48 196.064   5
  -3  -2   4 7335.31 220.962   1
  -3  -2   4 7630.48 222.010   5
  -3  -2   5 24256.3 442.294   5
  -3   2   5 23779.0 419.296   5
  -3  -2   6 18324.2 427.995   5
  -3   2   6 19072.4 425.180   5
  -3   3 -11 2132.37 262.872   5
  -3  -3 -11 2486.55 289.783   5
  -3  -3 -10 17766.4 675.365   5
  -3   3 -10 18579.6 686.920   5
  -3  -3  -9 2270.02 242.532   5
  -3   3  -9 2176.64 237.188   5
  -3   3  -8 4570.35 303.127   5
  -3  -3  -8 4145.13 294.188   5
  -3   3  -7 1502.06 179.812   5
  -3  -3  -7 1551.36 182.182   5
  -3  -3  -6 107665. 1255.29   5
  -3   3  -6 109538. 1243.21   5
  -3   3  -5 3753.65 222.977   5
  -3  -3  -5 3616.38 225.052   5
  -3   3  -5 3790.68 236.725   3
  -3   3  -4 78550.2 875.757   5
  -3  -3  -4 80402.1 924.433   5
  -3   3  -4 79907.1 964.608   3
  -3   3  -3 5671.89 215.041   5
  -3  -3  -3 5706.21 229.061   5
  -3   3  -3 6018.17 250.850   3
  -3   3  -3 5808.37 243.073   2
  -3  -3  -3 6112.90 222.834   6
  -3   3  -2 1366.42 94.2615   5
  -3   3  -2 1484.05 120.131   2
  -3   3  -2 1497.42 117.130   3
  -3  -3  -2 1503.31 110.273   5
  -3  -3  -2 1332.54 95.7382   6
  -3  -3  -2 1544.83 102.903   3
  -3   3  -1 15709.8 249.553   5
  -3  -3  -1 15684.6 303.077   2
  -3  -3  -1 15857.0 264.032   3
  -3   3  -1 15982.2 309.114   4
  -3  -3  -1 15688.9 270.162   6
  -3  -3  -1 15740.8 299.209   5
  -3   3  -1 15656.1 326.854   2
  -3   3   0 65.6349 20.9215   5
  -3   3   0 73.8417 32.8181   1
  -3  -3   0 205.206 47.1856   6
  -3   3   0 83.3359 41.8700   4
  -3  -3   0 78.0430 32.6273   2
  -3  -3   1 39648.1 391.734   6
  -3   3   1 40127.4 442.881   4
  -3  -3   1 40113.0 397.298   4
  -3   3   1 39982.1 432.077   1
  -3  -3   2 145336. 699.954   4
  -3   3   2 147840. 880.913   4
  -3   3   2 148357. 906.478   1
  -3  -3   2 147657. 840.194   6
  -3   3   3 21815.1 263.779   5
  -3  -3   3 20952.4 340.405   1
  -3  -3   3 21533.1 337.583   5
  -3   3   4 41568.2 462.671   5
  -3  -3   4 42119.5 529.905   5
  -3  -3   4 40860.2 501.809   1
  -3   3   5 50612.8 600.788   5
  -3  -3   5 49727.2 644.364   5
  -3  -3   6 48293.1 709.591   5
  -3   3   6 50185.1 675.757   5
  -3  -4 -11 9134.24 522.530   5
  -3   4 -11 9173.43 519.373   5
  -3  -4 -10 2827.55 287.518   5
  -3   4 -10 2926.66 289.237   5
  -3  -4  -9 15134.1 581.592   5
  -3   4  -9 15199.9 585.701   5
  -3   4  -8 510.244 126.600   5
  -3  -4  -8 481.484 112.939   5
  -3   4  -7 34925.0 765.482   5
  -3  -4  -7 34629.7 779.838   5
  -3   4  -6 1108.89 141.539   5
  -3  -4  -6 843.578 130.384   5
  -3   4  -5 30715.1 605.461   5
  -3  -4  -5 30261.2 632.710   5
  -3   4  -5 31235.6 662.817   3
  -3   4  -4 14232.0 376.581   5
  -3  -4  -4 13916.8 391.278   5
  -3   4  -4 14637.1 422.504   3
  -3  -4  -4 14582.4 387.017   6
  -3   4  -3 55764.9 663.197   5
  -3  -4  -3 55247.2 716.418   5
  -3   4  -3 55169.5 746.326   2
  -3  -4  -3 57010.4 687.100   6
  -3   4  -3 54756.1 748.419   3
  -3   4  -2 167566. 1191.30   2
  -3   4  -2 164918. 1184.75   3
  -3   4  -2 164808. 983.128   5
  -3  -4  -2 164708. 1045.55   6
  -3   4  -2 162973. 1074.11   4
  -3   4  -1 23847.5 310.755   5
  -3  -4  -1 24075.6 369.029   2
  -3  -4  -1 23582.8 307.140   3
  -3   4  -1 23967.9 378.643   4
  -3   4  -1 24008.6 236.438   6
  -3  -4  -1 24055.2 360.295   6
  -3  -4  -1 24552.6 388.369   5
  -3   4  -1 24452.3 412.110   2
  -3  -4   0 217216. 996.843   6
  -3  -4   0 222665. 962.712   2
  -3  -4   0 224240. 743.504   3
  -3   4   0 219601. 957.919   1
  -3   4   0 224130. 1093.86   4
  -3   4   0 222541. 687.771   5
  -3  -4   1 13391.3 230.192   4
  -3  -4   1 13565.2 247.104   6
  -3   4   1 13059.2 251.285   1
  -3   4   1 12932.1 262.350   4
  -3   4   2 44860.8 502.026   4
  -3  -4   2 44079.5 484.483   6
  -3  -4   2 42948.3 369.570   4
  -3  -4   3 58944.1 570.935   1
  -3   4   3 60104.8 439.165   5
  -3  -4   3 60724.2 594.598   5
  -3   4   4 110573. 761.187   5
  -3  -4   4 113985. 899.662   5
  -3  -4   5 745.385 94.9602   5
  -3   4   5 601.850 73.1643   5
  -3   4   6 13786.2 356.917   5
  -3  -5 -11 4785.63 384.585   5
  -3   5 -11 4273.89 359.631   5
  -3   5 -10 519.359 134.165   5
  -3  -5 -10 420.470 148.164   5
  -3   5  -9 95.0010 99.5987   5
  -3  -5  -9 409.856 133.129   5
  -3  -5  -8 11706.1 491.265   5
  -3   5  -8 12141.1 489.863   5
  -3  -5  -7 5281.71 312.654   5
  -3   5  -7 5020.20 298.089   5
  -3  -5  -6 2512.65 205.450   5
  -3   5  -6 2580.64 202.272   5
  -3  -5  -5 49680.1 814.525   5
  -3   5  -5 49396.9 840.242   3
  -3   5  -5 49393.3 777.142   5
  -3   5  -4 4738.74 224.464   5
  -3  -5  -4 5106.02 242.062   6
  -3  -5  -4 4567.72 232.913   5
  -3   5  -4 4852.10 252.631   3
  -3  -5  -3 63709.9 783.736   5
  -3   5  -3 64108.8 808.223   2
  -3   5  -3 64154.7 826.769   3
  -3  -5  -3 65407.0 755.336   6
  -3   5  -3 63468.0 712.589   5
  -3   5  -2 55693.9 693.749   2
  -3   5  -2 55299.8 709.609   3
  -3  -5  -2 55342.0 662.190   5
  -3   5  -2 54251.6 613.164   4
  -3  -5  -2 53798.1 628.515   6
  -3   5  -2 54771.5 486.525   6
  -3   5  -2 55599.9 579.081   5
  -3  -5  -1 198125. 844.853   3
  -3  -5  -1 198045. 1144.44   5
  -3  -5  -1 196688. 1093.03   6
  -3   5  -1 200764. 1184.66   2
  -3   5  -1 197298. 903.047   5
  -3   5  -1 202838. 1101.18   4
  -3  -5   0 144046. 753.939   2
  -3  -5   0 142659. 537.954   3
  -3   5   0 139595. 527.329   6
  -3   5   0 141861. 772.077   1
  -3  -5   0 139529. 858.986   6
  -3   5   0 144710. 891.575   4
  -3  -5   1 134889. 835.144   6
  -3  -5   1 127102. 715.770   4
  -3   5   1 132299. 859.374   4
  -3  -5   2 19059.4 240.076   4
  -3  -5   2 19646.7 343.437   6
  -3  -5   3 38428.8 460.812   1
  -3   5   3 38686.7 355.846   5
  -3  -5   4 66158.6 712.154   5
  -3   5   4 64282.1 581.798   5
  -3  -5   4 65701.8 622.659   1
  -3  -5   5 22850.5 459.483   5
  -3   5   5 21787.8 400.665   5
  -3   5   6 2333.42 154.105   5
  -3  -6 -11 1511.84 230.181   5
  -3   6 -11 1381.46 226.252   5
  -3  -6 -10 6760.06 423.206   5
  -3   6 -10 6618.06 422.736   5
  -3  -6  -9 23808.0 742.808   5
  -3   6  -9 24101.0 738.449   5
  -3   6  -8-204.931 107.413   5
  -3  -6  -8-32.0848 87.1566   5
  -3  -6  -7 27484.1 701.156   5
  -3   6  -7 27821.7 691.082   5
  -3  -6  -6 14478.0 483.028   5
  -3   6  -6 14952.9 505.646   3
  -3   6  -6 14395.8 461.459   5
  -3  -6  -5 6954.75 310.612   5
  -3   6  -5 6973.31 325.557   3
  -3   6  -5 7032.41 296.464   5
  -3  -6  -4 31217.3 604.469   5
  -3  -6  -4 31068.6 589.901   6
  -3   6  -4 31497.3 639.339   3
  -3   6  -4 30886.6 560.105   5
  -3   6  -3 21434.9 472.568   2
  -3   6  -3 21015.4 482.981   3
  -3  -6  -3 21304.2 463.209   5
  -3   6  -3 21028.5 410.525   4
  -3   6  -3 21137.4 368.283   6
  -3  -6  -3 21109.0 445.353   6
  -3   6  -3 21161.1 414.161   5
  -3   6  -2 109814. 979.842   2
  -3   6  -2 107993. 598.763   1
  -3   6  -2 110082. 1016.21   3
  -3  -6  -2 105643. 913.842   6
  -3   6  -2 106585. 706.487   6
  -3  -6  -2 107915. 953.732   5
  -3   6  -2 109344. 864.403   4
  -3   6  -2 107491. 813.590   5
  -3   6  -1 52557.0 436.106   1
  -3   6  -1 53409.0 573.999   4
  -3   6  -1 52823.2 418.522   6
  -3  -6  -1 52267.9 601.545   6
  -3   6  -1 53638.3 625.272   2
  -3   6  -1 52078.7 480.764   5
  -3   6   0 45359.9 441.967   1
  -3  -6   0 45005.6 411.670   2
  -3  -6   0 41773.9 249.830   3
  -3   6   0 45293.1 505.448   4
  -3   6   0 44840.1 352.338   6
  -3  -6   0 44098.2 517.482   6
  -3   6   1 212555. 1116.74   4
  -3  -6   1 211800. 1117.43   6
  -3  -6   1 214028. 748.755   2
  -3  -6   2 50951.4 578.521   6
  -3  -6   2 49806.7 376.202   4
  -3  -6   3 51562.9 623.387   6
  -3  -6   3 50822.1 534.457   1
  -3  -6   4 35066.0 454.194   1
  -3   6   4 36123.5 435.907   5
  -3  -6   4 36686.4 549.336   5
  -3  -6   5 558.612 82.5208   5
  -3  -6   5 391.856 65.0034   1
  -3   6   5 658.022 76.4565   5
  -3   6   6 159.317 52.3157   5
  -3   7 -12 1356.46 224.980   6
  -3  -7 -11 971.955 216.885   5
  -3   7 -11 856.723 190.186   6
  -3   7 -11 630.891 167.346   5
  -3  -7 -10 25161.9 810.486   5
  -3   7 -10 25915.8 820.996   5
  -3  -7  -9 4918.83 353.407   5
  -3   7  -9 5073.14 356.937   5
  -3  -7  -8 48535.9 1001.61   5
  -3   7  -8 49117.4 986.883   5
  -3  -7  -7 4289.73 290.505   5
  -3   7  -7 4160.72 277.754   5
  -3  -7  -6 47499.7 878.046   5
  -3   7  -6 47901.9 916.862   3
  -3   7  -6 47283.6 835.963   5
  -3  -7  -5 21652.8 551.779   5
  -3   7  -5 21592.2 576.541   3
  -3   7  -5 21372.5 518.297   5
  -3  -7  -4 21636.7 515.163   5
  -3   7  -4 21997.9 547.657   3
  -3   7  -4 22170.2 449.363   4
  -3   7  -4 21359.2 426.972   6
  -3   7  -4 21771.3 475.182   5
  -3   7  -3 7537.67 285.967   2
  -3   7  -3 7800.75 301.923   3
  -3  -7  -3 7703.76 287.490   5
  -3  -7  -3 7883.68 285.686   6
  -3   7  -3 8000.33 251.618   4
  -3   7  -3 7480.15 224.299   6
  -3   7  -3 7796.47 258.892   5
  -3   7  -2 9755.02 296.067   2
  -3   7  -2 9446.16 308.775   3
  -3   7  -2 9718.30 173.633   1
  -3  -7  -2 9682.01 298.044   5
  -3  -7  -2 9804.87 292.515   6
  -3   7  -2 9710.85 225.439   6
  -3   7  -2 9515.43 259.059   4
  -3   7  -2 9790.38 254.186   5
  -3   7  -1 4376.63 167.275   4
  -3   7  -1 4385.03 185.348   2
  -3  -7  -1 4290.11 183.979   6
  -3   7  -1 4475.03 134.041   6
  -3   7  -1 4321.98 128.705   1
  -3   7   0 118018. 644.921   6
  -3  -7   0 119373. 906.239   6
  -3   7   0 120858. 849.751   4
  -3   7   1 72543.8 676.416   4
  -3  -7   1 71263.3 693.365   6
  -3  -7   1 71894.2 404.852   2
  -3   7   1 72408.2 537.473   6
  -3  -7   2 8436.68 252.023   6
  -3  -7   2 8686.67 156.080   4
  -3  -7   3 27078.4 469.995   6
  -3   7   4 366.092 51.4093   5
  -3  -7   4 359.128 60.1311   1
  -3  -7   4 443.259 72.3981   5
  -3   7   5 126.962 39.8519   5
  -3  -7   5 122.357 54.2484   3
  -3  -7   5 129.518 62.2744   5
  -3  -7   5 143.841 44.0668   1
  -3   7   6 44069.2 644.063   5
  -3  -7   6 44640.5 717.603   3
  -3  -8 -11 6165.47 438.688   5
  -3   8 -11 6331.23 411.944   6
  -3   8 -11 6232.14 447.667   5
  -3   8 -10 182.709 122.039   5
  -3  -8 -10 159.615 134.950   5
  -3   8 -10 121.120 101.053   6
  -3  -8  -9 34371.3 907.182   5
  -3   8  -9 33166.2 871.998   5
  -3   8  -9 33473.3 823.260   6
  -3  -8  -8 3848.97 299.676   5
  -3   8  -8 3866.94 272.657   6
  -3   8  -8 3914.29 295.122   5
  -3  -8  -7 37589.3 840.325   5
  -3   8  -7 37437.3 752.490   6
  -3   8  -7 35957.1 793.588   5
  -3  -8  -6 17465.3 541.514   5
  -3   8  -6 18102.0 571.414   3
  -3   8  -6 16694.7 466.853   6
  -3   8  -6 16737.2 505.045   5
  -3  -8  -5 39976.4 759.410   5
  -3   8  -5 40782.8 798.451   3
  -3   8  -5 40395.0 649.084   4
  -3   8  -5 39874.2 654.528   6
  -3   8  -5 39538.9 713.326   5
  -3   8  -4 3063.55 169.797   4
  -3  -8  -4 3110.98 204.993   5
  -3   8  -4 3307.20 221.028   3
  -3   8  -4 2896.62 168.276   6
  -3   8  -4 2916.91 181.350   5
  -3   8  -3 63782.4 832.336   2
  -3   8  -3 62922.2 863.140   3
  -3  -8  -3 64273.8 835.954   5
  -3   8  -3 63223.6 701.792   4
  -3  -8  -3 63111.2 828.054   6
  -3   8  -3 61978.0 668.933   6
  -3   8  -3 62867.0 734.182   5
  -3   8  -2 40158.5 343.915   1
  -3   8  -2 39972.8 476.130   6
  -3   8  -2 40508.9 607.291   2
  -3   8  -2 40910.4 533.443   4
  -3   8  -2 41089.4 646.190   3
  -3  -8  -2 40833.6 617.539   6
  -3  -8  -2 41655.7 627.493   5
  -3   8  -2 40303.2 522.288   5
  -3   8  -1 24727.7 336.094   6
  -3   8  -1 25544.7 403.168   4
  -3   8  -1 25765.0 451.557   2
  -3  -8  -1 24874.5 456.408   6
  -3   8   0 35871.4 394.406   6
  -3  -8   0 36006.0 522.805   6
  -3   8   0 36958.2 482.826   4
  -3   8   1 65318.3 657.115   4
  -3  -8   1 65261.7 696.084   6
  -3  -8   1 62685.8 352.974   2
  -3   8   1 63486.7 549.330   6
  -3  -8   2 11704.2 178.355   3
  -3  -8   2 11715.1 305.196   6
  -3  -8   2 11781.1 178.365   4
  -3  -8   3 5790.54 168.534   3
  -3  -8   3 5700.80 225.812   6
  -3  -8   4 1391.48 99.0284   1
  -3  -8   4 1440.76 104.188   3
  -3  -8   4 1439.79 125.825   5
  -3   8   5 21485.2 405.265   5
  -3  -8   5 21270.4 368.189   1
  -3  -8   5 22049.2 450.793   3
  -3   8   6 5565.62 233.051   5
  -3  -8   6 5887.06 264.565   3
  -3  -9 -11 1934.09 256.371   5
  -3   9 -11 1727.96 251.941   6
  -3   9 -11 1637.18 251.917   5
  -3  -9 -10 5914.58 410.201   5
  -3   9 -10 5463.77 372.633   6
  -3   9 -10 4936.28 372.381   5
  -3   9  -9 2008.87 220.126   6
  -3  -9  -9 2218.72 248.529   5
  -3   9  -9 2236.66 242.859   5
  -3  -9  -8 26214.6 751.926   5
  -3   9  -8 26197.4 685.223   6
  -3   9  -8 25298.0 722.424   5
  -3  -9  -7 814.499 148.887   5
  -3   9  -7 1041.92 143.684   6
  -3   9  -7 930.007 143.619   5
  -3  -9  -6 13343.8 477.659   5
  -3   9  -6 13780.6 501.846   3
  -3   9  -6 13487.4 425.059   6
  -3   9  -6 13657.9 460.799   5
  -3  -9  -5 26866.9 634.118   5
  -3   9  -5 26656.2 545.109   6
  -3   9  -5 26547.3 523.577   4
  -3   9  -5 26739.9 654.484   3
  -3   9  -5 27243.9 596.919   5
  -3  -9  -4 32830.2 655.089   5
  -3   9  -4 34350.9 698.890   3
  -3   9  -4 33708.1 550.954   4
  -3   9  -4 33207.5 553.499   6
  -3   9  -4 32296.5 644.845   2
  -3   9  -4 32530.9 600.409   5
  -3   9  -3 100781. 1057.11   2
  -3   9  -3 100269. 1115.04   3
  -3  -9  -3 99676.3 1059.67   5
  -3  -9  -3 98687.7 1044.52   6
  -3   9  -3 99769.6 887.125   4
  -3   9  -3 98853.4 862.408   6
  -3   9  -3 99467.7 943.788   5
  -3   9  -2 60739.2 752.470   2
  -3   9  -2 58516.7 791.705   3
  -3  -9  -2 59681.4 777.332   6
  -3   9  -2 57787.6 604.858   6
  -3   9  -2 59129.9 649.594   4
  -3  -9  -2 59512.1 773.983   5
  -3   9  -1 233696. 1110.01   6
  -3  -9  -1 234660. 1448.66   6
  -3   9  -1 231969. 1231.18   4
  -3  -9   0 19963.8 410.874   6
  -3   9   0 20600.6 327.506   6
  -3   9   0 20458.0 372.058   4
  -3   9   1 82211.9 756.968   4
  -3   9   1 80564.6 664.540   6
  -3  -9   1 83506.1 829.387   6
  -3  -9   2 333.696 33.4089   4
  -3  -9   2 346.938 68.3787   6
  -3  -9   2 341.545 34.1536   3
  -3  -9   3 49430.9 496.764   3
  -3  -9   3 50568.5 686.060   6
  -3  -9   4 7060.52 210.714   1
  -3  -9   4 7074.69 225.683   3
  -3  -9   4 7336.49 270.825   5
  -3  -9   5 7677.06 270.870   3
  -3  -9   5 7865.10 224.026   1
  -3   9   6 29354.6 542.156   5
  -3  -9   6 28777.3 581.160   3
  -3  10 -11 112.589 110.896   6
  -3 -10 -10 10848.3 558.698   5
  -3  10 -10 10444.9 500.822   6
  -3  10 -10 10275.4 533.705   5
  -3 -10  -9 208.238 123.368   5
  -3  10  -9 417.264 130.290   6
  -3  10  -9 328.999 122.398   5
  -3 -10  -8 337.154 120.716   5
  -3  10  -8 389.193 115.375   6
  -3  10  -8 302.336 111.529   5
  -3 -10  -7 297.741 116.376   5
  -3  10  -7 282.826 84.9938   6
  -3  10  -7 354.305 110.767   5
  -3 -10  -6 404.143 105.071   5
  -3  10  -6 283.276 102.978   3
  -3  10  -6 409.285 94.7854   6
  -3  10  -6 193.729 81.1183   5
  -3 -10  -5 2204.47 193.540   5
  -3  10  -5 2420.53 214.565   3
  -3  10  -5 2365.54 161.311   4
  -3  10  -5 2440.08 175.657   6
  -3  10  -5 2295.59 188.204   5
  -3 -10  -4 4137.72 243.722   5
  -3  10  -4 3933.10 245.919   3
  -3  10  -4 3954.30 231.933   2
  -3  10  -4 3936.38 198.060   6
  -3  10  -4 3844.13 187.305   4
  -3  10  -4 4006.98 215.873   5
  -3  10  -3 55784.7 797.623   2
  -3  10  -3 56663.4 856.388   3
  -3 -10  -3 56198.0 816.990   5
  -3  10  -3 56814.2 667.390   4
  -3  10  -3 55741.3 675.222   6
  -3  10  -2 163556. 1254.75   2
  -3  10  -2 161904. 1059.58   6
  -3  10  -2 164257. 1080.77   4
  -3 -10  -2 164598. 1320.05   5
  -3 -10  -2 164601. 1328.47   6
  -3  10  -1 4272.48 166.285   6
  -3 -10  -1 4307.52 211.219   6
  -3  10  -1 4836.92 212.171   2
  -3  10  -1 4411.43 177.657   4
  -3  10   0 213574. 1215.30   4
  -3  10   0 210945. 1113.00   6
  -3 -10   0 217024. 1404.14   6
  -3  10   1 1266.45 97.4146   6
  -3 -10   1 1228.83 113.157   6
  -3 -10   2 28078.5 278.351   4
  -3 -10   2 28997.7 520.128   6
  -3 -10   3 1477.77 89.6693   3
  -3 -10   3 1462.50 128.469   6
  -3 -10   4 140339. 930.834   1
  -3 -10   5 14832.1 379.063   3
  -3 -10   5 14570.2 302.533   1
  -3 -10   6 44277.4 729.274   3
  -3  11 -11 6437.45 428.841   6
  -3 -11 -10 2576.36 277.494   5
  -3  11 -10 3106.06 287.203   6
  -3  11 -10 2804.81 293.682   5
  -3 -11  -9 325.168 136.157   5
  -3  11  -9 322.102 127.624   5
  -3  11  -9 338.647 127.799   6
  -3 -11  -8 18443.8 649.817   5
  -3  11  -8 19380.9 602.699   6
  -3  11  -8 19377.2 648.703   5
  -3 -11  -7-37.1865 93.8460   5
  -3  11  -7 118.824 93.6261   3
  -3  11  -7 234.078 109.596   6
  -3  11  -7 156.012 95.3337   5
  -3 -11  -6 13034.5 487.883   5
  -3  11  -6 13430.7 437.507   6
  -3  11  -6 13767.8 512.293   3
  -3  11  -6 14198.1 477.215   5
  -3 -11  -5 13937.7 475.938   5
  -3  11  -5 13338.0 364.613   4
  -3  11  -5 14455.1 499.278   3
  -3  11  -5 14304.5 421.045   6
  -3  11  -5 13587.4 436.446   5
  -3 -11  -4 23356.9 577.882   5
  -3  11  -4 22936.0 587.584   3
  -3  11  -4 22656.6 547.180   2
  -3  11  -4 22513.9 449.088   4
  -3  11  -4 23300.0 486.992   6
  -3  11  -3 38319.7 668.729   2
  -3  11  -3 37712.5 711.125   3
  -3 -11  -3 36687.6 682.272   5
  -3  11  -3 36407.1 565.644   6
  -3  11  -3 37556.2 544.154   4
  -3  11  -2 21062.6 459.055   2
  -3  11  -2 22199.3 410.081   6
  -3 -11  -2 20919.5 487.240   5
  -3  11  -2 21212.4 391.928   4
  -3 -11  -1 83027.5 935.289   6
  -3  11  -1 80860.5 750.082   6
  -3  11  -1 85299.6 863.969   2
  -3  11  -1 84919.9 778.199   4
  -3  11   0 569.138 82.2814   6
  -3  11   0 632.191 76.9341   4
  -3 -11   0 597.375 89.5399   6
  -3  11   1 27549.8 442.786   6
  -3 -11   1 28318.3 527.157   6
  -3  11   2 40573.5 577.034   6
  -3 -11   2 40940.5 642.966   6
  -3 -11   2 38633.8 330.879   4
  -3 -11   3 39835.7 446.933   3
  -3 -11   3 37151.2 293.035   2
  -3 -11   3 41756.7 673.906   6
  -3 -11   4 153.639 41.6514   3
  -3 -11   4 214.884 51.7784   1
  -3 -11   5 35913.4 588.225   3
  -3 -11   5 36356.8 477.650   1
  -3 -11   6 13270.4 405.781   3
  -3  12 -11 1879.29 246.095   6
  -3 -12 -10 2574.03 291.001   5
  -3  12 -10 2171.46 244.014   6
  -3  12 -10 2731.36 286.097   5
  -3 -12  -9 41421.3 1034.04   5
  -3  12  -9 43097.7 964.366   6
  -3  12  -9 43201.0 1029.16   5
  -3 -12  -8 1925.37 230.377   5
  -3  12  -8 1520.60 190.602   6
  -3  12  -8 1624.02 207.801   5
  -3 -12  -7 55113.3 1064.99   5
  -3  12  -7 56425.4 1113.49   3
  -3  12  -7 56626.4 967.420   6
  -3  12  -7 56096.9 1025.14   5
  -3 -12  -6 124.037 87.8171   5
  -3  12  -6 248.757 104.614   3
  -3  12  -6 144.557 82.0890   6
  -3  12  -6 187.039 87.9293   5
  -3 -12  -5 50359.9 911.037   5
  -3  12  -5 50196.6 941.486   3
  -3  12  -5 50404.6 704.836   4
  -3  12  -5 50542.3 792.911   6
  -3  12  -4 3187.40 229.733   3
  -3 -12  -4 2928.45 213.349   5
  -3  12  -4 2982.31 208.066   2
  -3  12  -4 2862.07 163.403   4
  -3  12  -4 3062.52 189.944   6
  -3  12  -3 81431.1 806.294   4
  -3  12  -3 85182.9 1008.35   2
  -3  12  -3 83370.5 1076.74   3
  -3 -12  -3 82903.8 1041.70   5
  -3  12  -3 83233.6 880.993   6
  -3  12  -2 17187.8 419.999   2
  -3  12  -2 16817.6 373.532   6
  -3  12  -2 16941.3 355.830   4
  -3  12  -1 6523.36 222.705   4
  -3  12  -1 6777.63 251.460   2
  -3  12  -1 6373.19 222.172   6
  -3  12   0 33198.5 506.262   4
  -3  12   0 32818.5 498.737   6
  -3 -12   0 33087.2 596.720   6
  -3 -12   1 1935.90 151.609   6
  -3  12   1 2014.54 140.148   6
  -3  12   2 6516.89 245.848   6
  -3 -12   2 6533.85 270.266   6
  -3 -12   4 55.9837 35.3465   3
  -3 -12   4 24.4167 23.4963   2
  -3 -12   5 84093.6 902.947   3
  -3 -12   5 83966.3 726.862   1
  -3 -12   6 5782.65 196.557   1
  -3  13 -11 230.786 130.700   6
  -3 -13 -10 9727.61 539.126   5
  -3  13 -10 9453.74 486.545   6
  -3 -13  -9 1198.56 206.873   5
  -3  13  -9 1412.78 204.198   6
  -3 -13  -8 50059.2 1091.80   5
  -3  13  -8 49008.6 980.052   6
  -3 -13  -7 3508.43 288.557   5
  -3  13  -7 3432.72 251.442   6
  -3  13  -7 3350.56 288.447   3
  -3 -13  -6 27376.6 724.208   5
  -3  13  -6 27596.4 744.518   3
  -3  13  -6 26880.4 634.388   6
  -3  13  -5 29205.4 531.151   4
  -3 -13  -5 30614.8 724.662   5
  -3  13  -5 29704.3 625.206   6
  -3  13  -5 30955.3 749.678   3
  -3  13  -4 71494.2 1068.93   3
  -3 -13  -4 72206.1 1051.52   5
  -3  13  -4 70566.2 980.709   2
  -3  13  -4 70951.6 895.522   6
  -3  13  -4 71455.1 783.053   4
  -3  13  -3 9180.27 367.682   3
  -3 -13  -3 8873.41 354.112   5
  -3  13  -3 9122.83 336.418   2
  -3  13  -3 8705.64 298.384   6
  -3  13  -3 8829.45 265.603   4
  -3  13  -2 36113.1 617.433   2
  -3  13  -2 35241.6 564.609   6
  -3  13  -2 35338.3 521.501   4
  -3  13  -1 158.329 55.0694   4
  -3  13  -1 139.876 60.5630   6
  -3  13  -1 118.605 56.4131   2
  -3  13   0 634.553 101.369   6
  -3  13   1 29653.7 508.782   6
  -3  13   2 39893.9 629.975   6
  -3 -13   4 16790.3 250.332   2
  -3 -13   4 16378.1 348.364   3
  -3 -13   5 70.1622 47.1078   3
  -3 -13   5 67.9279 39.4083   2
  -3 -13   5 78.8938 40.5550   1
  -3 -13   6 7519.51 220.808   1
  -3 -13   6 7558.38 259.496   2
  -3 -13   7 7322.48 293.923   2
  -3  14 -11 417.428 162.856   6
  -3 -14 -10 2189.20 283.619   5
  -3  14 -10 1926.90 241.714   6
  -3 -14  -9 8213.57 476.453   5
  -3  14  -9 8590.64 450.163   6
  -3 -14  -8 479.458 144.213   5
  -3  14  -8 549.018 144.362   6
  -3 -14  -7 7062.40 401.842   5
  -3  14  -7 7194.95 412.178   3
  -3  14  -7 6756.35 353.319   6
  -3 -14  -6 5215.07 327.923   5
  -3  14  -6 4952.77 328.317   3
  -3  14  -6 5058.07 286.115   6
  -3  14  -5 4804.41 216.923   4
  -3 -14  -5 5172.36 312.837   5
  -3  14  -5 5191.83 317.561   3
  -3  14  -5 4873.30 263.339   6
  -3  14  -4 48670.2 898.710   3
  -3 -14  -4 48281.6 877.759   5
  -3  14  -4 48531.0 819.765   2
  -3  14  -4 46724.9 636.874   4
  -3  14  -4 48793.6 767.823   6
  -3  14  -3 5193.08 258.082   2
  -3  14  -3 4828.41 273.201   3
  -3 -14  -3 4708.98 267.559   5
  -3  14  -3 4882.16 235.186   6
  -3  14  -3 4803.93 199.644   4
  -3  14  -2 40467.8 565.925   4
  -3  14  -2 40041.5 660.799   2
  -3  14  -2 40532.9 629.745   6
  -3  14  -1 23089.2 476.710   2
  -3  14  -1 23636.4 438.047   4
  -3  14  -1 23848.9 474.712   6
  -3  14   0 35073.5 568.988   6
  -3  14   1 14784.7 381.786   6
  -3  14   2 33709.7 596.930   6
  -3 -14   4 50078.9 387.140   2
  -3 -14   5 21444.9 356.501   2
  -3 -14   5 20692.9 456.228   3
  -3 -14   5 21718.7 377.416   1
  -3 -14   6 1321.11 113.052   2
  -3 -14   6 1333.00 98.0009   1
  -3 -14   7 6509.01 273.813   2
  -3  15 -11 7954.13 482.187   6
  -3 -15 -10-63.4053 121.235   5
  -3  15 -10 24.1155 119.525   6
  -3 -15  -9 4075.64 346.973   5
  -3  15  -9 3723.48 302.061   6
  -3 -15  -8 621.105 155.314   5
  -3  15  -8 457.725 119.942   6
  -3 -15  -7 609.726 148.778   5
  -3  15  -7 432.924 119.601   6
  -3  15  -7 537.733 137.184   3
  -3  15  -6 1938.73 215.032   3
  -3 -15  -6 1760.40 205.724   5
  -3  15  -6 1848.86 182.139   6
  -3  15  -5 217.537 97.3805   3
  -3 -15  -5 189.012 84.7281   5
  -3  15  -5 165.822 84.5619   6
  -3  15  -5 174.091 62.5349   4
  -3  15  -4 1341.55 168.518   3
  -3  15  -4 1375.75 145.385   6
  -3 -15  -4 1036.52 145.532   5
  -3  15  -4 1313.68 111.919   4
  -3  15  -4 1561.93 159.667   2
  -3  15  -3 22488.2 432.140   4
  -3  15  -3 23747.8 551.302   2
  -3  15  -3 22881.6 596.505   3
  -3 -15  -3 22592.5 587.835   5
  -3  15  -3 23272.3 519.168   6
  -3  15  -2 6762.27 236.991   4
  -3  15  -2 7054.12 286.824   2
  -3  15  -2 6972.53 276.271   6
  -3  15  -1 118464. 1099.24   6
  -3  15  -1 120255. 1101.01   2
  -3  15   0 91.1049 69.3318   6
  -3  15   1 116053. 1104.17   6
  -3  15   2 13746.5 395.770   6
  -3 -15   5 6689.16 187.964   2
  -3 -15   5 6834.69 215.012   1
  -3 -15   6 109.118 44.4727   1
  -3 -15   6 135.646 49.4056   2
  -3  16 -10 161.559 119.670   6
  -3 -16  -9 13890.3 636.197   5
  -3  16  -9 12839.1 557.425   6
  -3 -16  -8 337.893 129.075   5
  -3  16  -8 383.101 128.696   6
  -3 -16  -7 4158.67 324.354   5
  -3  16  -7 4088.34 288.673   6
  -3  16  -7 4481.54 347.117   3
  -3  16  -6 2056.97 224.057   3
  -3 -16  -6 1984.44 214.518   5
  -3  16  -6 2169.97 202.626   6
  -3 -16  -5 6977.27 372.870   5
  -3  16  -5 6779.03 370.545   3
  -3  16  -5 6821.69 325.652   6
  -3  16  -5 6411.22 247.489   4
  -3  16  -4 28067.1 619.452   6
  -3  16  -4 28055.5 706.818   3
  -3 -16  -4 27518.1 691.941   5
  -3  16  -4 27783.2 632.956   2
  -3  16  -4 27462.4 493.858   4
  -3  16  -3 71325.1 771.748   4
  -3  16  -3 75179.4 990.543   2
  -3  16  -3 72881.1 1081.18   3
  -3 -16  -3 72893.4 1078.56   5
  -3  16  -3 71609.0 935.144   6
  -3  16  -2 81120.6 960.310   2
  -3  16  -2 80188.1 823.795   4
  -3  16  -2 80823.6 1077.85   3
  -3  16  -2 79869.8 958.964   6
  -3  16  -1 2006.33 157.438   6
  -3  16  -1 2067.72 157.343   2
  -3  16   0 68732.7 868.708   6
  -3  16   1 305.979 87.5333   6
  -3  16   2 50101.9 778.547   6
  -3 -16   5 5782.18 199.504   1
  -3 -16   5 5512.79 157.357   2
  -3 -16   6 1167.13 98.4604   2
  -3 -16   6 995.371 87.1265   1
  -3  17 -10 6041.97 412.923   6
  -3 -17  -9 2924.59 314.267   5
  -3  17  -9 2721.08 279.896   6
  -3 -17  -8 7515.82 449.424   5
  -3  17  -8 6811.42 395.327   6
  -3 -17  -7-22.2774 108.324   5
  -3  17  -7 85.2241 117.937   3
  -3  17  -7 164.366 101.457   6
  -3 -17  -6 30293.4 813.369   5
  -3  17  -6 31141.8 838.419   3
  -3  17  -6 30911.1 741.266   6
  -3 -17  -5 677.200 145.049   5
  -3  17  -5 776.437 134.004   6
  -3  17  -5 697.495 155.019   3
  -3  17  -4 27819.7 715.410   3
  -3 -17  -4 28271.2 718.814   5
  -3  17  -4 27562.9 632.726   6
  -3  17  -4 27335.3 633.183   2
  -3  17  -4 27764.8 495.688   4
  -3  17  -3 3370.19 175.106   4
  -3  17  -3 3474.91 223.038   2
  -3  17  -3 3574.90 250.665   3
  -3  17  -3 3665.41 227.001   6
  -3 -17  -3 3089.50 238.340   5
  -3  17  -2 4380.31 232.941   2
  -3  17  -2 3928.69 250.561   3
  -3  17  -2 4102.87 229.932   6
  -3  17  -1 25807.1 555.987   6
  -3  17  -1 25512.5 522.781   2
  -3  17   0 2521.57 185.490   6
  -3  17   1 93.0883 75.9522   6
  -3  17   2 10260.3 373.437   6
  -3 -17   5 1008.66 89.6695   1
  -3 -17   6 41453.4 501.427   1
  -3  18 -10 2348.66 265.497   6
  -3 -18  -9 8920.57 524.400   5
  -3  18  -9 8408.34 468.631   6
  -3 -18  -8 1262.75 205.123   5
  -3  18  -8 1067.07 183.401   6
  -3 -18  -7 22335.4 744.132   5
  -3  18  -7 22329.0 755.192   3
  -3  18  -7 22193.0 673.510   6
  -3 -18  -6 4874.31 343.557   5
  -3  18  -6 4683.08 338.805   3
  -3  18  -6 4583.14 300.355   6
  -3 -18  -5 52126.5 1039.39   5
  -3  18  -5 51776.9 929.430   6
  -3  18  -5 53318.3 1060.71   3
  -3  18  -4 6099.04 235.890   4
  -3  18  -4 6317.16 354.039   3
  -3  18  -4 6456.23 317.254   2
  -3 -18  -4 6390.55 356.713   5
  -3  18  -4 6036.16 308.865   6
  -3  18  -3 4583.68 204.408   4
  -3 -18  -3 4720.81 300.863   5
  -3  18  -3 4991.16 264.395   2
  -3  18  -3 4546.80 289.056   3
  -3  18  -3 4623.70 262.685   6
  -3  18  -2 2746.69 186.811   2
  -3  18  -2 2711.01 215.583   3
  -3  18  -2 2642.34 196.982   6
  -3  18  -1 18344.3 452.878   2
  -3  18  -1 18073.3 489.181   6
  -3  18   0 16179.6 459.931   6
  -3  18   1 150.730 70.5557   6
  -3  18   2 15303.7 465.903   6
  -3 -18   5 19779.5 377.074   1
  -3 -18   6 9364.97 239.499   1
  -3  19 -10 461.665 168.611   6
  -3 -19  -9 33.7069 129.678   5
  -3  19  -9-28.7452 113.905   6
  -3 -19  -8 6591.09 436.952   5
  -3  19  -8 6662.34 407.192   6
  -3  19  -7 51.3778 100.176   6
  -3 -19  -7 254.839 142.501   5
  -3  19  -7 330.524 142.027   3
  -3  19  -6 15822.4 553.690   6
  -3 -19  -6 16107.6 613.910   5
  -3  19  -6 15540.9 611.862   3
  -3 -19  -5 30069.8 805.286   5
  -3  19  -5 29945.2 723.298   6
  -3  19  -5 30075.0 808.372   3
  -3  19  -4 14635.7 536.882   3
  -3 -19  -4 15145.1 550.713   5
  -3  19  -4 14705.1 487.840   6
  -3  19  -3 47582.9 807.675   2
  -3  19  -3 46751.4 913.550   3
  -3  19  -3 46268.2 829.022   6
  -3 -19  -3 46498.3 926.613   5
  -3  19  -2 8645.89 329.632   2
  -3  19  -2 8655.77 379.263   3
  -3  19  -2 8290.97 350.174   6
  -3  19  -1 1859.93 157.041   2
  -3  19  -1 1787.76 175.689   6
  -3  19   0 8864.81 352.171   6
  -3  19   1 20216.3 540.471   6
  -3 -19   2 17559.4 252.226   4
  -3  19   2 18734.5 530.606   6
  -3 -19   5 459.882 72.0117   1
  -3 -19   6 16233.9 312.337   1
  -3  20  -9 31.2789 118.823   6
  -3 -20  -8 110.427 128.881   5
  -3  20  -8 270.763 138.739   6
  -3 -20  -7-66.4003 109.459   5
  -3  20  -7-7.41024 103.489   6
  -3 -20  -6 2881.64 282.469   5
  -3  20  -6 2999.59 254.794   6
  -3  20  -6 2890.68 277.230   3
  -3 -20  -5 662.848 150.404   5
  -3  20  -5 688.151 146.896   6
  -3  20  -5 766.249 157.921   3
  -3  20  -4 18631.2 562.807   6
  -3  20  -4 18832.9 619.229   3
  -3 -20  -4 18701.1 625.881   5
  -3  20  -3 84.5168 74.4688   2
  -3 -20  -3 296.916 119.340   5
  -3  20  -3 153.029 88.9761   6
  -3  20  -3 208.399 101.051   3
  -3  20  -2 28031.5 603.223   2
  -3  20  -2 27997.3 690.276   3
  -3  20  -2 27527.5 649.311   6
  -3  20  -1 25089.0 613.978   6
  -3  20  -1 25768.4 558.856   2
  -3  20   0 27719.6 641.153   6
  -3  20   1 3724.15 250.366   6
  -3 -20   2 26947.4 315.758   4
  -3  20   2 27229.6 659.173   6
  -3 -20   5 90.1349 47.4615   1
  -3  21  -9 1058.33 194.262   6
  -3 -21  -8 4423.51 368.721   5
  -3  21  -8 4569.11 352.023   6
  -3 -21  -7 1874.23 248.954   5
  -3  21  -7 1591.83 212.271   6
  -3  21  -7 1608.15 232.152   3
  -3  21  -6 7425.96 433.943   3
  -3  21  -6 6954.15 388.043   6
  -3 -21  -6 6716.58 415.339   5
  -3 -21  -5 2784.60 277.816   5
  -3  21  -5 3062.56 279.379   3
  -3  21  -5 3037.43 254.725   6
  -3 -21  -4 227.715 120.230   5
  -3  21  -4 93.4245 80.5967   3
  -3  21  -4-1.27037 83.8282   6
  -3  21  -3 19945.7 535.805   2
  -3  21  -3 19520.4 616.536   3
  -3 -21  -3 19445.6 629.443   5
  -3  21  -3 19233.4 572.628   6
  -3  21  -2 57.3299 75.0318   2
  -3  21  -2-76.0989 83.3442   6
  -3  21  -2-17.2628 80.0115   3
  -3  21  -1 30546.7 696.882   6
  -3  21  -1 31212.1 622.825   2
  -3  21   0 418.085 119.165   6
  -3  21   0 363.223 98.5202   2
  -3  21   1 39820.2 803.671   6
  -3 -21   2 9656.54 193.438   4
  -3  21   2 9975.17 414.701   6
  -3 -21   5 1057.72 96.2513   1
  -3  22  -9 741.030 168.773   6
  -3 -22  -8 2296.74 287.590   5
  -3  22  -8 2042.02 252.486   6
  -3 -22  -7 17157.5 698.156   5
  -3  22  -7 16439.4 629.729   6
  -3  22  -7 16215.8 679.611   3
  -3  22  -6 835.798 154.894   6
  -3  22  -6 772.697 181.300   3
  -3 -22  -6 1094.50 183.620   5
  -3 -22  -5 32551.8 887.848   5
  -3  22  -5 32331.6 875.658   3
  -3  22  -5 32385.7 806.680   6
  -3  22  -4 739.173 138.797   6
  -3  22  -4 572.025 135.802   3
  -3 -22  -4 752.123 155.813   5
  -3  22  -3 11676.9 413.020   2
  -3  22  -3 10917.4 475.129   3
  -3 -22  -3 10947.2 488.144   5
  -3  22  -3 10923.4 447.809   6
  -3  22  -2 41.2236 78.8093   3
  -3  22  -2 120.254 99.1098   6
  -3  22  -2 119.115 63.3848   2
  -3  22  -1 2797.69 234.393   6
  -3  22  -1 3058.92 205.713   2
  -3  22   0 36390.7 788.304   6
  -3  22   0 38355.7 690.677   2
  -3  22   1 437.727 130.391   6
  -3  22   2 8908.27 407.150   6
  -3  23  -8 6564.84 424.336   6
  -3 -23  -7 1828.58 244.802   5
  -3  23  -7 1989.61 251.599   6
  -3  23  -7 1891.63 257.044   3
  -3 -23  -6 5505.88 390.832   5
  -3  23  -6 4917.32 345.387   6
  -3  23  -6 5716.20 392.471   3
  -3 -23  -5 5157.72 377.596   5
  -3  23  -5 4756.77 358.603   3
  -3  23  -5 4755.10 330.238   6
  -3  23  -4 10722.4 494.845   3
  -3  23  -4 10230.3 455.426   6
  -3 -23  -4 9944.80 489.451   5
  -3  23  -3 721.353 134.170   6
  -3  23  -3 701.349 142.688   3
  -3  23  -3 655.306 120.765   2
  -3 -23  -3 682.843 156.043   5
  -3  23  -2 12589.5 423.200   2
  -3  23  -2 12603.5 499.309   3
  -3  23  -2 12098.5 474.895   6
  -3  23  -1 372.894 114.422   6
  -3  23  -1 311.792 91.1944   2
  -3  23   0 7820.26 385.918   6
  -3  23   0 7937.18 325.363   2
  -3  23   1 8813.64 405.718   6
  -3 -23   1 9337.26 256.211   4
  -3  23   2 1770.76 207.362   6
  -3  24  -8 267.888 129.073   6
  -3 -24  -7 7292.94 479.839   5
  -3  24  -7 7554.25 474.845   3
  -3  24  -7 7459.40 448.903   6
  -3 -24  -6 138.499 127.254   5
  -3  24  -6-87.4854 111.289   6
  -3  24  -6 64.0710 107.694   3
  -3 -24  -5 18745.1 703.982   5
  -3  24  -5 18147.1 680.615   3
  -3  24  -5 17759.9 634.432   6
  -3  24  -4 8953.40 463.000   3
  -3 -24  -4 8626.63 465.109   5
  -3  24  -4 8810.64 439.219   6
  -3  24  -3 2491.18 246.215   3
  -3  24  -3 2600.46 202.176   2
  -3 -24  -3 2225.69 243.238   5
  -3  24  -3 2124.31 223.067   6
  -3  24  -2 19095.6 521.467   2
  -3  24  -2 18710.4 616.599   3
  -3  24  -2 18020.1 594.681   6
  -3  24  -1 535.846 135.983   6
  -3  24  -1 456.689 98.8282   2
  -3  24   0 11405.9 471.137   6
  -3  24   0 10915.6 381.385   2
  -3  24   1 3796.48 284.183   6
  -3  24   2 12857.2 516.308   6
  -3  25  -7 775.075 177.110   6
  -3  25  -7 1167.67 212.172   3
  -3 -25  -6 2391.30 292.723   5
  -3  25  -6 1994.07 250.690   6
  -3  25  -6 2068.11 261.433   3
  -3  25  -5 2308.24 261.340   3
  -3  25  -5 2535.08 265.294   6
  -3 -25  -5 2128.01 262.101   5
  -3 -25  -4 64.4770 109.680   5
  -3  25  -4 94.1156 95.7343   6
  -3  25  -4 102.269 103.237   3
  -3  25  -3 10549.4 482.951   3
  -3  25  -3 9826.40 468.941   6
  -3 -25  -3 10606.6 515.891   5
  -3  25  -2-98.4247 104.510   6
  -3  25  -2-1.10794 82.4751   3
  -3  25  -2 1.37968 63.5059   2
  -3  25  -1 35361.4 843.810   6
  -3  25  -1 37081.2 707.716   2
  -3  25   0 4589.82 317.884   6
  -3  25   0 4383.31 247.182   2
  -3  25   1 35360.0 852.029   6
  -3  25   2 3751.37 300.132   6
  -3  26  -7 5692.62 413.015   6
  -3  26  -7 6146.23 445.463   3
  -3 -26  -6 221.157 137.645   5
  -3  26  -6 466.881 154.479   6
  -3  26  -6 299.878 136.650   3
  -3 -26  -5 3680.89 339.800   5
  -3  26  -5 3728.81 322.302   3
  -3  26  -5 3065.71 286.731   6
  -3  26  -4 4959.54 361.321   3
  -3 -26  -4 4636.09 363.459   5
  -3  26  -4 4538.91 338.124   6
  -3  26  -3 3893.79 308.910   3
  -3  26  -3 4541.51 325.444   6
  -3 -26  -3 4303.21 344.830   5
  -3  26  -2 3661.82 289.641   3
  -3  26  -2 3767.78 301.832   6
  -3  26  -1 692.799 150.945   3
  -3  26  -1 671.023 159.757   6
  -3  26   0 17817.3 620.907   6
  -3  26   1 329.016 135.718   6
  -3  26   2 9251.12 468.670   6
  -3  27  -6 14719.1 654.834   3
  -3  27  -6 14751.9 636.134   6
  -3 -27  -5 133.221 110.599   5
  -3  27  -5 366.079 151.970   6
  -3  27  -5 79.4169 114.540   3
  -3  27  -4 5786.80 392.798   3
  -3  27  -4 5627.26 385.514   6
  -3 -27  -4 5398.97 395.580   5
  -3 -27  -3 644.966 172.168   5
  -3  27  -3 730.465 153.586   6
  -3  27  -3 1017.83 169.614   3
  -3  27  -2 3721.43 298.879   3
  -3  27  -2 3606.03 303.019   6
  -3  27  -1 3190.56 276.228   3
  -3  27  -1 3207.27 284.441   6
  -3  27   0 92.1945 110.574   6
  -3  27   1 649.603 161.591   6
  -3  27   2 2076.50 258.577   6
  -3  28  -6 496.744 157.742   6
  -3  28  -5 1740.36 231.560   6
  -3 -28  -4 486.391 165.684   5
  -3  28  -4 469.217 150.752   6
  -3  28  -4 515.546 144.588   3
  -3  28  -3 4990.15 360.597   3
  -3 -28  -3 5105.82 389.093   5
  -3  28  -3 4932.20 357.127   6
  -3  28  -2 1821.69 222.744   3
  -3  28  -2 1424.70 206.409   6
  -3  28  -1 2055.67 238.903   6
  -3  28  -1 1748.65 216.997   3
  -3  28   0 3666.93 314.159   6
  -3  28   1 2407.52 264.674   6
  -3  28   2 570.154 172.394   6
  -3  29  -5 2329.19 284.594   6
  -3  29  -4 5026.18 387.664   6
  -3  29  -4 4734.74 365.733   3
  -3  29  -3 6336.00 401.911   3
  -3  29  -3 6414.91 422.966   6
  -3 -29  -3 6954.85 461.228   5
  -3  29  -2 838.822 184.355   6
  -3  29  -2 954.115 175.493   3
  -3  29  -1 8334.15 443.369   3
  -3  29  -1 8221.08 465.403   6
  -3  29   0 5474.51 389.779   6
  -3  29   1 5991.48 409.355   6
  -3  29   2 2234.93 259.837   6
  -3  30  -4 1428.73 223.304   6
  -3  30  -3 1069.19 207.984   6
  -3 -30  -2 15990.2 690.308   5
  -3  30  -2 14760.2 637.739   6
  -3  30  -1 1243.29 217.498   6
  -3  30   0 10836.6 544.539   6
  -3  30   1 4526.58 367.409   6
  -3  30   2 2295.14 273.881   6
  -3  31  -3 2779.48 300.496   6
  -3  31  -2 611.151 185.412   6
  -3  31  -1 8133.47 486.983   6
  -3  31   0 27.0860 136.961   6
  -3  31   1 3622.83 333.413   6
  -3  31   2 5084.43 410.218   6
  -3  32  -2 586.592 170.277   6
  -3  32  -1 398.949 161.050   6
  -3  32   0 2686.83 307.573   6
  -3  32   1 475.986 177.440   6
  -3  32   2 716.794 194.648   6
  -2   0 -11-0.16065 107.569   5
  -2   0 -10 9195.87 475.895   5
  -2   0  -9 85.3799 101.048   5
  -2   0  -8 8210.25 395.095   5
  -2   0  -7 251.648 108.476   5
  -2   0  -6 77334.5 1006.31   5
  -2   0  -5 129.858 68.8429   5
  -2   0  -3 10.9985 44.0122   5
  -2   0  -3 37.9501 46.9459   3
  -2   0  -2 4764.43 161.773   5
  -2   0  -2 4428.79 165.549   3
  -2   0  -1 6.83562 30.9140   5
  -2   0  -1 29.3985 29.1656   3
  -2   0  -1 32.0278 32.1729   2
  -2   0   0 228810. 869.322   4
  -2   0   0 228973. 672.803   5
  -2   0   1 28.9525 25.9702   4
  -2   0   1-15.0484 29.0230   1
  -2   0   2 880955. 1831.15   1
  -2   0   2 900260. 1531.61   5
  -2   0   3 182.262 39.5051   5
  -2   0   4 69001.1 647.920   5
  -2   0   5 103.795 54.1326   5
  -2   0   6 67725.6 824.653   5
  -2   1 -11 129.308 136.234   5
  -2  -1 -11 80.7783 114.619   5
  -2  -1 -10 29087.2 832.785   5
  -2   1 -10 27396.2 816.058   5
  -2   1  -9 9274.33 449.607   5
  -2  -1  -9 9524.11 453.181   5
  -2   1  -8 444.291 112.666   5
  -2  -1  -8 436.063 110.306   5
  -2  -1  -7 127070. 1406.03   5
  -2   1  -7 129053. 1418.58   5
  -2   1  -6 2.12742 64.9717   5
  -2  -1  -6 64.7747 66.4337   5
  -2   1  -5 58781.7 802.313   5
  -2  -1  -5 58701.4 812.457   5
  -2   1  -4 4003.90 195.289   5
  -2  -1  -4 4203.36 200.579   5
  -2   1  -3 42541.9 549.635   5
  -2  -1  -3 42537.4 560.299   5
  -2   1  -3 41770.4 576.756   3
  -2  -1  -2 62129.3 585.200   3
  -2   1  -2 62530.9 568.791   5
  -2  -1  -2 61666.8 581.771   5
  -2   1  -2 61146.9 628.639   2
  -2   1  -2 62973.1 628.561   3
  -2   1  -1 1516.30 91.7073   2
  -2   1  -1 1704.67 80.0458   5
  -2   1  -1 1535.18 88.6647   3
  -2  -1  -1 1554.05 88.1871   2
  -2  -1  -1 1631.14 80.0663   3
  -2  -1  -1 1814.31 87.6454   5
  -2  -1  -1 1560.72 73.2263   6
  -2   1   0 7906.42 114.100   5
  -2  -1   0 8342.92 125.003   6
  -2   1   0 8262.37 165.147   4
  -2  -1   0 8199.43 159.533   2
  -2   1   1 381004. 1102.42   1
  -2   1   1 382483. 1081.14   4
  -2  -1   1 375871. 981.952   4
  -2  -1   1 383451. 921.872   6
  -2   1   2 68376.5 397.222   5
  -2   1   2 69638.5 528.993   1
  -2  -1   2 68187.4 452.804   5
  -2  -1   2 68843.7 502.991   1
  -2  -1   3 26367.5 345.994   5
  -2   1   3 27024.3 333.687   5
  -2   1   4 112178. 814.382   5
  -2  -1   4 112839. 843.850   5
  -2  -1   5 171179. 1185.99   5
  -2   1   5 167346. 1160.46   5
  -2  -1   6 32225.9 574.595   5
  -2   1   6 32817.3 578.412   5
  -2  -2 -11 30558.9 915.189   5
  -2   2 -11 31731.5 928.971   5
  -2   2 -10 86.1474 126.268   5
  -2  -2 -10 141.837 125.565   5
  -2  -2  -9 20512.6 660.694   5
  -2   2  -9 20616.5 660.644   5
  -2   2  -8 3276.58 253.710   5
  -2  -2  -8 3099.72 249.245   5
  -2   2  -7 32667.9 713.463   5
  -2  -2  -7 32141.5 709.881   5
  -2   2  -6 4398.93 251.236   5
  -2  -2  -6 4441.64 250.251   5
  -2   2  -5 8758.35 315.000   5
  -2  -2  -5 8314.80 311.645   5
  -2   2  -4 23705.6 464.771   5
  -2  -2  -4 24169.6 482.511   5
  -2   2  -4 23586.5 491.697   3
  -2   2  -3 16436.1 338.653   5
  -2  -2  -3 16407.2 350.681   5
  -2   2  -3 15844.3 362.628   3
  -2   2  -2 401.843 58.3817   5
  -2  -2  -2 390.825 62.8528   5
  -2   2  -2 442.011 70.3620   3
  -2  -2  -2 437.599 58.2552   3
  -2   2  -2 347.617 62.2921   2
  -2   2  -1 18109.9 243.891   5
  -2   2  -1 18743.1 305.248   2
  -2  -2  -1 17758.8 281.061   2
  -2  -2  -1 18274.3 278.248   5
  -2  -2  -1 18509.2 255.081   3
  -2  -2  -1 17866.8 246.889   6
  -2   2   0 67755.5 307.375   5
  -2  -2   0 67657.4 433.153   2
  -2  -2   0 67174.9 413.764   6
  -2   2   0 67936.1 484.155   4
  -2   2   0 68176.3 429.169   1
  -2  -2   1 499526. 1088.55   4
  -2   2   1 495941. 1275.21   1
  -2  -2   1 490820. 1174.23   6
  -2   2   1 492489. 1284.71   4
  -2  -2   2 511287. 1119.88   4
  -2   2   2 524619. 1069.54   5
  -2  -2   2 515876. 1362.52   1
  -2  -2   2 522374. 1352.51   5
  -2  -2   3 245143. 1025.95   1
  -2   2   3 246885. 1007.20   5
  -2  -2   3 250474. 1098.06   5
  -2  -2   4 4186.96 169.936   5
  -2   2   4 4113.04 160.624   5
  -2  -2   5 22318.0 431.303   5
  -2   2   5 22180.3 423.675   5
  -2  -2   6 412.500 85.5405   5
  -2   2   6 185.854 63.4775   5
  -2   3 -11 1971.52 257.660   5
  -2  -3 -11 2385.36 275.805   5
  -2  -3 -10 21925.7 732.738   5
  -2   3 -10 21667.8 724.921   5
  -2  -3  -9 5874.43 362.031   5
  -2   3  -9 6240.63 371.390   5
  -2  -3  -8 7950.93 387.866   5
  -2   3  -8 7431.27 377.697   5
  -2   3  -7 124.641 79.8499   5
  -2  -3  -7 124.189 82.0411   5
  -2   3  -6 5616.24 279.132   5
  -2  -3  -6 5263.51 275.985   5
  -2   3  -5 88.3707 65.4392   5
  -2  -3  -5 156.864 69.5119   5
  -2   3  -4 903.425 101.582   5
  -2  -3  -4 1236.94 118.993   5
  -2   3  -4 945.772 110.079   3
  -2   3  -3 70458.3 708.213   5
  -2  -3  -3 70406.1 742.882   5
  -2   3  -3 69589.3 774.537   3
  -2   3  -2 12291.4 253.167   5
  -2  -3  -2 12853.7 275.930   6
  -2   3  -2 12318.6 286.967   2
  -2   3  -2 12403.0 294.339   3
  -2  -3  -2 12011.8 272.686   5
  -2   3  -1 17415.5 238.642   5
  -2  -3  -1 16711.4 280.883   5
  -2  -3  -1 16574.5 264.161   6
  -2  -3  -1 16745.6 229.337   3
  -2   3  -1 17065.1 294.580   2
  -2   3  -1 16808.5 193.481   6
  -2   3  -1 17382.7 271.223   4
  -2  -3   0 254269. 821.255   2
  -2   3   0 251464. 829.353   1
  -2  -3   0 250123. 893.534   6
  -2   3   0 255993. 951.834   4
  -2   3   0 250251. 617.825   5
  -2   3   1 316580. 1083.37   4
  -2   3   1 311946. 1054.65   1
  -2  -3   1 317964. 1036.09   6
  -2  -3   1 320701. 852.423   4
  -2  -3   2 303496. 1047.41   1
  -2  -3   2 299665. 788.220   4
  -2   3   2 302394. 809.654   5
  -2   3   3 20564.2 290.094   5
  -2  -3   3 20532.1 293.467   1
  -2  -3   3 20763.4 331.138   5
  -2  -3   4 235920. 1267.86   5
  -2   3   4 233495. 1177.37   5
  -2  -3   5 1568.33 121.566   5
  -2   3   5 1613.76 118.923   5
  -2  -3   6 17318.8 433.118   5
  -2   3   6 17393.8 418.640   5
  -2  -4 -11 5718.45 410.180   5
  -2   4 -11 5232.72 386.629   5
  -2  -4 -10 3998.55 323.254   5
  -2   4 -10 4317.06 339.213   5
  -2   4  -9 366.198 125.120   5
  -2  -4  -9 339.549 116.422   5
  -2  -4  -8 28364.8 728.851   5
  -2   4  -8 29080.4 735.952   5
  -2  -4  -7 14679.0 490.730   5
  -2   4  -7 15536.4 498.128   5
  -2   4  -6 84432.7 1065.92   5
  -2  -4  -6 82589.8 1067.53   5
  -2   4  -5 3443.73 201.681   5
  -2  -4  -5 3552.17 215.146   5
  -2   4  -4 91921.4 916.345   5
  -2  -4  -4 89548.3 940.374   5
  -2   4  -4 87316.1 970.881   3
  -2   4  -3 14530.6 325.847   5
  -2  -4  -3 15137.5 351.086   5
  -2   4  -3 14303.9 364.463   3
  -2  -4  -3 14985.1 343.080   6
  -2   4  -2 8010.37 238.206   2
  -2   4  -2 7785.43 240.458   3
  -2  -4  -2 8050.17 229.945   5
  -2  -4  -2 7858.40 221.246   6
  -2   4  -2 7947.48 206.171   5
  -2   4  -1 52311.9 369.529   6
  -2  -4  -1 52835.1 519.516   5
  -2  -4  -1 52413.7 499.793   6
  -2   4  -1 52524.0 472.560   4
  -2   4  -1 52822.5 527.769   2
  -2   4  -1 52360.3 345.139   1
  -2  -4   0 182381. 675.407   2
  -2   4   0 178756. 569.177   6
  -2   4   0 180572. 709.880   1
  -2   4   0 178681. 812.311   4
  -2  -4   0 178215. 834.942   6
  -2   4   1 65186.9 516.326   4
  -2  -4   1 65633.3 384.514   4
  -2  -4   1 66014.3 514.851   6
  -2  -4   2 5162.53 96.5283   4
  -2   4   2 5122.99 110.475   5
  -2  -4   2 5271.48 165.999   6
  -2   4   3 5467.95 152.423   5
  -2  -4   3 5234.87 148.271   1
  -2  -4   3 5396.27 178.041   5
  -2   4   4 53562.9 568.068   5
  -2  -4   4 53909.3 625.829   5
  -2  -4   5 4293.44 199.468   5
  -2   4   5 4161.34 185.988   5
  -2   4   6 21184.7 465.871   5
  -2  -5 -11 6898.14 444.641   5
  -2   5 -11 7377.33 463.314   5
  -2   5 -10 2011.34 235.329   5
  -2  -5 -10 2098.07 249.378   5
  -2  -5  -9 7590.26 413.896   5
  -2   5  -9 7582.69 408.098   5
  -2   5  -8 1614.31 192.706   5
  -2  -5  -8 1730.53 202.138   5
  -2   5  -7 1864.15 186.388   5
  -2  -5  -7 2118.54 198.730   5
  -2  -5  -6 27323.9 626.780   5
  -2   5  -6 26525.5 603.570   5
  -2  -5  -5 79148.2 981.303   5
  -2   5  -5 79444.5 1023.56   3
  -2   5  -5 80176.8 956.183   5
  -2  -5  -4 8754.86 304.872   5
  -2  -5  -4 9517.93 311.626   6
  -2   5  -4 8677.04 314.852   3
  -2   5  -4 8862.04 289.239   5
  -2  -5  -3 335471. 1687.31   5
  -2   5  -3 337595. 1777.72   3
  -2   5  -3 325943. 1684.36   2
  -2  -5  -3 338563. 1669.74   6
  -2   5  -3 331721. 1555.20   5
  -2   5  -2 39714.8 525.529   2
  -2   5  -2 39646.3 548.658   3
  -2  -5  -2 39577.4 523.633   5
  -2  -5  -2 39509.1 509.660   6
  -2   5  -2 40233.8 423.684   6
  -2   5  -2 39987.2 453.640   4
  -2   5  -2 39532.6 469.887   5
  -2   5  -1 84401.5 607.837   4
  -2   5  -1 83506.5 430.806   1
  -2   5  -1 82562.1 564.421   5
  -2   5  -1 83540.3 670.843   2
  -2  -5   0 2715.68 81.5436   2
  -2   5   0 3680.02 111.121   6
  -2  -5   0 2825.15 129.226   6
  -2   5   0 2717.28 107.372   4
  -2   5   1 4108.84 137.576   4
  -2  -5   1 4265.63 144.549   6
  -2   5   1 4456.28 124.986   6
  -2  -5   2 7388.73 104.669   4
  -2  -5   2 7550.12 208.662   6
  -2  -5   3 1849.25 90.7115   1
  -2   5   3 1898.82 94.3989   5
  -2  -5   3 1768.53 112.667   5
  -2  -5   4 3318.75 128.246   1
  -2   5   4 3372.68 145.083   5
  -2  -5   4 3148.81 161.651   5
  -2  -5   5 15015.2 373.656   5
  -2   5   5 15353.1 354.216   5
  -2  -5   5 14993.9 380.830   3
  -2   5   6 8200.70 291.225   5
  -2  -6 -11 2994.23 304.325   5
  -2   6 -11 2802.52 300.836   5
  -2  -6 -10 1239.00 200.519   5
  -2   6 -10 1187.97 199.765   5
  -2   6  -9-57.5899 89.9969   5
  -2  -6  -9-55.3047 94.0715   5
  -2  -6  -8 37571.6 850.647   5
  -2   6  -8 37964.5 841.991   5
  -2  -6  -7 5086.32 298.685   5
  -2   6  -7 5354.02 300.726   5
  -2  -6  -6 44390.1 803.667   5
  -2   6  -6 44701.7 782.066   5
  -2  -6  -5 5390.68 261.847   5
  -2   6  -5 5165.07 267.974   3
  -2   6  -5 5569.59 258.266   5
  -2   6  -4 397.533 77.2377   5
  -2  -6  -4 456.176 88.3731   5
  -2  -6  -4 309.823 75.3261   6
  -2   6  -4 456.208 92.4319   3
  -2   6  -3 35576.7 480.927   6
  -2  -6  -3 35562.4 562.228   5
  -2   6  -3 35430.9 584.839   3
  -2   6  -3 36688.3 568.086   2
  -2  -6  -3 35822.9 557.868   6
  -2   6  -3 35577.4 524.571   5
  -2   6  -2 1571.91 112.849   2
  -2   6  -2 1655.99 123.648   3
  -2   6  -2 1516.97 53.3122   1
  -2   6  -2 1536.48 93.6815   4
  -2  -6  -2 1477.10 110.867   6
  -2   6  -2 1792.66 97.9326   6
  -2  -6  -2 1625.42 117.725   5
  -2   6  -2 1507.41 100.351   5
  -2   6  -1 100651. 665.129   4
  -2  -6  -1 97863.9 771.920   6
  -2   6  -1 99223.6 744.134   2
  -2   6  -1 97940.0 603.858   6
  -2  -6   0 413647. 1495.62   6
  -2   6   0 407669. 1165.05   6
  -2   6   0 410988. 1332.09   4
  -2  -6   1 275.446 55.3229   6
  -2   6   1 288.178 46.4348   6
  -2  -6   2 47428.3 395.511   3
  -2  -6   2 48602.8 541.824   6
  -2  -6   2 44592.8 230.053   4
  -2  -6   3 8021.79 181.805   1
  -2  -6   3 7839.16 206.692   3
  -2   6   3 8208.77 193.415   5
  -2  -6   3 8017.69 238.094   5
  -2  -6   4 174.806 44.7739   1
  -2  -6   4 126.339 48.8343   3
  -2   6   4 132.136 49.2086   5
  -2  -6   4 207.014 66.9249   5
  -2   6   5 42689.0 592.129   5
  -2  -6   5 43250.1 643.611   3
  -2  -6   5 43248.9 648.562   5
  -2   6   6 19815.9 453.227   5
  -2   7 -12 10840.6 570.098   6
  -2  -7 -11 766.051 187.201   5
  -2   7 -11 513.126 165.277   5
  -2  -7 -10 15995.2 631.938   5
  -2   7 -10 16411.5 644.667   5
  -2  -7  -9 793.955 162.207   5
  -2   7  -9 823.585 145.693   5
  -2  -7  -8 8166.53 406.139   5
  -2   7  -8 8314.67 403.963   5
  -2  -7  -7 9878.23 418.048   5
  -2   7  -7 10076.2 415.842   5
  -2  -7  -6 118.312 82.4482   5
  -2   7  -6 43.5814 67.0448   5
  -2  -7  -5 161.852 79.5221   5
  -2   7  -5 171.021 79.1529   3
  -2   7  -5 149.224 56.6434   5
  -2  -7  -4 13446.0 386.544   5
  -2   7  -4 13270.0 398.049   3
  -2   7  -4 13385.5 338.018   6
  -2   7  -4 13122.1 361.975   5
  -2  -7  -4 13287.0 385.326   6
  -2   7  -3 11385.6 340.527   3
  -2  -7  -3 11956.8 336.702   5
  -2   7  -3 11595.8 323.136   2
  -2  -7  -3 11897.8 334.413   6
  -2   7  -3 11409.7 267.982   4
  -2   7  -3 11793.2 286.397   6
  -2   7  -3 11551.1 303.484   5
  -2   7  -2 106926. 745.402   4
  -2   7  -2 106508. 880.736   2
  -2   7  -2 107563. 950.751   3
  -2  -7  -2 104170. 907.005   5
  -2   7  -2 103354. 743.915   6
  -2  -7  -2 104287. 904.292   6
  -2   7  -2 105735. 797.917   5
  -2  -7  -1 9670.01 262.634   6
  -2   7  -1 9664.55 208.577   6
  -2   7  -1 9827.62 211.524   4
  -2   7  -1 9645.56 238.742   2
  -2   7   0 103438. 656.055   6
  -2  -7   0 105430. 809.256   6
  -2  -7   1 20980.2 359.252   6
  -2   7   1 20515.1 305.921   6
  -2  -7   2 21278.9 271.086   3
  -2  -7   2 21870.7 383.222   6
  -2  -7   3 4117.72 151.382   3
  -2  -7   3 4293.22 184.307   6
  -2  -7   3 4299.98 179.799   5
  -2  -7   3 4100.31 132.671   1
  -2   7   4 200813. 1155.42   5
  -2  -7   4 207111. 1251.99   3
  -2  -7   4 202139. 937.515   1
  -2  -7   4 210742. 1338.12   5
  -2  -7   5 1379.08 127.487   3
  -2   7   5 1417.30 113.186   5
  -2  -7   5 1579.77 133.241   5
  -2   7   6 22360.1 485.142   5
  -2   8 -12 631.176 179.362   6
  -2  -8 -11 13757.3 631.247   5
  -2   8 -11 12986.2 587.792   6
  -2   8 -11 14133.0 640.541   5
  -2  -8 -10 11578.8 546.130   5
  -2   8 -10 11079.2 509.699   6
  -2   8 -10 11301.0 539.372   5
  -2   8  -9 13467.5 549.798   5
  -2  -8  -9 13637.6 559.371   5
  -2   8  -9 14202.0 536.902   6
  -2  -8  -8 9131.19 431.147   5
  -2   8  -8 9011.87 401.829   6
  -2   8  -8 9209.42 428.483   5
  -2  -8  -7 17393.2 556.896   5
  -2   8  -7 17226.7 266.453   1
  -2   8  -7 16895.2 506.794   6
  -2   8  -7 17148.8 540.189   5
  -2   8  -6 181.814 85.5846   3
  -2  -8  -6 342.717 106.255   5
  -2   8  -6 126.285 63.4235   6
  -2   8  -6 187.757 79.6069   5
  -2   8  -5 7292.85 301.661   5
  -2  -8  -5 7085.71 309.696   5
  -2   8  -5 6860.49 315.897   3
  -2   8  -5 7284.11 283.325   6
  -2  -8  -4 7577.88 299.049   5
  -2  -8  -4 7849.20 308.682   6
  -2   8  -4 7696.02 315.956   3
  -2   8  -4 8058.25 242.174   4
  -2   8  -4 7932.62 266.506   6
  -2   8  -4 7824.27 286.589   5
  -2  -8  -3 768.085 103.946   6
  -2   8  -3 589.453 93.0555   3
  -2   8  -3 687.087 70.5839   4
  -2  -8  -3 625.603 90.7141   5
  -2   8  -3 582.872 72.7342   6
  -2   8  -3 624.616 88.9444   2
  -2   8  -3 648.562 87.1681   5
  -2   8  -2 12690.8 311.032   2
  -2   8  -2 13188.0 343.360   3
  -2  -8  -2 12550.5 332.802   6
  -2  -8  -2 12344.3 326.500   5
  -2   8  -2 12706.7 277.076   6
  -2   8  -2 12862.8 257.424   4
  -2  -8  -1 23825.0 429.254   6
  -2   8  -1 25061.5 345.829   4
  -2   8  -1 24705.0 352.778   6
  -2   8  -1 24588.4 389.367   2
  -2   8   0 18232.0 303.206   4
  -2   8   0 18029.5 298.374   6
  -2  -8   0 17835.1 354.363   6
  -2   8   1 103732. 737.560   6
  -2  -8   1 101959. 833.910   6
  -2  -8   2 26678.6 305.809   3
  -2  -8   2 27508.1 453.059   6
  -2  -8   3 152602. 931.744   3
  -2  -8   3 156557. 1140.16   6
  -2  -8   4 8214.79 254.641   3
  -2  -8   4 7880.29 186.297   1
  -2  -8   4 7976.88 272.911   5
  -2   8   5 97205.5 914.433   5
  -2  -8   5 97460.4 988.590   3
  -2   8   6 2699.80 176.614   5
  -2   9 -12 1830.12 258.002   6
  -2  -9 -11 542.684 153.393   5
  -2   9 -11 730.853 185.880   5
  -2   9 -11 619.442 167.698   6
  -2  -9 -10 10000.4 511.862   5
  -2   9 -10 9538.59 481.344   6
  -2   9 -10 9650.89 502.563   5
  -2  -9  -9 21343.0 704.200   5
  -2   9  -9 21124.7 660.058   6
  -2   9  -9 20760.6 687.303   5
  -2  -9  -8 15531.0 560.991   5
  -2   9  -8 15453.2 527.963   6
  -2   9  -8 14484.9 543.658   5
  -2  -9  -7 10843.3 443.669   5
  -2   9  -7 10816.9 433.914   5
  -2   9  -7 9858.40 157.433   1
  -2   9  -7 10758.0 412.474   6
  -2  -9  -6 7521.98 346.614   5
  -2   9  -6 7614.80 366.157   3
  -2   9  -6 7584.33 320.833   6
  -2   9  -6 7348.49 333.900   5
  -2  -9  -5 913.454 126.052   5
  -2   9  -5 1043.17 102.110   4
  -2   9  -5 1057.19 142.246   3
  -2   9  -5 990.457 113.896   6
  -2   9  -5 1003.48 130.208   5
  -2  -9  -4 1635.39 148.383   5
  -2   9  -4 1704.64 114.265   4
  -2   9  -4 1837.54 158.452   3
  -2   9  -4 1737.67 136.082   6
  -2   9  -4 1838.87 150.545   5
  -2   9  -3 6237.27 197.079   4
  -2   9  -3 6245.64 260.409   3
  -2   9  -3 6316.62 245.957   2
  -2  -9  -3 6572.96 264.947   5
  -2  -9  -3 6654.09 270.675   6
  -2   9  -3 6541.16 227.895   6
  -2   9  -2 18529.5 378.004   2
  -2   9  -2 18930.7 421.706   3
  -2  -9  -2 18894.2 410.857   5
  -2  -9  -2 18976.8 423.933   6
  -2   9  -2 17962.4 344.204   6
  -2   9  -2 18345.0 313.917   4
  -2  -9  -1 5048.36 209.208   6
  -2   9  -1 5027.09 172.855   6
  -2   9  -1 5050.22 183.083   2
  -2   9  -1 5104.93 161.937   4
  -2   9   0 40073.8 461.815   4
  -2   9   0 40540.9 478.410   6
  -2  -9   0 39930.3 555.199   6
  -2  -9   1 14229.2 330.489   6
  -2   9   1 14827.8 301.467   6
  -2  -9   2 31998.6 508.213   6
  -2   9   2 31841.5 480.287   6
  -2  -9   3 8785.88 225.684   3
  -2  -9   3 9565.68 295.951   6
  -2  -9   4 77725.0 582.307   1
  -2  -9   4 77991.5 786.043   3
  -2  -9   4 80764.3 885.177   5
  -2  -9   5 10031.9 322.433   3
  -2   9   5 9733.95 297.687   5
  -2   9   6 19620.6 467.917   5
  -2 -10 -11 531.933 168.099   5
  -2  10 -11 464.067 155.033   5
  -2  10 -11 620.863 171.185   6
  -2 -10 -10 10256.0 529.446   5
  -2  10 -10 10450.4 500.843   6
  -2  10 -10 10806.6 535.020   5
  -2 -10  -9 2812.82 265.990   5
  -2  10  -9 2816.81 253.861   6
  -2  10  -9 3014.46 274.062   5
  -2 -10  -8 41796.6 929.942   5
  -2  10  -8 40990.7 862.558   6
  -2  10  -8 41444.9 917.611   5
  -2 -10  -7 1691.65 192.573   5
  -2  10  -7 1546.66 171.673   6
  -2  10  -7 1473.07 187.294   5
  -2 -10  -6 58216.5 964.649   5
  -2  10  -6 56049.3 742.147   4
  -2  10  -6 59355.1 1010.28   3
  -2  10  -6 57739.2 883.200   6
  -2  10  -6 58560.6 942.917   5
  -2 -10  -5 2388.22 195.293   5
  -2  10  -5 2407.78 145.894   4
  -2  10  -5 2296.33 174.270   6
  -2  10  -5 2225.60 190.707   3
  -2  10  -5 2495.65 191.501   5
  -2 -10  -4 82440.8 1007.83   5
  -2  10  -4 83549.1 1046.93   3
  -2  10  -4 81738.3 751.578   4
  -2  10  -4 80711.4 894.658   6
  -2  10  -4 81089.6 943.019   5
  -2  10  -3 17444.5 408.137   2
  -2  10  -3 17237.4 444.576   3
  -2 -10  -3 17642.6 445.844   6
  -2 -10  -3 17238.3 435.842   5
  -2  10  -3 17250.2 321.555   4
  -2  10  -3 17354.0 384.363   6
  -2  10  -2 140820. 1162.46   3
  -2 -10  -2 140975. 1193.37   6
  -2  10  -2 144152. 1019.44   6
  -2  10  -2 139764. 866.942   4
  -2  10  -1 12261.1 255.830   4
  -2 -10  -1 12470.6 340.606   6
  -2  10  -1 12596.7 288.139   6
  -2  10  -1 12013.8 287.901   2
  -2  10   0 50982.8 572.471   6
  -2 -10   0 50646.3 655.064   6
  -2 -10   1 15201.0 359.171   6
  -2  10   1 15055.1 321.100   6
  -2  10   2 654.535 84.9642   6
  -2 -10   2 519.881 74.5459   6
  -2 -10   3 2029.47 84.4477   2
  -2 -10   3 2059.46 112.539   3
  -2 -10   3 2053.66 144.120   6
  -2 -10   4 2628.60 111.218   1
  -2 -10   4 2777.03 153.057   3
  -2 -10   4 2711.02 126.739   2
  -2 -10   4 2886.85 179.336   5
  -2 -10   5 8345.38 197.994   1
  -2 -10   5 7927.03 288.004   3
  -2 -11 -11 433.999 139.558   5
  -2  11 -11 398.844 165.682   5
  -2  11 -11 629.436 184.940   6
  -2 -11 -10 10075.3 523.549   5
  -2  11 -10 10414.7 504.804   6
  -2  11 -10 9515.48 505.291   5
  -2 -11  -9 10422.7 504.927   5
  -2  11  -9 10063.2 465.680   6
  -2  11  -9 10928.8 512.521   5
  -2 -11  -8 594.897 134.544   5
  -2  11  -8 684.067 135.803   6
  -2  11  -8 636.033 142.669   5
  -2 -11  -7 29564.3 751.445   5
  -2  11  -7 29079.7 687.030   6
  -2  11  -7 29602.4 728.759   5
  -2 -11  -6 1079.26 150.361   5
  -2  11  -6 1038.14 107.043   4
  -2  11  -6 1036.29 148.988   3
  -2  11  -6 1068.49 147.500   6
  -2  11  -6 1025.49 141.242   5
  -2 -11  -5 263.630 95.4977   5
  -2  11  -5 334.495 60.4182   4
  -2  11  -5 282.846 97.0409   3
  -2  11  -5 429.877 90.3717   6
  -2 -11  -4 20856.0 519.838   5
  -2  11  -4 20939.4 536.168   3
  -2  11  -4 20478.3 377.439   4
  -2  11  -4 20730.0 467.046   6
  -2  11  -3 56072.8 736.861   2
  -2  11  -3 57054.8 819.630   3
  -2 -11  -3 56341.3 802.932   5
  -2  11  -3 55584.2 710.538   6
  -2  11  -3 55285.1 576.893   4
  -2  11  -2 68299.6 742.358   2
  -2  11  -2 67212.5 821.438   3
  -2  11  -2 68066.0 736.625   6
  -2  11  -2 67997.2 615.050   4
  -2 -11  -2 67482.3 862.891   6
  -2  11  -1 175217. 994.131   4
  -2 -11  -1 173840. 1297.51   6
  -2  11  -1 170826. 1119.36   6
  -2  11  -1 171199. 1099.57   2
  -2 -11   0 75166.1 835.704   6
  -2  11   0 76603.9 747.546   6
  -2 -11   1 8776.37 288.530   6
  -2  11   1 8751.13 262.075   6
  -2  11   2 7643.76 262.470   6
  -2 -11   2 7861.97 276.823   6
  -2 -11   3 375.581 38.9949   2
  -2 -11   3 459.036 89.6832   6
  -2 -11   4 36366.8 407.193   1
  -2 -11   4 36065.6 443.986   2
  -2 -11   4 35844.2 543.159   3
  -2 -11   5 605.873 91.5204   3
  -2 -11   5 499.479 57.2472   1
  -2 -11   5 532.122 76.7271   2
  -2 -11   6 17479.4 422.309   2
  -2 -12 -11 4632.62 387.314   5
  -2  12 -11 3999.84 349.581   6
  -2 -12 -10 4526.50 361.410   5
  -2  12 -10 4336.52 340.963   6
  -2  12 -10 3883.46 332.514   5
  -2 -12  -9 10989.3 523.879   5
  -2  12  -9 10773.4 483.574   6
  -2  12  -9 10643.4 508.224   5
  -2 -12  -8 8925.84 446.882   5
  -2  12  -8 9280.10 427.404   6
  -2  12  -8 8601.54 431.731   5
  -2 -12  -7 6422.03 357.596   5
  -2  12  -7 6449.91 333.490   6
  -2  12  -7 6239.25 347.470   5
  -2 -12  -6 113.597 77.6345   5
  -2  12  -6 50.7391 44.0358   4
  -2  12  -6 119.202 91.7810   3
  -2  12  -6 61.2428 69.7160   6
  -2  12  -5 2265.59 138.689   4
  -2 -12  -5 2281.69 202.911   5
  -2  12  -5 2160.31 192.193   3
  -2  12  -5 2247.45 175.282   6
  -2 -12  -4 7037.19 313.519   5
  -2  12  -4 6803.57 317.907   3
  -2  12  -4 6711.62 276.341   6
  -2  12  -4 6697.82 214.433   4
  -2  12  -3 24987.4 497.169   2
  -2  12  -3 25008.1 555.102   3
  -2 -12  -3 24334.7 542.373   5
  -2  12  -3 24759.6 488.345   6
  -2  12  -3 24241.8 383.811   4
  -2  12  -2 64979.6 738.591   2
  -2  12  -2 65066.7 831.050   3
  -2  12  -2 65515.6 756.957   6
  -2  12  -2 65708.8 618.236   4
  -2  12  -1 12324.4 270.760   4
  -2  12  -1 12629.7 306.377   2
  -2  12  -1 12738.4 325.507   6
  -2 -12  -1 13049.7 374.793   6
  -2  12   0 22600.6 431.028   6
  -2 -12   0 23475.2 487.664   6
  -2 -12   1 53298.1 728.950   6
  -2  12   1 52006.7 664.980   6
  -2 -12   2 12468.1 361.100   6
  -2  12   2 12210.4 337.606   6
  -2 -12   4 16043.9 276.795   1
  -2 -12   4 15574.8 285.763   2
  -2 -12   4 15957.7 367.494   3
  -2 -12   5 109658. 913.722   2
  -2 -12   5 108681. 1079.08   3
  -2 -12   5 108625. 690.662   1
  -2 -12   6 10418.7 323.888   2
  -2  13 -11 179.176 153.058   6
  -2 -13 -10 12636.8 594.150   5
  -2  13 -10 12693.7 572.597   6
  -2 -13  -9 6445.91 408.994   5
  -2  13  -9 5868.45 371.549   6
  -2 -13  -8 3308.09 280.907   5
  -2  13  -8 3702.30 279.602   6
  -2 -13  -7 38462.2 873.321   5
  -2  13  -7 39409.4 825.603   6
  -2 -13  -6 3841.50 271.224   5
  -2  13  -6 3621.87 267.077   3
  -2  13  -6 3782.84 188.724   4
  -2  13  -6 3960.30 255.613   6
  -2 -13  -5 15885.1 503.716   5
  -2  13  -5 15704.1 509.790   3
  -2  13  -5 15489.7 344.106   4
  -2  13  -5 15294.1 451.703   6
  -2 -13  -4 1281.28 151.562   5
  -2  13  -4 1169.30 92.8618   4
  -2  13  -4 1012.79 134.652   3
  -2  13  -4 1233.69 132.660   6
  -2  13  -3 10174.9 322.895   2
  -2  13  -3 10614.7 370.610   3
  -2 -13  -3 10367.8 364.200   5
  -2  13  -3 10498.4 336.194   6
  -2  13  -3 10132.6 250.987   4
  -2  13  -2 6766.08 201.962   4
  -2  13  -2 6848.16 246.039   2
  -2  13  -2 6939.70 281.523   3
  -2  13  -2 6748.45 257.882   6
  -2  13  -1 17049.0 389.252   6
  -2  13  -1 17290.6 365.502   2
  -2 -13   0 17691.3 440.021   6
  -2  13   0 16975.2 392.521   6
  -2  13   1 9222.19 295.725   6
  -2 -13   1 8310.02 303.053   6
  -2 -13   2 49703.7 299.373   4
  -2  13   2 54787.0 744.250   6
  -2 -13   4 110788. 725.336   2
  -2 -13   5 3982.11 176.588   2
  -2 -13   5 3968.24 210.909   3
  -2 -13   5 3893.76 133.417   1
  -2 -13   6 99990.3 993.031   2
  -2  14 -11 836.406 185.444   6
  -2 -14 -10 461.793 153.646   5
  -2  14 -10 568.633 162.556   6
  -2 -14  -9 1124.92 202.156   5
  -2  14  -9 1078.28 178.341   6
  -2 -14  -8 16210.5 614.439   5
  -2  14  -8 15925.4 570.649   6
  -2 -14  -7 365.336 137.134   5
  -2  14  -7 550.737 136.307   6
  -2 -14  -6 53728.1 992.761   5
  -2  14  -6 54601.4 1012.49   3
  -2  14  -6 52476.2 666.039   4
  -2  14  -6 53739.3 914.004   6
  -2 -14  -5 1746.17 181.544   5
  -2  14  -5 1743.56 182.197   3
  -2  14  -5 1755.55 163.246   6
  -2  14  -5 1632.44 114.075   4
  -2  14  -4 10042.1 392.180   3
  -2 -14  -4 9640.11 379.043   5
  -2  14  -4 9899.09 352.000   6
  -2  14  -4 9941.13 258.477   4
  -2  14  -3 7047.22 271.422   2
  -2  14  -3 7073.53 310.805   3
  -2 -14  -3 7163.55 313.565   5
  -2  14  -3 6578.59 275.606   6
  -2  14  -3 6925.47 210.534   4
  -2  14  -2 40827.8 603.140   2
  -2  14  -2 40546.1 505.618   4
  -2  14  -2 40846.4 688.937   3
  -2  14  -2 40892.2 646.209   6
  -2  14  -1 76193.1 864.051   6
  -2  14  -1 76624.5 779.684   2
  -2  14   0 21971.9 465.702   6
  -2  14   1 2862.02 178.259   6
  -2 -14   2 4485.64 97.4438   4
  -2  14   2 6104.98 275.980   6
  -2 -14   4 2828.66 113.849   2
  -2 -14   5 23312.0 404.518   2
  -2 -14   5 23043.1 319.041   1
  -2 -14   6 4922.63 221.868   2
  -2 -14   7 579.326 102.181   2
  -2  15 -11 1805.31 250.521   6
  -2 -15 -10 858.369 181.731   5
  -2  15 -10 729.245 170.712   6
  -2 -15  -9 18778.6 706.665   5
  -2  15  -9 18268.4 656.485   6
  -2 -15  -8 56.2858 94.0076   5
  -2  15  -8 84.2361 103.262   6
  -2 -15  -7 23882.6 713.066   5
  -2  15  -7 23661.4 658.258   6
  -2 -15  -6 17.3315 78.2683   5
  -2  15  -6 203.497 94.9620   6
  -2  15  -6-5.73673 82.6421   3
  -2 -15  -5 35632.6 784.920   5
  -2  15  -5 34787.4 780.957   3
  -2  15  -5 35457.9 716.467   6
  -2  15  -5 34579.2 497.726   4
  -2  15  -4 8842.31 244.454   4
  -2  15  -4 9171.91 384.236   3
  -2 -15  -4 9689.34 392.088   5
  -2  15  -4 8980.97 348.821   6
  -2  15  -3 30693.8 442.668   4
  -2  15  -3 31430.5 576.009   2
  -2  15  -3 31623.8 661.329   3
  -2 -15  -3 30035.7 652.391   5
  -2  15  -3 31014.8 612.212   6
  -2  15  -2 340.888 91.6593   3
  -2  15  -2 464.150 84.7678   2
  -2  15  -2 302.702 83.9145   6
  -2  15  -1 44061.7 683.851   6
  -2  15  -1 42892.5 592.813   2
  -2  15   0 4357.18 223.464   6
  -2  15   1 698.603 124.462   6
  -2 -15   2 5234.28 111.238   4
  -2  15   2 5823.50 270.336   6
  -2 -15   5 21706.6 311.411   1
  -2 -15   5 21777.8 380.056   2
  -2 -15   6 6331.00 245.170   2
  -2  16 -11 7873.89 492.775   6
  -2 -16 -10 1859.57 257.307   5
  -2  16 -10 1765.93 240.890   6
  -2 -16  -9 8146.88 478.430   5
  -2  16  -9 8247.44 450.988   6
  -2 -16  -8 7636.68 432.311   5
  -2  16  -8 7556.23 410.294   6
  -2 -16  -7 6753.70 389.428   5
  -2  16  -7 6087.86 344.204   6
  -2 -16  -6 1273.63 176.737   5
  -2  16  -6 1576.32 175.154   6
  -2  16  -6 1382.37 178.478   3
  -2  16  -5 411.154 71.9816   4
  -2  16  -5 338.875 99.1206   3
  -2  16  -5 369.460 102.933   6
  -2 -16  -5 426.457 108.574   5
  -2  16  -4 30164.7 448.454   4
  -2  16  -4 30032.9 696.787   3
  -2  16  -4 31064.0 658.160   6
  -2 -16  -4 30705.8 705.871   5
  -2  16  -3 12400.3 285.423   4
  -2  16  -3 12737.1 373.249   2
  -2  16  -3 12745.9 430.071   3
  -2 -16  -3 12996.9 440.987   5
  -2  16  -3 12696.8 403.338   6
  -2  16  -2 51948.3 700.183   2
  -2  16  -2 50698.2 803.382   3
  -2  16  -2 52027.9 787.285   6
  -2  16  -1 49451.5 757.241   6
  -2  16  -1 48587.5 644.235   2
  -2  16   0 18515.2 463.632   6
  -2  16   1 102812. 1105.15   6
  -2  16   2 1330.74 149.770   6
  -2 -16   2 1043.24 55.0448   4
  -2  16   3 10106.4 375.392   6
  -2 -16   5 5097.82 153.153   1
  -2 -16   5 5098.01 179.836   2
  -2 -16   6 627.116 85.0526   2
  -2  17 -10 3914.15 338.088   6
  -2 -17 -10 4295.16 371.693   5
  -2 -17  -9 10073.0 533.362   5
  -2  17  -9 9206.84 482.646   6
  -2 -17  -8 3362.00 303.907   5
  -2  17  -8 3292.11 280.885   6
  -2 -17  -7-51.9238 110.632   5
  -2  17  -7 105.092 87.3535   6
  -2  17  -7 96.2457 87.8806   3
  -2  17  -6 820.973 139.098   6
  -2 -17  -6 821.050 148.605   5
  -2  17  -6 962.270 159.063   3
  -2 -17  -5 1876.31 200.786   5
  -2  17  -5 1921.05 191.592   6
  -2  17  -5 1914.59 201.143   3
  -2  17  -4 7361.61 332.820   6
  -2  17  -4 7492.07 225.262   4
  -2  17  -4 7287.40 352.206   3
  -2 -17  -4 7744.90 366.743   5
  -2  17  -3 7857.20 296.045   2
  -2  17  -3 8036.76 350.900   3
  -2  17  -3 7936.24 329.982   6
  -2 -17  -3 7546.01 346.475   5
  -2  17  -2 32499.4 566.286   2
  -2  17  -2 31261.1 647.197   3
  -2  17  -2 32036.6 642.461   6
  -2  17  -1 4612.86 248.018   6
  -2  17  -1 4532.72 204.430   2
  -2  17   0 62919.5 885.721   6
  -2  17   1 8582.38 343.433   6
  -2  17   2 50808.4 827.708   6
  -2 -17   2 48606.5 373.241   4
  -2  17   3 2922.14 216.265   6
  -2 -17   5 6005.87 167.972   1
  -2  18 -10 102.810 117.349   6
  -2 -18  -9 5151.81 401.217   5
  -2  18  -9 4580.40 352.243   6
  -2 -18  -8 2644.62 280.070   5
  -2  18  -8 3066.21 278.031   6
  -2 -18  -7 141.958 109.173   5
  -2  18  -7-113.218 99.3612   6
  -2  18  -7 94.2347 95.8464   3
  -2 -18  -6 23867.3 712.726   5
  -2  18  -6 24282.9 674.303   6
  -2  18  -6 24185.5 713.002   3
  -2 -18  -5 5008.20 314.511   5
  -2  18  -5 4700.74 310.364   3
  -2  18  -5 5365.76 311.397   6
  -2  18  -4 2260.57 210.409   3
  -2 -18  -4 2115.98 206.989   5
  -2  18  -4 1939.98 182.879   6
  -2  18  -3 2072.91 161.163   2
  -2  18  -3 1818.55 181.957   3
  -2  18  -3 1755.21 169.164   6
  -2 -18  -3 1925.29 191.243   5
  -2  18  -2 3288.81 186.898   2
  -2  18  -2 3419.61 226.725   3
  -2  18  -2 3261.47 219.118   6
  -2  18  -1 11496.1 398.820   6
  -2  18  -1 11364.9 325.407   2
  -2  18   0 17527.9 490.450   6
  -2  18   1 22359.9 559.318   6
  -2  18   2 802.044 131.054   6
  -2 -18   2 759.336 51.3380   4
  -2  18   3 65697.7 1017.52   6
  -2 -18   5 10639.3 226.112   1
  -2  19 -10 171.225 147.924   6
  -2 -19  -9 6728.55 449.529   5
  -2  19  -9 5903.23 401.503   6
  -2 -19  -8 183.897 130.267   5
  -2  19  -8 75.5969 102.297   6
  -2 -19  -7 24307.8 762.198   5
  -2  19  -7 24768.5 777.325   3
  -2  19  -7 23920.8 718.412   6
  -2 -19  -6 1591.52 207.476   5
  -2  19  -6 1525.32 202.206   3
  -2  19  -6 1254.83 174.194   6
  -2 -19  -5 28065.4 756.136   5
  -2  19  -5 28369.8 745.992   3
  -2  19  -5 27866.4 706.842   6
  -2 -19  -4 974.427 160.543   5
  -2  19  -4 995.038 153.873   3
  -2  19  -4 1261.61 167.125   6
  -2  19  -3 15491.0 490.860   6
  -2  19  -3 15877.7 509.101   3
  -2  19  -3 15988.7 429.423   2
  -2 -19  -3 14864.9 507.677   5
  -2  19  -2 982.795 136.387   3
  -2  19  -2 817.067 100.919   2
  -2  19  -2 1005.35 139.471   6
  -2  19  -1 751.470 98.2141   2
  -2  19  -1 846.420 130.372   6
  -2  19   0 354.124 105.192   6
  -2  19   1 3212.37 230.059   6
  -2  19   2 11956.1 432.094   6
  -2 -19   2 11874.3 198.083   4
  -2  19   3 2623.95 239.094   6
  -2 -19   5 7671.07 193.759   1
  -2  20 -10 2182.46 273.742   6
  -2 -20  -9 171.460 133.764   5
  -2  20  -9-5.82088 109.186   6
  -2 -20  -8 15850.4 665.682   5
  -2  20  -8 15166.9 613.867   6
  -2 -20  -7 61.2254 113.861   5
  -2  20  -7 143.630 112.563   6
  -2  20  -7 57.2523 94.4941   3
  -2 -20  -6 28436.0 808.171   5
  -2  20  -6 28934.4 799.629   3
  -2  20  -6 27370.8 747.080   6
  -2 -20  -5 13692.1 542.754   5
  -2  20  -5 12744.2 512.617   3
  -2  20  -5 12767.7 493.143   6
  -2  20  -4 28296.9 701.441   6
  -2  20  -4 28968.6 732.281   3
  -2 -20  -4 28106.6 738.508   5
  -2  20  -3 3570.03 253.219   3
  -2  20  -3 3818.04 216.519   2
  -2 -20  -3 3588.32 264.569   5
  -2  20  -3 3819.33 258.772   6
  -2  20  -2 704.290 126.742   3
  -2  20  -2 632.950 125.358   6
  -2  20  -2 759.277 101.242   2
  -2  20  -1 894.146 105.536   2
  -2  20  -1 1087.89 144.763   6
  -2  20   0 15206.7 488.347   6
  -2 -20   1 2082.77 115.501   4
  -2  20   1 1989.74 188.390   6
  -2  20   2 16973.1 537.048   6
  -2 -20   2 16878.2 241.591   4
  -2  20   3 4335.16 287.156   6
  -2 -20   5 581.726 59.8980   1
  -2 -21  -9 1821.27 252.396   5
  -2  21  -9 1464.49 218.230   6
  -2 -21  -8 1917.41 255.447   5
  -2  21  -8 1828.25 236.040   6
  -2  21  -7 4863.59 342.632   6
  -2 -21  -7 5139.58 377.816   5
  -2  21  -7 4684.80 350.091   3
  -2 -21  -6 16.0002 93.7728   5
  -2  21  -6 2.77211 93.4616   6
  -2  21  -6 165.143 102.917   3
  -2 -21  -5 46172.6 1002.34   5
  -2  21  -5 44303.3 933.997   6
  -2  21  -5 46028.4 982.265   3
  -2 -21  -4 381.709 114.670   5
  -2  21  -4 388.586 114.733   6
  -2  21  -4 479.229 122.627   3
  -2 -21  -3 20466.7 624.691   5
  -2  21  -3 21088.8 605.721   3
  -2  21  -3 21334.2 503.353   2
  -2  21  -3 20389.6 594.874   6
  -2  21  -2 15518.1 416.807   2
  -2  21  -2 15644.8 504.126   3
  -2  21  -2 15120.8 507.701   6
  -2  21  -1 15688.9 509.731   6
  -2  21  -1 15828.4 401.727   2
  -2  21   0 23806.5 488.434   2
  -2  21   0 23182.6 613.170   6
  -2 -21   1 10077.5 253.481   4
  -2  21   1 9801.63 411.273   6
  -2  21   2 9248.24 409.483   6
  -2 -21   2 8576.46 176.376   4
  -2  21   3 431.808 136.602   6
  -2  22  -9 2858.57 302.001   6
  -2 -22  -8 467.881 139.114   5
  -2  22  -8 680.976 167.445   6
  -2 -22  -7 2630.51 278.884   5
  -2  22  -7 2274.48 241.803   6
  -2  22  -6 35.2713 99.3257   6
  -2 -22  -6 0.87407 100.989   5
  -2  22  -6-31.9392 104.808   3
  -2  22  -5 601.951 139.733   3
  -2  22  -5 605.671 150.612   6
  -2 -22  -5 414.208 128.941   5
  -2 -22  -4 828.254 147.284   5
  -2  22  -4 869.786 153.242   6
  -2  22  -4 978.657 153.438   3
  -2  22  -3 6079.01 333.670   3
  -2  22  -3 6646.57 286.119   2
  -2 -22  -3 6447.58 365.628   5
  -2  22  -3 6759.03 363.104   6
  -2  22  -2 2352.68 169.092   2
  -2  22  -2 2275.29 206.327   3
  -2  22  -2 2060.55 208.984   6
  -2  22  -1 11186.1 343.329   2
  -2  22  -1 11223.9 450.172   6
  -2  22   0 3433.95 197.979   2
  -2  22   0 3187.96 251.050   6
  -2 -22   1 36518.1 488.864   4
  -2  22   1 35427.5 798.598   6
  -2  22   2 16258.8 556.084   6
  -2 -22   2 15216.8 239.927   4
  -2  22   3 42089.0 914.456   6
  -2  23  -9 2034.64 273.500   6
  -2 -23  -8 1935.26 264.324   5
  -2  23  -8 1825.26 244.760   6
  -2 -23  -7 5023.68 381.982   5
  -2  23  -7 4889.74 361.850   6
  -2 -23  -6 1101.45 190.890   5
  -2  23  -6 777.164 155.134   6
  -2  23  -6 830.617 160.610   3
  -2 -23  -5 286.567 122.041   5
  -2  23  -5 323.552 111.883   3
  -2  23  -5 155.642 96.2405   6
  -2  23  -4 2147.65 220.674   6
  -2  23  -4 2206.14 227.960   3
  -2 -23  -4 2152.64 234.187   5
  -2  23  -3 14967.1 530.892   3
  -2  23  -3 15213.0 430.657   2
  -2 -23  -3 15208.2 567.893   5
  -2  23  -3 14456.1 536.206   6
  -2  23  -2 6972.58 286.148   2
  -2  23  -2 6488.27 339.262   3
  -2  23  -2 6680.77 363.186   6
  -2  23  -1 4362.26 222.139   2
  -2  23  -1 3825.65 276.993   6
  -2  23   0 46881.8 703.610   2
  -2  23   0 46659.1 932.696   6
  -2 -23   1 2842.19 145.212   4
  -2  23   1 3017.22 258.435   6
  -2  23   2 62329.8 1104.95   6
  -2  23   3 3427.32 282.533   6
  -2  24  -8 5631.26 408.169   6
  -2 -24  -7 42.9669 111.543   5
  -2  24  -7 274.039 143.965   6
  -2 -24  -6 24636.4 810.374   5
  -2  24  -6 24877.3 783.370   3
  -2  24  -6 23814.2 764.555   6
  -2 -24  -5 377.727 131.009   5
  -2  24  -5 308.948 123.668   6
  -2  24  -5 276.406 114.885   3
  -2  24  -4 42682.5 953.575   3
  -2  24  -4 40662.7 932.952   6
  -2 -24  -4 40925.0 973.180   5
  -2 -24  -3 352.097 122.408   5
  -2  24  -3 330.472 122.181   6
  -2  24  -3 481.533 134.452   3
  -2  24  -2 29794.8 587.251   2
  -2  24  -2 30544.5 739.987   3
  -2  24  -2 29197.8 765.525   6
  -2  24  -1 4.94958 104.036   6
  -2  24  -1 159.247 64.7667   2
  -2 -24   0 12185.9 346.207   4
  -2  24   0 12816.8 510.289   6
  -2  24   0 12346.5 366.890   2
  -2  24   1 6340.42 359.710   6
  -2 -24   1 6511.89 216.148   4
  -2  24   2 1624.51 211.031   6
  -2  24   3 8696.72 445.927   6
  -2  25  -8 428.818 156.543   6
  -2 -25  -7 6087.07 432.764   5
  -2  25  -7 5744.21 409.629   6
  -2 -25  -6 112.758 106.798   5
  -2  25  -6 221.739 130.011   6
  -2  25  -6-72.6320 100.024   3
  -2 -25  -5 10443.6 521.160   5
  -2  25  -5 10436.2 509.401   6
  -2  25  -5 10469.0 502.674   3
  -2 -25  -4 237.430 142.789   5
  -2  25  -4 281.074 133.102   6
  -2  25  -4 357.739 119.640   3
  -2  25  -3 30358.5 781.445   3
  -2 -25  -3 29981.2 831.693   5
  -2  25  -3 30151.5 811.539   6
  -2  25  -2 7817.01 388.116   3
  -2  25  -2 7443.61 408.298   6
  -2  25  -1 8478.15 389.774   3
  -2  25  -1 7960.30 415.778   6
  -2 -25   0 1128.21 117.527   4
  -2  25   0 1179.08 186.051   6
  -2  25   0 1280.16 130.931   2
  -2  25   1 14252.9 556.293   6
  -2  25   2 1565.14 204.589   6
  -2  25   3 3316.00 298.950   6
  -2  26  -7 2825.22 305.166   6
  -2 -26  -6 11201.0 572.214   5
  -2  26  -6 11637.8 557.606   3
  -2  26  -6 10801.4 544.729   6
  -2  26  -5 593.668 164.445   6
  -2  26  -5 495.357 136.265   3
  -2 -26  -5 380.169 146.965   5
  -2  26  -4 17954.5 661.322   6
  -2 -26  -4 18679.8 688.398   5
  -2  26  -4 19114.2 658.976   3
  -2  26  -3 7146.70 390.464   3
  -2  26  -3 7470.72 424.529   6
  -2 -26  -3 7910.93 447.045   5
  -2  26  -2 8122.89 403.905   3
  -2  26  -2 7615.07 422.059   6
  -2  26  -1 13827.6 504.295   3
  -2  26  -1 12742.5 534.660   6
  -2  26   0 7205.23 407.903   6
  -2  26   1 19788.2 666.541   6
  -2  26   2 7995.68 443.217   6
  -2  26   3 7009.47 423.580   6
  -2  27  -7 1210.24 224.672   6
  -2  27  -6 1497.18 224.219   6
  -2 -27  -6 1519.05 227.566   5
  -2  27  -6 1556.32 230.978   3
  -2 -27  -5 2141.58 262.485   5
  -2  27  -5 1942.46 255.690   6
  -2  27  -5 2425.29 256.839   3
  -2  27  -4 75.3136 140.450   6
  -2  27  -4 35.1629 86.0607   3
  -2 -27  -4-4.38767 120.079   5
  -2  27  -3 662.363 173.851   6
  -2 -27  -3 242.253 119.552   5
  -2  27  -2 6500.40 367.839   3
  -2  27  -2 5989.84 386.372   6
  -2  27  -1 3166.24 262.243   3
  -2  27  -1 2651.68 262.919   6
  -2  27   0 11644.2 527.146   6
  -2  27   1 1284.01 209.894   6
  -2  27   2 25724.8 800.144   6
  -2  27   3 5557.13 392.305   6
  -2  28  -6 3319.14 326.021   6
  -2  28  -5 583.378 171.280   6
  -2 -28  -5 243.990 125.236   5
  -2  28  -4 3943.97 318.871   3
  -2  28  -4 3730.91 332.590   6
  -2 -28  -4 4353.51 359.028   5
  -2 -28  -3 825.146 176.614   5
  -2  28  -3 819.289 188.547   6
  -2  28  -3 913.085 169.746   3
  -2  28  -2 3757.47 283.695   3
  -2  28  -2 3907.45 327.643   6
  -2  28  -1 7280.86 384.652   3
  -2  28  -1 7232.02 433.848   6
  -2  28   0 366.793 144.646   6
  -2  28   1 20605.6 721.244   6
  -2  28   2 2174.72 270.697   6
  -2  29  -6 246.461 155.854   6
  -2  29  -5 11209.7 572.300   6
  -2  29  -4 693.386 199.180   6
  -2 -29  -4 777.210 189.385   5
  -2  29  -3 17337.4 685.240   6
  -2 -29  -3 17219.9 698.182   5
  -2  29  -2 97.3662 124.464   6
  -2  29  -1 4393.20 352.691   6
  -2  29   0 3198.24 312.149   6
  -2  29   1 3178.29 311.215   6
  -2  29   2 5726.82 412.258   6
  -2  30  -5-51.6546 123.552   6
  -2  30  -4 17255.3 710.705   6
  -2  30  -3 34.8407 124.562   6
  -2 -30  -3-75.0534 121.502   5
  -2  30  -2 15997.6 659.817   6
  -2  30  -1 59.6556 118.190   6
  -2  30   0 9765.45 524.980   6
  -2  30   1 2762.82 295.791   6
  -2  30   2 24.6293 120.669   6
  -2  31  -4 632.316 186.729   6
  -2  31  -3 1867.51 263.528   6
  -2  31  -2 5437.36 418.236   6
  -2  31  -1 2584.81 292.487   6
  -2  31   0 1491.33 241.942   6
  -2  31   1 2607.65 298.462   6
  -2  31   2 2482.48 301.057   6
  -2  32  -2 9965.45 569.126   6
  -2  32  -1 5169.51 408.684   6
  -2  32   0 970.823 195.193   6
  -2  32   1 12478.1 627.370   6
  -2  32   2 311.908 169.409   6
  -1   0 -12 5953.96 424.436   5
  -1   0 -11 264.065 148.774   5
  -1   0 -10 34787.4 891.144   5
  -1   0  -9-1.41091 90.0744   5
  -1   0  -8 44262.2 870.323   5
  -1   0  -7-78.5348 78.6611   5
  -1   0  -6 4523.65 242.470   5
  -1   0  -5 49.0220 59.6152   5
  -1   0  -4 5813.89 221.021   5
  -1   0  -3 118.270 52.5115   5
  -1   0  -2 67057.5 540.182   5
  -1   0  -2 66624.3 561.229   3
  -1   0  -1 120.191 29.7072   3
  -1   0   2 39194.8 341.944   5
  -1   0   3 37.6456 32.4208   5
  -1   0   5 74.4650 45.3313   5
  -1   0   6 13450.1 384.597   5
  -1   1 -12 757.236 167.444   5
  -1  -1 -12 478.298 144.621   5
  -1   1 -11 22689.5 769.337   5
  -1  -1 -11 23171.0 777.392   5
  -1  -1 -10 281.320 122.655   5
  -1   1 -10 189.005 118.146   5
  -1   1  -9 29988.3 776.634   5
  -1  -1  -9 29886.8 770.119   5
  -1   1  -8 12214.2 460.290   5
  -1  -1  -8 12130.8 461.497   5
  -1   1  -7 87781.9 1131.61   5
  -1  -1  -7 86699.0 1133.31   5
  -1   1  -6 16524.9 457.272   5
  -1  -1  -6 16035.7 446.854   5
  -1   1  -5 4130.08 212.975   5
  -1  -1  -5 4450.79 218.294   5
  -1   1  -4 9349.17 282.115   5
  -1  -1  -4 9674.45 286.397   5
  -1   1  -3 9807.64 250.275   5
  -1  -1  -3 9863.79 252.526   5
  -1   1  -2 119266. 722.059   5
  -1  -1  -2 120524. 741.038   5
  -1   1  -2 118631. 771.975   3
  -1   1  -1 71587.8 431.462   5
  -1  -1  -1 72711.6 453.828   5
  -1   1  -1 71383.1 479.009   3
  -1  -1  -1 71896.8 431.827   3
  -1  -1   2 8068.91 163.316   5
  -1   1   2 8186.64 154.573   5
  -1  -1   3 42190.4 456.337   5
  -1   1   3 41735.3 446.896   5
  -1  -1   4 62856.8 653.307   5
  -1   1   4 61261.2 644.371   5
  -1  -1   5 2903.30 166.454   5
  -1   1   5 2728.30 161.324   5
  -1   1   6 38374.0 648.358   5
  -1   2 -12 610.897 158.001   5
  -1  -2 -12 925.022 195.265   5
  -1  -2 -11 3748.77 326.334   5
  -1   2 -11 3792.55 324.572   5
  -1   2 -10-103.372 131.919   5
  -1  -2 -10 132.521 109.854   5
  -1  -2  -9 1137.16 168.405   5
  -1   2  -9 1334.74 178.205   5
  -1   2  -8 971.041 150.139   5
  -1  -2  -8 1096.27 154.096   5
  -1   2  -7 88716.7 1141.19   5
  -1  -2  -7 88317.9 1147.12   5
  -1   2  -6 5179.91 259.523   5
  -1  -2  -6 5058.87 261.056   5
  -1   2  -5 96862.0 999.027   5
  -1  -2  -5 96727.0 1004.48   5
  -1  -2  -4 8863.32 275.470   5
  -1   2  -4 9143.76 277.919   5
  -1   2  -3 315110. 1417.96   5
  -1  -2  -3 316043. 1449.72   5
  -1   2  -3 307759. 1488.65   3
  -1   2  -2 17663.0 283.711   5
  -1  -2  -2 17608.0 290.518   5
  -1   2  -2 17398.5 305.420   3
  -1   2  -1 281140. 853.131   5
  -1   2  -1 278869. 973.316   2
  -1   2  -1 276923. 988.633   3
  -1  -2  -1 277176. 943.312   5
  -1  -2  -1 274530. 913.826   6
  -1   2   2 13616.1 200.602   5
  -1  -2   2 13944.1 221.646   5
  -1  -2   2 13537.2 178.991   1
  -1  -2   3 38440.9 446.277   5
  -1   2   3 38796.0 428.207   5
  -1  -2   4 1786.98 118.560   5
  -1   2   4 1732.17 118.657   5
  -1  -2   5 5631.14 228.498   5
  -1   2   5 5454.74 218.016   5
  -1   2   6 13747.1 389.317   5
  -1  -3 -12 316.469 157.712   5
  -1   3 -12 80.1565 105.619   5
  -1  -3 -11 4820.64 362.097   5
  -1   3 -11 4214.04 348.339   5
  -1   3 -10 1746.81 224.021   5
  -1  -3 -10 1887.10 228.306   5
  -1  -3  -9 24482.3 699.933   5
  -1   3  -9 24356.6 702.207   5
  -1  -3  -8 9205.09 407.649   5
  -1   3  -8 9309.12 410.264   5
  -1  -3  -7 5543.98 295.002   5
  -1   3  -7 5702.40 301.799   5
  -1   3  -6 98921.8 1112.86   5
  -1  -3  -6 96989.0 1109.38   5
  -1   3  -5 22974.0 489.030   5
  -1  -3  -5 22343.4 486.741   5
  -1   3  -4 178653. 1220.88   5
  -1   3  -3 22132.0 377.666   5
  -1  -3  -3 21855.2 383.976   5
  -1   3  -3 21225.6 396.241   3
  -1   3  -2 806.505 71.5612   5
  -1   3  -2 1091.06 84.9559   3
  -1  -3  -2 727.012 71.2601   5
  -1   3  -1 8996.11 177.620   2
  -1   3  -1 9399.70 192.320   3
  -1  -3  -1 9243.23 181.908   6
  -1  -3  -1 9067.70 182.949   5
  -1   3  -1 9205.51 154.576   4
  -1   3  -1 9276.44 150.168   6
  -1   3  -1 9166.48 165.029   5
  -1  -3   1 10496.4 177.232   6
  -1   3   2 335231. 1027.30   5
  -1  -3   2 336131. 865.376   1
  -1  -3   2 345676. 1159.79   5
  -1   3   3 41369.4 452.058   5
  -1  -3   3 42097.2 480.232   5
  -1  -3   4 219.490 55.1507   5
  -1   3   4 109.273 35.7920   5
  -1  -3   5 28981.5 513.947   5
  -1   3   5 29754.1 511.816   5
  -1  -3   5 29687.3 545.820   3
  -1   3   6 794.591 98.6028   5
  -1  -4 -12 2128.03 267.265   5
  -1   4 -12 2128.92 272.139   5
  -1  -4 -11 92.6423 116.509   5
  -1   4 -11 137.801 133.893   5
  -1  -4 -10 42406.6 991.995   5
  -1   4 -10 42680.0 994.466   5
  -1   4  -9 487.861 129.812   5
  -1  -4  -9 521.954 138.109   5
  -1  -4  -8 45574.8 894.721   5
  -1   4  -8 47307.8 908.872   5
  -1  -4  -7 58901.0 946.297   5
  -1   4  -7 58573.5 936.364   5
  -1  -4  -6 28584.8 607.720   5
  -1   4  -6 29343.7 612.599   5
  -1  -4  -5 47917.6 719.374   5
  -1   4  -5 47764.3 710.653   5
  -1  -4  -4 45357.4 634.950   5
  -1   4  -4 45181.4 662.674   3
  -1   4  -4 45870.3 627.566   5
  -1  -4  -3 26769.0 437.521   5
  -1   4  -3 27005.5 460.765   3
  -1   4  -3 27464.1 425.719   5
  -1   4  -2 66842.0 626.050   3
  -1  -4  -2 67728.4 606.930   5
  -1  -4  -2 70143.5 634.137   6
  -1   4  -2 68170.3 536.739   6
  -1   4  -2 69184.7 573.312   5
  -1   4  -1 257980. 967.471   2
  -1  -4  -1 254656. 1036.78   6
  -1   4  -1 259042. 862.936   6
  -1   4  -1 256767. 816.232   4
  -1   4  -1 262957. 909.088   5
  -1   4   0 162449. 632.731   4
  -1   4   0 166574. 621.681   6
  -1  -4   0 164756. 747.378   6
  -1  -4   1 2310.97 66.0614   3
  -1   4   1 2165.04 89.6970   6
  -1  -4   1 2415.98 95.9429   6
  -1   4   2 324.618 41.2544   5
  -1  -4   2 467.563 38.1192   1
  -1  -4   2 486.686 51.1336   3
  -1  -4   2 466.377 59.9035   5
  -1  -4   3 52869.2 553.712   3
  -1   4   3 51674.2 516.516   5
  -1  -4   3 53166.1 555.676   5
  -1  -4   4 86946.3 808.165   5
  -1   4   4 86959.5 777.522   5
  -1  -4   4 86209.8 826.317   3
  -1  -4   5 28115.9 517.551   5
  -1   4   5 28697.0 506.261   5
  -1  -4   5 27805.1 528.849   3
  -1   4   6 19357.6 465.300   5
  -1  -5 -12 3684.65 348.249   5
  -1   5 -12 3168.57 322.929   5
  -1  -5 -11 11874.1 568.772   5
  -1   5 -11 11887.9 569.669   5
  -1  -5 -10 1122.11 190.104   5
  -1   5 -10 1349.74 205.490   5
  -1  -5  -9 10952.3 474.103   5
  -1   5  -9 11105.1 484.243   5
  -1  -5  -8 6942.44 359.441   5
  -1   5  -8 6375.63 347.981   5
  -1  -5  -7 109319. 1292.85   5
  -1   5  -7 111202. 1296.78   5
  -1   5  -6-54.9611 66.2942   5
  -1  -5  -6 11.4190 64.3594   5
  -1   5  -5 977.602 116.841   5
  -1  -5  -5 811.699 107.439   5
  -1  -5  -4 2086.32 141.756   5
  -1   5  -4 2342.63 161.064   3
  -1   5  -4 2003.83 139.415   5
  -1   5  -3 552.172 77.6331   3
  -1  -5  -3 569.846 79.5099   5
  -1  -5  -3 510.407 74.1063   6
  -1   5  -3 565.699 74.4165   5
  -1   5  -2 262379. 1278.33   3
  -1   5  -2 258886. 1189.76   2
  -1  -5  -2 264138. 1238.05   5
  -1   5  -2 261731. 958.172   4
  -1  -5  -2 261205. 1259.71   6
  -1   5  -2 264348. 1112.37   6
  -1   5  -2 264246. 1174.21   5
  -1  -5  -1 21041.1 326.350   6
  -1   5  -1 21177.3 271.097   6
  -1   5  -1 20155.1 234.003   4
  -1   5  -1 20164.5 276.688   2
  -1   5   0 505056. 1183.19   4
  -1  -5   0 506611. 1444.26   6
  -1   5   0 510633. 1255.91   6
  -1  -5   1 64269.5 356.161   3
  -1  -5   1 65584.0 528.035   6
  -1   5   1 68155.3 503.932   6
  -1  -5   2 128108. 711.847   3
  -1  -5   2 128199. 813.292   6
  -1   5   3 66377.7 593.935   5
  -1  -5   3 65603.1 624.675   3
  -1  -5   3 67154.9 647.500   5
  -1   5   4 43132.9 555.996   5
  -1  -5   4 42697.0 584.769   3
  -1  -5   4 42598.2 578.307   5
  -1  -5   5 20737.7 448.863   5
  -1   5   5 21108.0 438.948   5
  -1  -5   5 20066.3 457.029   3
  -1   5   6 3796.82 210.178   5
  -1  -6 -12 6178.72 437.930   5
  -1   6 -12 5731.63 430.730   5
  -1  -6 -11 1004.28 182.067   5
  -1   6 -11 1029.67 200.539   5
  -1  -6 -10 11078.5 515.438   5
  -1   6 -10 10874.5 516.420   5
  -1  -6  -9 5856.48 356.299   5
  -1   6  -9 6517.40 373.296   5
  -1  -6  -8 8785.41 406.179   5
  -1   6  -8 8850.06 402.688   5
  -1   6  -7 178.199 84.2119   5
  -1  -6  -7 356.417 114.593   5
  -1  -6  -6 8686.58 347.282   5
  -1   6  -6 8648.25 341.096   5
  -1  -6  -5 3387.33 200.603   5
  -1   6  -5 3452.70 202.310   5
  -1  -6  -4 451.590 88.2774   5
  -1  -6  -4 349.122 78.5548   6
  -1   6  -4 514.786 91.7081   3
  -1   6  -4 360.535 75.4598   5
  -1  -6  -3 548744. 2080.66   5
  -1  -6  -3 562200. 2162.19   6
  -1   6  -3 556518. 2161.77   3
  -1   6  -3 548263. 1904.40   6
  -1   6  -3 549319. 1997.59   5
  -1   6  -2 33621.3 429.952   2
  -1   6  -2 34199.5 477.340   3
  -1  -6  -2 34044.1 476.575   6
  -1   6  -2 33805.5 340.361   4
  -1  -6  -2 34801.7 467.506   5
  -1   6  -2 34098.8 421.503   6
  -1   6  -2 33863.8 431.956   5
  -1   6  -1 137586. 623.427   4
  -1   6  -1 136039. 749.810   6
  -1   6  -1 134137. 739.038   2
  -1  -6   0 93621.4 673.042   6
  -1   6   0 89645.8 529.875   4
  -1   6   0 93749.7 599.561   6
  -1   6   1 51547.9 478.403   6
  -1  -6   1 52131.5 510.274   6
  -1  -6   2 8201.70 187.046   3
  -1  -6   2 8676.24 225.628   6
  -1   6   3 98004.1 740.940   5
  -1  -6   3 98100.0 809.317   5
  -1   6   4 57058.4 650.637   5
  -1  -6   4 57318.6 688.214   3
  -1  -6   4 59241.6 697.873   5
  -1  -6   5 5840.71 244.107   5
  -1   6   5 5934.22 235.343   5
  -1  -6   5 5720.79 248.098   3
  -1  -7 -12 1240.88 219.825   5
  -1   7 -12 1231.84 218.621   6
  -1  -7 -11 14088.0 614.870   5
  -1   7 -11 14086.4 625.277   5
  -1  -7 -10 131.503 108.118   5
  -1   7 -10 69.2629 106.171   5
  -1  -7  -9 38.5087 83.1182   5
  -1   7  -9 66.0522 96.9344   5
  -1  -7  -8 5130.09 313.666   5
  -1   7  -8 5124.92 182.222   1
  -1   7  -8 5812.98 330.716   5
  -1   7  -7 1288.86 83.0057   1
  -1  -7  -7 1237.47 153.584   5
  -1   7  -7 1205.76 150.079   5
  -1   7  -6 39809.1 390.837   1
  -1  -7  -6 40396.0 750.067   5
  -1   7  -6 40113.3 730.702   5
  -1  -7  -5 4057.04 220.184   5
  -1   7  -5 4002.50 230.853   3
  -1   7  -5 3941.88 206.733   6
  -1   7  -5 3882.44 217.712   5
  -1   7  -5 3606.54 97.1654   1
  -1  -7  -4 179298. 1334.37   5
  -1  -7  -4 189712. 1431.04   6
  -1   7  -4 178585. 1369.82   3
  -1   7  -4 181127. 1259.26   6
  -1   7  -4 185454. 1311.59   5
  -1  -7  -3 8187.54 263.903   5
  -1   7  -3 8255.59 272.091   3
  -1  -7  -3 8229.85 269.498   6
  -1   7  -3 8659.53 250.678   6
  -1   7  -3 8406.87 194.630   4
  -1   7  -3 8312.41 255.589   5
  -1   7  -2 85439.3 696.381   2
  -1   7  -2 84446.6 769.019   3
  -1  -7  -2 83619.5 785.277   6
  -1  -7  -2 83388.1 755.296   5
  -1   7  -2 85639.4 540.508   4
  -1   7  -2 84330.8 691.578   6
  -1  -7  -1 48500.6 552.099   6
  -1   7  -1 49050.9 487.089   6
  -1   7  -1 49230.6 390.688   4
  -1   7  -1 48576.6 451.100   2
  -1  -7   0 48364.9 523.925   6
  -1   7   0 49404.0 481.608   6
  -1   7   1 13656.0 267.605   6
  -1  -7   1 13127.9 273.500   6
  -1  -7   2 638.424 86.9541   6
  -1  -7   2 704.566 60.4596   3
  -1  -7   2 514.771 42.5331   2
  -1  -7   3 5353.50 116.951   1
  -1  -7   3 5525.66 188.829   3
  -1  -7   3 5424.74 199.647   5
  -1  -7   4 484.881 73.2196   5
  -1   7   4 504.148 70.8273   5
  -1  -7   4 579.183 80.1718   3
  -1  -7   5 4425.87 220.551   5
  -1  -7   5 4577.27 227.902   3
  -1   7   5 4522.38 210.067   5
  -1  -8 -12 1217.55 217.101   5
  -1   8 -12 1414.41 224.889   6
  -1  -8 -11 151.570 123.086   5
  -1   8 -11-4.43671 122.893   6
  -1   8 -11 21.1997 114.596   5
  -1  -8 -10 7149.64 421.154   5
  -1   8 -10 6745.41 403.093   6
  -1   8 -10 7582.43 436.559   5
  -1  -8  -9 4492.15 321.293   5
  -1   8  -9 4520.43 310.178   6
  -1   8  -9 4593.13 324.561   5
  -1  -8  -8 1713.95 197.224   5
  -1   8  -8 1798.18 191.945   6
  -1   8  -8 1726.05 195.978   5
  -1   8  -7 11733.2 438.007   5
  -1  -8  -7 11610.0 439.778   5
  -1   8  -7 11613.3 217.712   1
  -1   8  -7 11731.4 422.716   6
  -1  -8  -6 13876.5 446.843   5
  -1   8  -6 14143.0 447.262   5
  -1   8  -6 13586.9 196.576   1
  -1   8  -6 13923.8 426.455   6
  -1  -8  -5 38648.0 684.173   5
  -1   8  -5 37931.9 699.950   3
  -1   8  -5 38721.6 650.311   6
  -1   8  -5 37400.9 668.984   5
  -1  -8  -4 20586.0 462.874   5
  -1  -8  -4 21666.7 489.095   6
  -1   8  -4 21351.6 487.888   3
  -1   8  -4 21312.5 440.432   6
  -1   8  -4 21688.2 460.792   5
  -1   8  -3 225255. 1439.48   3
  -1  -8  -3 226147. 1394.34   5
  -1   8  -3 223003. 971.848   4
  -1  -8  -3 225636. 1461.85   6
  -1   8  -3 227752. 1321.35   6
  -1  -8  -2 16.0591 44.6650   5
  -1  -8  -2 74.9539 46.8998   6
  -1   8  -2 77.7494 47.0762   3
  -1   8  -2 95.9391 43.2332   2
  -1   8  -2 71.2674 46.0000   6
  -1   8  -2 55.3943 28.0980   4
  -1   8  -1 85550.4 535.502   4
  -1   8  -1 85892.5 691.304   6
  -1  -8  -1 85897.0 779.551   6
  -1   8  -1 85097.3 612.329   2
  -1   8   0 11224.9 250.327   6
  -1  -8   0 10745.1 266.084   6
  -1  -8   1 73050.5 677.944   6
  -1  -8   2 8301.63 146.857   2
  -1   8   2 8728.38 251.629   6
  -1  -8   2 8812.44 248.973   6
  -1  -8   3 455.578 38.3307   1
  -1  -8   3 508.077 67.6814   3
  -1  -8   3 383.824 50.3445   2
  -1  -8   3 482.175 88.9581   6
  -1  -8   3 548.559 85.8140   5
  -1  -8   4 11248.3 312.801   3
  -1  -8   4 10714.4 316.287   5
  -1  -8   4 10917.8 277.041   2
  -1  -8   5 2030.97 154.960   3
  -1   8   5 1987.70 144.998   5
  -1   9 -12 1513.73 238.276   6
  -1  -9 -11 11484.5 569.444   5
  -1   9 -11 11678.8 559.421   6
  -1   9 -11 11645.4 577.125   5
  -1  -9 -10 1395.59 212.282   5
  -1   9 -10 1302.90 198.558   6
  -1   9 -10 1572.52 230.330   5
  -1  -9  -9 40771.0 935.273   5
  -1   9  -9 39516.2 898.702   6
  -1   9  -9 41450.6 949.005   5
  -1  -9  -8 6923.71 367.964   5
  -1   9  -8 7341.57 368.848   6
  -1   9  -8 7503.26 386.980   5
  -1   9  -7 32880.6 298.413   1
  -1  -9  -7 34552.7 762.180   5
  -1   9  -7 34863.9 736.075   6
  -1   9  -7 34934.9 762.502   5
  -1  -9  -6 52845.4 874.347   5
  -1   9  -6 52825.6 836.952   6
  -1   9  -6 52919.8 871.170   5
  -1  -9  -5 5303.85 260.963   5
  -1   9  -5 4816.02 237.422   6
  -1   9  -5 4973.10 250.752   5
  -1   9  -5 5077.47 264.339   3
  -1  -9  -4 94842.8 1007.84   5
  -1   9  -4 95474.9 1034.29   3
  -1   9  -4 94964.8 708.455   4
  -1   9  -4 95868.8 957.162   6
  -1   9  -4 96805.3 983.201   5
  -1  -9  -3 1060.45 108.550   5
  -1  -9  -3 954.272 106.712   6
  -1   9  -3 970.178 67.5637   4
  -1   9  -3 1039.94 103.711   3
  -1   9  -3 1028.08 97.0224   6
  -1   9  -2 3219.99 142.984   2
  -1   9  -2 3214.48 161.737   3
  -1   9  -2 3330.44 157.974   6
  -1  -9  -2 3323.41 175.618   6
  -1   9  -2 3169.67 108.843   4
  -1   9  -1 40650.9 384.972   4
  -1   9  -1 42947.5 516.997   6
  -1  -9  -1 42575.6 576.129   6
  -1   9  -1 41229.3 437.516   2
  -1   9   0 10073.2 252.449   6
  -1  -9   0 10316.8 272.203   6
  -1   9   1 77683.6 719.342   6
  -1  -9   1 78396.5 744.236   6
  -1   9   2 4043.05 189.033   6
  -1  -9   2 3984.68 180.684   6
  -1  -9   2 3790.46 98.8808   2
  -1  -9   3 26777.9 351.943   2
  -1  -9   3 28153.4 439.412   3
  -1  -9   3 28405.8 498.826   6
  -1  -9   3 28334.4 487.289   5
  -1  -9   4 2433.02 81.9630   1
  -1  -9   4 2599.39 155.222   3
  -1  -9   4 2426.00 131.616   2
  -1  -9   4 2623.58 166.198   5
  -1  -9   5 26682.6 544.424   3
  -1  -9   5 26656.7 488.694   2
  -1   9   5 26645.7 517.518   5
  -1  -9   6 9119.42 322.800   2
  -1  10 -12 13322.6 632.125   6
  -1 -10 -11 3249.98 315.011   5
  -1  10 -11 2959.58 295.441   6
  -1  10 -11 3585.79 330.609   5
  -1 -10 -10 47629.3 1086.04   5
  -1  10 -10 48076.0 1061.56   6
  -1  10 -10 48984.9 1105.81   5
  -1 -10  -9 1356.24 191.167   5
  -1  10  -9 1213.21 184.392   6
  -1  10  -9 1050.05 178.156   5
  -1 -10  -8 68020.2 1147.72   5
  -1  10  -8 68042.9 1111.06   6
  -1  10  -8 68065.4 1149.39   5
  -1  10  -7-94.8730 75.7533   6
  -1  10  -7 5.88690 76.1954   5
  -1 -10  -6 96564.8 1196.10   5
  -1  10  -6 96737.6 1149.28   6
  -1  10  -6 97040.2 1189.98   5
  -1 -10  -5 8220.81 332.793   5
  -1  10  -5 7891.04 330.377   3
  -1  10  -5 8518.01 321.965   6
  -1  10  -5 8660.46 332.427   5
  -1  10  -5 8535.16 234.750   4
  -1 -10  -4 6525.89 275.767   5
  -1  10  -4 6323.02 277.246   3
  -1  10  -4 6559.23 182.925   4
  -1  10  -4 6596.33 261.177   6
  -1  10  -3 7405.04 274.024   3
  -1 -10  -3 8004.07 293.951   6
  -1 -10  -3 7574.52 276.667   5
  -1  10  -3 7684.94 260.616   6
  -1  10  -3 7627.12 179.404   4
  -1  10  -2 24499.7 396.187   2
  -1  10  -2 24777.3 454.262   3
  -1 -10  -2 25732.6 492.584   6
  -1  10  -2 25675.9 445.539   6
  -1  10  -2 24722.8 302.288   4
  -1 -10  -1 1045.84 105.684   6
  -1  10  -1 1037.63 93.6618   6
  -1  10  -1 1416.98 88.6983   2
  -1 -10   0 2306.23 162.976   6
  -1  10   0 2876.51 166.130   6
  -1 -10   1 53955.6 648.566   6
  -1  10   1 54527.3 631.461   6
  -1  10   2 157493. 1142.49   6
  -1 -10   2 158134. 1144.84   6
  -1 -10   3 1780.94 92.3444   2
  -1 -10   3 1775.33 159.581   6
  -1 -10   3 2306.98 156.962   5
  -1 -10   4 117037. 893.644   2
  -1 -10   4 115458. 1020.74   3
  -1 -10   4 114069. 543.737   1
  -1 -10   4 117471. 1094.54   5
  -1 -10   5 1142.27 108.239   2
  -1 -10   5 1031.10 113.820   3
  -1 -10   6 19116.5 464.422   2
  -1 -11 -11 11055.4 567.779   5
  -1  11 -11 12212.0 576.923   6
  -1  11 -11 11242.9 573.165   5
  -1 -11 -10 297.014 119.879   5
  -1  11 -10 446.381 139.645   6
  -1  11 -10 618.153 160.692   5
  -1 -11  -9 14226.3 564.972   5
  -1  11  -9 14158.1 551.050   6
  -1  11  -9 13771.1 561.075   5
  -1 -11  -8 10.1510 103.952   5
  -1  11  -8 33.7827 97.6105   6
  -1  11  -8 331.992 127.184   5
  -1 -11  -7 9167.13 405.319   5
  -1  11  -7 9083.19 289.235   4
  -1  11  -7 9516.75 396.688   6
  -1  11  -7 9522.42 410.416   5
  -1 -11  -6 29770.4 679.021   5
  -1  11  -6 29841.2 653.010   6
  -1  11  -6 29243.5 471.193   4
  -1 -11  -5 14074.7 440.066   5
  -1  11  -5 13431.1 434.397   3
  -1  11  -5 13999.2 292.710   4
  -1  11  -5 14310.0 424.984   6
  -1 -11  -4 53793.9 798.533   5
  -1  11  -4 53156.4 806.318   3
  -1  11  -4 54006.7 511.469   4
  -1  11  -4 53187.3 752.360   6
  -1 -11  -3 135.267 61.2595   5
  -1 -11  -3 283.680 71.3842   6
  -1  11  -3 206.637 64.1706   3
  -1  11  -3 289.126 72.0771   6
  -1  11  -3 280.121 66.2856   2
  -1  11  -3 218.226 37.2685   4
  -1  11  -2 77081.0 706.774   2
  -1  11  -2 77052.9 547.606   4
  -1  11  -2 76964.8 819.759   3
  -1  11  -2 78858.4 815.766   6
  -1 -11  -2 78244.8 892.961   6
  -1  11  -1 7982.78 252.266   6
  -1 -11  -1 7867.12 270.729   6
  -1  11  -1 8215.31 211.558   2
  -1  11   0 82379.1 797.762   6
  -1 -11   0 80723.9 837.258   6
  -1  11   1 30965.6 503.608   6
  -1 -11   1 29887.0 507.213   6
  -1  11   2 23566.9 461.104   6
  -1 -11   2 22705.5 458.438   6
  -1 -11   3 104333. 1008.96   6
  -1 -11   3 105217. 996.059   5
  -1 -11   4 22770.8 457.388   3
  -1 -11   4 22940.8 386.112   2
  -1 -11   4 22059.8 240.188   1
  -1 -11   5 53532.9 694.342   2
  -1 -11   5 51439.9 770.566   3
  -1 -11   6 81.2555 46.2081   2
  -1 -12 -11 1704.92 244.783   5
  -1  12 -11 1467.49 217.101   6
  -1 -12 -10 602.917 157.980   5
  -1  12 -10 492.736 148.199   6
  -1 -12  -9 4716.19 334.086   5
  -1  12  -9 4579.63 322.218   6
  -1 -12  -8 52.1187 93.8155   5
  -1  12  -8-100.165 100.764   6
  -1 -12  -7 16153.6 542.654   5
  -1  12  -7 15037.5 361.397   4
  -1  12  -7 15697.7 517.485   6
  -1 -12  -6 2377.03 207.293   5
  -1  12  -6 2329.57 130.735   4
  -1  12  -6 2469.65 206.180   6
  -1 -12  -5 156900. 1482.13   5
  -1  12  -5 158077. 1507.81   3
  -1  12  -5 158027. 955.389   4
  -1  12  -5 157624. 1418.40   6
  -1  12  -4 70.2981 71.0435   3
  -1  12  -4 84.0794 69.0764   6
  -1 -12  -4 76.2923 69.9182   5
  -1  12  -4 91.7112 38.4595   4
  -1  12  -3 173546. 1363.27   3
  -1 -12  -3 175090. 1377.06   5
  -1  12  -3 168881. 1171.47   2
  -1  12  -3 175299. 1318.02   6
  -1  12  -3 177197. 855.319   4
  -1  12  -2 22319.0 304.361   4
  -1  12  -2 21866.3 385.031   2
  -1  12  -2 23079.2 464.771   3
  -1  12  -2 22691.1 456.684   6
  -1 -12  -2 22258.1 496.488   6
  -1  12  -1 186200. 1272.39   6
  -1  12  -1 183816. 1004.42   2
  -1 -12   0 5699.18 235.583   6
  -1  12   0 5562.88 223.720   6
  -1 -12   1 79249.3 859.631   6
  -1  12   1 79840.1 845.479   6
  -1  12   2 224.215 63.7642   6
  -1 -12   2 143.462 52.5586   6
  -1 -12   2 133.549 18.2855   4
  -1 -12   3 57546.1 492.443   2
  -1 -12   3 57933.4 779.413   6
  -1 -12   4 1682.85 108.319   2
  -1 -12   4 1686.84 69.5390   1
  -1 -12   5 292.736 76.3670   3
  -1 -12   5 287.723 67.4122   2
  -1 -12   6 4322.83 221.665   2
  -1 -13 -11 1187.66 201.925   5
  -1  13 -11 1380.98 228.582   6
  -1 -13 -10 1369.12 216.231   5
  -1  13 -10 1699.21 225.469   6
  -1 -13  -9 4613.73 339.839   5
  -1  13  -9 4743.39 335.378   6
  -1 -13  -8 1157.01 171.609   5
  -1  13  -8 1097.45 162.794   6
  -1 -13  -7 12824.5 491.945   5
  -1  13  -7 13014.4 480.643   6
  -1 -13  -6 30524.3 710.752   5
  -1  13  -6 29867.9 714.011   3
  -1  13  -6 29810.3 446.179   4
  -1  13  -6 30213.3 682.066   6
  -1  13  -5 15042.3 451.670   6
  -1 -13  -5 13826.4 455.392   5
  -1  13  -5 14540.2 282.013   4
  -1  13  -5 14698.0 469.593   3
  -1 -13  -4 101054. 1140.42   5
  -1  13  -4 99690.2 1142.13   3
  -1  13  -4 101691. 1097.67   6
  -1  13  -4 100392. 679.420   4
  -1  13  -3 2455.94 102.968   4
  -1  13  -3 2591.41 177.233   3
  -1  13  -3 2577.36 152.627   2
  -1 -13  -3 2475.23 176.721   5
  -1  13  -3 2591.86 175.795   6
  -1  13  -2 133309. 957.717   2
  -1  13  -2 133333. 1141.39   3
  -1  13  -2 131049. 1130.48   6
  -1  13  -1 5505.34 231.580   6
  -1 -13  -1 5647.58 249.254   6
  -1  13  -1 5755.41 187.535   2
  -1 -13   0 43748.9 668.463   6
  -1  13   0 44161.4 645.197   6
  -1 -13   1 20016.9 451.869   6
  -1  13   1 20435.5 451.501   6
  -1  13   2 9409.17 319.726   6
  -1 -13   2 8459.08 129.426   4
  -1 -13   2 9425.18 319.454   6
  -1 -13   4 3489.93 101.600   1
  -1 -13   4 3388.47 147.423   2
  -1 -13   5 185.646 59.6289   2
  -1 -13   6 388.649 81.2469   2
  -1 -14 -11 235.910 136.810   5
  -1  14 -11 88.5600 125.257   6
  -1 -14 -10 31911.8 918.411   5
  -1  14 -10 32782.5 921.228   6
  -1 -14  -9 4194.80 327.659   5
  -1  14  -9 4359.01 321.939   6
  -1 -14  -8 17501.8 617.412   5
  -1  14  -8 17807.8 603.437   6
  -1 -14  -7 368.109 124.347   5
  -1  14  -7 333.793 114.860   6
  -1 -14  -6 48594.5 913.563   5
  -1  14  -6 49222.0 553.531   4
  -1  14  -6 49449.8 885.083   6
  -1  14  -6 48831.6 923.093   3
  -1 -14  -5 20189.4 557.366   5
  -1  14  -5 19763.8 552.408   3
  -1  14  -5 20016.0 533.950   6
  -1  14  -5 20069.6 322.114   4
  -1 -14  -4 47258.6 799.476   5
  -1  14  -4 47471.7 804.984   3
  -1  14  -4 47618.6 774.607   6
  -1  14  -4 47815.0 463.745   4
  -1  14  -3 66415.9 535.388   4
  -1  14  -3 65404.9 877.541   3
  -1  14  -3 66104.9 744.867   2
  -1 -14  -3 64285.9 888.498   5
  -1  14  -3 64885.5 868.059   6
  -1  14  -2 680.426 114.321   6
  -1  14  -2 623.308 100.669   3
  -1  14  -2 544.302 72.9344   2
  -1  14  -1 34973.7 595.102   6
  -1  14  -1 34682.1 457.994   2
  -1  14   0 16600.3 417.915   6
  -1 -14   1 4868.67 139.519   4
  -1  14   1 5543.36 252.965   6
  -1 -14   2 48105.5 333.583   4
  -1  14   2 52307.6 770.272   6
  -1  14   3 17342.2 476.044   6
  -1 -14   4 33786.3 317.625   1
  -1 -14   4 34541.9 457.524   2
  -1 -14   5 17586.3 386.183   2
  -1 -14   6 72814.8 882.594   2
  -1 -15 -11 6996.48 461.839   5
  -1  15 -11 7290.31 468.775   6
  -1 -15 -10 865.889 181.131   5
  -1  15 -10 847.873 184.918   6
  -1 -15  -9 39655.2 990.322   5
  -1  15  -9 39802.6 962.895   6
  -1 -15  -8 4200.20 314.948   5
  -1  15  -8 3837.08 290.213   6
  -1 -15  -7 100479. 1405.14   5
  -1  15  -7 100326. 1358.88   6
  -1 -15  -6 5206.72 312.678   5
  -1  15  -6 4934.42 304.209   3
  -1  15  -6 4592.00 287.838   6
  -1  15  -6 5107.49 172.658   4
  -1 -15  -5 38322.7 779.675   5
  -1  15  -5 36467.5 734.830   6
  -1  15  -5 36815.0 766.344   3
  -1  15  -5 37145.7 427.742   4
  -1  15  -4 112.389 37.0933   4
  -1 -15  -4 316.392 90.5133   5
  -1  15  -4 156.220 81.0306   3
  -1  15  -4 105.417 77.7257   6
  -1 -15  -3 2391.61 186.714   5
  -1  15  -3 2351.60 177.190   3
  -1  15  -3 2674.02 156.292   2
  -1  15  -3 2461.92 188.882   6
  -1  15  -2 608.501 78.1814   2
  -1  15  -2 493.395 85.2080   6
  -1  15  -2 513.701 89.1950   3
  -1  15  -1 6910.14 284.583   6
  -1  15  -1 6258.83 204.222   2
  -1  15   0 69788.1 882.947   6
  -1 -15   1 61334.1 514.220   4
  -1  15   1 63728.4 862.514   6
  -1  15   2 2282.27 193.898   6
  -1 -15   2 1835.84 72.5801   4
  -1  15   3 114714. 1240.07   6
  -1 -15   4 28.4466 22.9065   1
  -1 -15   5 25469.5 454.654   2
  -1 -15   6 2718.74 173.493   2
  -1  16 -11 368.449 143.602   6
  -1 -16 -10 14417.8 635.778   5
  -1  16 -10 15166.6 640.953   6
  -1 -16  -9 3117.55 293.378   5
  -1  16  -9 3428.59 306.510   6
  -1  16  -8 10984.4 489.545   6
  -1 -16  -8 11193.4 510.576   5
  -1 -16  -7 10558.3 469.676   5
  -1  16  -7 10089.6 445.952   6
  -1 -16  -6 3574.48 263.159   5
  -1  16  -6 3761.71 274.479   3
  -1  16  -6 3935.81 268.419   6
  -1  16  -5 88309.3 636.046   4
  -1 -16  -5 90211.3 1221.38   5
  -1  16  -5 88820.1 1201.61   3
  -1  16  -5 88566.9 1171.89   6
  -1  16  -4 502.166 112.666   3
  -1  16  -4 515.392 110.513   6
  -1 -16  -4 495.068 106.307   5
  -1  16  -3 22229.2 532.066   3
  -1  16  -3 21653.6 437.229   2
  -1  16  -3 22400.1 541.369   6
  -1 -16  -3 21822.7 544.550   5
  -1  16  -2 7701.75 246.460   2
  -1  16  -2 7384.16 295.262   3
  -1  16  -2 7631.00 309.952   6
  -1  16  -1 12602.9 394.538   6
  -1  16  -1 12038.4 285.803   2
  -1  16   0 42057.1 713.879   6
  -1 -16   1 59941.2 530.645   4
  -1  16   1 60342.1 869.649   6
  -1  16   2 5489.68 272.914   6
  -1 -16   2 4569.61 117.507   4
  -1  16   3 1706.11 211.921   6
  -1 -16   4 1757.62 80.7637   1
  -1 -16   5 16429.4 363.557   2
  -1 -16   6 23984.2 494.156   2
  -1 -17 -10 2050.41 264.611   5
  -1  17 -10 1724.28 234.382   6
  -1 -17  -9 873.579 181.305   5
  -1  17  -9 784.847 168.402   6
  -1 -17  -8 707.742 153.759   5
  -1  17  -8 571.535 150.228   6
  -1 -17  -7 4046.49 299.525   5
  -1  17  -7 3943.94 293.615   6
  -1 -17  -6 31180.7 770.927   5
  -1  17  -6 30668.6 745.613   6
  -1  17  -6 30749.9 764.005   3
  -1  17  -5 4744.44 144.255   4
  -1 -17  -5 5184.68 310.083   5
  -1  17  -5 4502.59 285.498   3
  -1  17  -5 5149.09 299.978   6
  -1 -17  -4 47865.0 864.804   5
  -1  17  -4 48407.6 855.551   3
  -1  17  -4 47578.1 849.419   6
  -1 -17  -3 829.801 126.046   5
  -1  17  -3 934.394 117.945   3
  -1  17  -3 943.649 128.848   6
  -1  17  -3 919.130 104.219   2
  -1  17  -2 63522.4 703.515   2
  -1  17  -2 63691.6 869.265   3
  -1  17  -2 63351.6 918.422   6
  -1  17  -1 7207.89 313.952   6
  -1  17  -1 7106.26 228.165   2
  -1  17   0 92695.0 1097.64   6
  -1 -17   1 499.908 65.9486   4
  -1  17   1 580.833 124.016   6
  -1  17   2 13684.5 442.426   6
  -1 -17   2 12499.7 200.469   4
  -1  17   3 6335.07 319.847   6
  -1 -17   6 9311.12 307.947   2
  -1  18 -10 1807.25 242.318   6
  -1 -18 -10 2046.93 261.458   5
  -1 -18  -9 1796.15 243.136   5
  -1  18  -9 1835.34 241.945   6
  -1 -18  -8 1938.85 230.423   5
  -1  18  -8 1903.49 226.099   6
  -1 -18  -7 19462.1 657.315   5
  -1  18  -7 19412.0 637.008   6
  -1 -18  -6 8021.90 403.373   5
  -1  18  -6 7935.74 395.106   6
  -1  18  -6 8179.66 405.713   3
  -1 -18  -5 35830.4 805.225   5
  -1  18  -5 36866.7 799.564   6
  -1  18  -5 36332.9 792.846   3
  -1  18  -4 1069.71 142.735   3
  -1 -18  -4 790.451 131.648   5
  -1  18  -4 835.661 131.877   6
  -1  18  -3 33674.0 682.095   3
  -1 -18  -3 33001.7 706.921   5
  -1  18  -3 32691.6 698.474   6
  -1  18  -2 12802.4 323.875   2
  -1  18  -2 12515.3 397.317   3
  -1  18  -2 12579.0 427.493   6
  -1  18  -1 62991.3 940.531   6
  -1  18  -1 61637.2 672.074   2
  -1  18   0 12024.5 418.635   6
  -1 -18   1 53734.3 536.009   4
  -1  18   1 55774.0 894.956   6
  -1  18   2 857.387 142.494   6
  -1 -18   2 321.400 42.7784   4
  -1  18   3 14291.2 493.724   6
  -1 -19 -10-169.585 136.351   5
  -1  19 -10-47.2615 124.978   6
  -1 -19  -9 11633.5 570.479   5
  -1  19  -9 11701.1 559.144   6
  -1 -19  -8 9212.61 485.725   5
  -1  19  -8 9415.10 477.845   6
  -1 -19  -7 17902.2 639.708   5
  -1  19  -7 17269.1 615.201   6
  -1 -19  -6 79.0866 91.5552   5
  -1  19  -6 160.200 84.4304   6
  -1  19  -6 32.0417 88.2146   3
  -1 -19  -5 8055.90 397.775   5
  -1  19  -5 8358.80 390.554   3
  -1  19  -5 8098.88 388.252   6
  -1 -19  -4 1316.49 160.358   5
  -1  19  -4 1201.24 153.983   6
  -1  19  -4 1414.26 157.215   3
  -1  19  -3 20391.7 541.703   3
  -1 -19  -3 20648.7 575.842   5
  -1  19  -3 19679.0 560.502   6
  -1  19  -2 40251.4 579.900   2
  -1  19  -2 40458.3 723.281   3
  -1  19  -2 39130.9 771.761   6
  -1  19  -1 518.129 85.2718   2
  -1  19  -1 814.195 153.309   6
  -1  19   0 1066.49 148.765   6
  -1  19   1 35947.8 744.362   6
  -1 -19   1 34989.5 450.387   4
  -1  19   2 3498.23 252.601   6
  -1 -19   2 3488.36 117.380   4
  -1  19   3 5878.39 325.675   6
  -1  20 -10 4772.02 392.633   6
  -1 -20  -9 16.3247 117.637   5
  -1  20  -9 85.2218 110.992   6
  -1 -20  -8 21869.0 751.311   5
  -1  20  -8 21965.1 737.897   6
  -1 -20  -7 1865.97 224.761   5
  -1  20  -7 1678.91 215.637   6
  -1 -20  -6 20662.5 668.235   5
  -1  20  -6 20915.1 659.190   3
  -1  20  -6 20265.9 651.755   6
  -1 -20  -5 9920.14 448.454   5
  -1  20  -5 10515.9 443.552   3
  -1  20  -5 10031.7 443.349   6
  -1 -20  -4 203.652 97.8306   5
  -1  20  -4 266.122 102.167   6
  -1  20  -4 345.541 101.418   3
  -1  20  -3 8296.58 354.406   3
  -1 -20  -3 8726.49 389.011   5
  -1  20  -3 8453.67 379.725   6
  -1  20  -2 2854.14 163.027   2
  -1  20  -2 2766.24 200.546   3
  -1  20  -2 2990.18 232.577   6
  -1  20  -1 2699.89 151.317   2
  -1  20  -1 3079.09 233.730   6
  -1 -20   0 4946.43 203.591   4
  -1  20   0 5191.22 299.398   6
  -1  20   1 10118.4 417.516   6
  -1 -20   1 8968.27 236.582   4
  -1  20   2 51486.9 934.941   6
  -1 -20   2 50093.4 451.279   4
  -1  20   3 397.398 142.204   6
  -1 -21  -9 18260.9 727.670   5
  -1  21  -9 18514.6 730.182   6
  -1 -21  -8 2277.78 279.831   5
  -1  21  -8 2222.14 256.950   6
  -1  21  -7 7388.63 425.487   6
  -1 -21  -7 6979.92 418.905   5
  -1 -21  -6 24132.9 733.769   5
  -1  21  -6 24394.5 715.734   3
  -1  21  -6 25088.9 741.210   6
  -1 -21  -5 6905.04 380.425   5
  -1  21  -5 6646.73 357.996   3
  -1  21  -5 7005.62 383.494   6
  -1  21  -4 9323.22 424.876   6
  -1  21  -4 9517.60 408.979   3
  -1 -21  -4 9228.46 422.252   5
  -1  21  -3 2054.69 197.069   3
  -1 -21  -3 2078.49 211.207   5
  -1  21  -3 1964.93 199.456   6
  -1  21  -2 5216.98 211.342   2
  -1  21  -2 5455.46 281.196   3
  -1  21  -2 4975.50 303.693   6
  -1  21  -1 14120.0 338.156   2
  -1  21  -1 13853.9 490.435   6
  -1 -21   0 10706.7 304.345   4
  -1  21   0 11257.5 439.439   6
  -1  21   0 10706.3 295.717   2
  -1  21   1 10606.5 436.063   6
  -1 -21   1 10541.8 262.270   4
  -1  21   2 1964.94 223.407   6
  -1 -21   2 1297.10 77.9598   4
  -1  21   3 8794.34 424.434   6
  -1 -22  -9 1112.79 200.291   5
  -1  22  -9 1102.56 202.191   6
  -1 -22  -8 3805.44 334.103   5
  -1  22  -8 3704.62 333.122   6
  -1 -22  -7 8836.60 481.082   5
  -1  22  -7 9237.20 482.053   6
  -1 -22  -6 1389.58 206.515   5
  -1  22  -6 1502.44 202.659   6
  -1  22  -6 1512.95 200.577   3
  -1 -22  -5 8650.87 433.634   5
  -1  22  -5 9434.98 433.255   3
  -1  22  -5 9098.19 441.322   6
  -1 -22  -4 3697.66 284.452   5
  -1  22  -4 3208.46 264.212   6
  -1  22  -4 3439.31 260.757   3
  -1  22  -3 63947.0 1010.49   3
  -1  22  -3 63097.4 1085.66   6
  -1 -22  -3 62540.3 1078.53   5
  -1  22  -2 3492.36 237.337   3
  -1  22  -2 3483.66 178.710   2
  -1  22  -2 3352.32 267.724   6
  -1  22  -1 57996.6 683.466   2
  -1  22  -1 58507.0 1028.31   6
  -1 -22   0 1140.43 112.755   4
  -1  22   0 1078.01 99.9964   2
  -1  22   0 1104.76 157.078   6
  -1  22   1 13876.7 512.641   6
  -1 -22   1 13643.7 304.923   4
  -1  22   2 3789.72 282.084   6
  -1 -22   2 3630.77 131.049   4
  -1  22   3 3015.26 266.395   6
  -1  23  -9 110.144 126.720   6
  -1 -23  -8 2246.60 272.839   5
  -1  23  -8 2263.68 272.897   6
  -1 -23  -7 5359.83 381.664   5
  -1  23  -7 4652.20 351.802   6
  -1 -23  -6 24667.6 774.694   5
  -1  23  -6 25277.1 748.216   3
  -1  23  -6 24913.4 768.211   6
  -1 -23  -5 41.2520 86.3800   5
  -1  23  -5 170.177 94.7124   6
  -1  23  -5 119.208 90.3990   3
  -1  23  -4 34136.8 843.991   6
  -1  23  -4 34778.3 798.592   3
  -1 -23  -4 33986.8 838.665   5
  -1 -23  -3 457.766 141.452   5
  -1  23  -3 472.423 158.491   6
  -1  23  -3 296.549 112.178   3
  -1  23  -2 39968.7 781.636   3
  -1  23  -2 40057.6 583.207   2
  -1  23  -2 38533.7 870.068   6
  -1  23  -1 476.675 122.084   3
  -1  23  -1 762.205 161.624   6
  -1  23  -1 389.781 85.6651   2
  -1 -23   0 32550.0 549.957   4
  -1  23   0 32160.3 785.170   6
  -1  23   0 31805.0 516.363   2
  -1  23   1 4147.06 291.499   6
  -1 -23   1 4028.52 172.028   4
  -1  23   2 30287.1 785.144   6
  -1  23   3 886.246 161.092   6
  -1 -24  -8 6645.55 454.098   5
  -1  24  -8 6680.09 443.560   6
  -1 -24  -7 369.900 143.874   5
  -1  24  -7 414.751 151.958   6
  -1 -24  -6 4010.24 335.335   5
  -1  24  -6 3341.10 302.562   6
  -1 -24  -5 3513.11 301.014   5
  -1  24  -5 3170.57 285.059   6
  -1  24  -5 3565.65 282.163   3
  -1 -24  -4 10970.9 492.813   5
  -1  24  -4 10889.2 497.415   6
  -1  24  -4 11703.2 473.926   3
  -1  24  -3 2869.65 231.305   3
  -1  24  -3 2973.05 262.177   6
  -1 -24  -3 2919.99 257.644   5
  -1  24  -2 3160.63 238.932   3
  -1  24  -2 3227.50 275.885   6
  -1 -24  -1 32881.6 622.759   4
  -1  24  -1 32924.5 521.004   2
  -1  24  -1 32796.4 695.664   3
  -1  24  -1 32612.4 813.659   6
  -1 -24   0 15737.2 390.024   4
  -1  24   0 16064.4 579.905   6
  -1  24   0 15382.9 360.686   2
  -1 -24   1 8746.76 252.629   4
  -1  24   1 8769.87 432.664   6
  -1  24   2 3328.07 291.988   6
  -1  24   3 1053.73 190.590   6
  -1 -25  -8 504.172 158.516   5
  -1  25  -8 492.143 175.516   6
  -1 -25  -7 20637.8 761.191   5
  -1  25  -7 19648.2 738.633   6
  -1  25  -6 3522.25 319.833   6
  -1 -25  -6 3695.26 321.903   5
  -1  25  -5 5363.75 339.764   3
  -1 -25  -5 5327.42 371.598   5
  -1  25  -5 5587.55 381.296   6
  -1 -25  -4 432.817 138.209   5
  -1  25  -4 385.329 127.059   6
  -1  25  -4 246.747 102.571   3
  -1 -25  -3 119.201 108.150   5
  -1  25  -3-40.1164 99.2595   6
  -1  25  -3 164.877 94.3625   3
  -1  25  -2 12527.1 457.702   3
  -1  25  -2 12890.6 537.727   6
  -1 -25  -1 313.741 94.1879   4
  -1  25  -1 544.628 145.849   6
  -1  25  -1 544.443 117.981   3
  -1  25   0 3014.02 273.578   6
  -1 -25   0 2755.00 173.303   4
  -1  25   1 2476.06 249.095   6
  -1  25   2 11933.9 527.163   6
  -1  25   3 26973.3 809.994   6
  -1 -26  -7 2866.87 301.513   5
  -1  26  -7 3262.23 323.785   6
  -1 -26  -6 4153.08 353.675   5
  -1  26  -6 4161.22 356.188   6
  -1 -26  -5 2942.86 288.424   5
  -1  26  -5 2674.17 249.384   3
  -1  26  -5 2777.62 279.591   6
  -1 -26  -4 3277.63 296.728   5
  -1  26  -4 3097.82 263.028   3
  -1  26  -4 3318.18 301.131   6
  -1  26  -3 21646.8 638.519   3
  -1  26  -3 21718.1 718.531   6
  -1 -26  -3 21945.5 711.847   5
  -1 -26  -2 51.5936 82.7186   4
  -1  26  -2 65.7092 87.7810   3
  -1  26  -2 221.742 142.048   6
  -1 -26  -1 4243.88 238.156   4
  -1  26  -1 4664.73 280.065   3
  -1  26  -1 4560.81 330.304   6
  -1  26   0 6343.13 392.470   6
  -1  26   1 3646.56 313.188   6
  -1  26   2 8152.15 448.306   6
  -1  26   3 21431.3 740.944   6
  -1 -27  -7 326.329 150.684   5
  -1  27  -7 323.358 159.959   6
  -1 -27  -6 1138.42 209.159   5
  -1  27  -6 796.234 176.751   6
  -1 -27  -5-31.6483 111.030   5
  -1  27  -5 291.454 166.433   6
  -1  27  -5 74.2260 86.1065   3
  -1  27  -4 13066.0 520.850   3
  -1 -27  -4 13899.6 594.767   5
  -1  27  -4 13769.4 599.523   6
  -1 -27  -3 159.408 125.189   5
  -1  27  -3 141.585 133.860   6
  -1  27  -3 113.794 95.9027   3
  -1 -27  -2 34614.0 725.793   4
  -1  27  -2 34645.4 784.534   3
  -1  27  -2 34240.7 913.009   6
  -1 -27  -1 21.1022 62.7722   4
  -1  27  -1 58.9755 66.5501   3
  -1  27   0 13448.9 572.880   6
  -1  27   1 1428.25 212.100   6
  -1  27   2 415.001 139.784   6
  -1  27   3 889.238 191.873   6
  -1  28  -6 3016.89 312.151   6
  -1 -28  -6 2875.00 301.873   5
  -1  28  -5 13174.8 616.329   6
  -1 -28  -5 13591.4 618.270   5
  -1 -28  -4 5259.82 379.696   5
  -1  28  -4 5501.84 398.972   6
  -1 -28  -3 19350.5 591.974   4
  -1 -28  -3 19185.6 695.668   5
  -1  28  -3 18874.4 706.302   6
  -1 -28  -2 393.564 119.787   4
  -1  28  -2 447.875 154.871   6
  -1  28  -1 6463.78 413.608   6
  -1  28   0 719.460 178.979   6
  -1  28   1 14595.0 617.333   6
  -1  28   2 585.870 164.195   6
  -1  28   3 11205.9 566.392   6
  -1 -29  -5 696.007 185.948   5
  -1  29  -5 833.924 197.714   6
  -1  29  -4 3343.32 326.641   6
  -1 -29  -4 3015.26 305.262   5
  -1 -29  -3-31.8929 78.7388   4
  -1 -29  -3 154.552 128.970   5
  -1  29  -3 267.174 168.699   6
  -1  29  -2 909.970 174.917   6
  -1  29  -1 2545.37 284.734   6
  -1  29   0 788.292 186.217   6
  -1  29   1 11060.5 554.937   6
  -1  29   2 335.593 133.881   6
  -1  29   3 6117.30 433.880   6
  -1  30  -5 45.6491 136.005   6
  -1 -30  -5 152.590 140.248   5
  -1 -30  -4-131.501 125.160   5
  -1  30  -4-7.18325 128.360   6
  -1 -30  -3 4209.87 347.212   5
  -1  30  -3 4198.12 366.177   6
  -1  30  -2 79.6408 113.468   6
  -1  30  -1 2225.99 276.392   6
  -1  30   0 488.597 162.118   6
  -1  30   1 5229.41 403.966   6
  -1  30   2 2616.63 298.746   6
  -1  31  -3 0.71634 135.054   6
  -1 -31  -3 237.957 142.186   5
  -1  31  -2 2417.93 284.755   6
  -1  31  -1 1955.73 273.532   6
  -1  31   0 3284.58 329.515   6
  -1  31   1 2676.92 303.131   6
  -1  31   2 3131.79 332.834   6
  -1  32  -2 72.9188 123.711   6
  -1  32  -1 5179.76 413.402   6
  -1  32   0 152.392 142.600   6
  -1  32   1 6865.06 473.486   6
   0   0 -12 10346.1 545.761   5
   0   0 -11 6.91843 114.528   5
   0   0 -10 33200.9 849.606   5
   0   0  -9 112.786 111.773   5
   0   0  -8 1475.82 169.897   5
   0   0  -7 38.4342 69.6533   5
   0   0  -6 81435.6 974.172   5
   0   0  -5 117.251 62.1646   5
   0   0  -4 20616.1 394.879   5
   0   0  -3-1.77197 40.8736   5
   0   0  -2 592721. 1460.23   5
   0   0   2 588070. 1465.12   5
   0   0   3 31.9069 34.6102   5
   0   0   4 21033.7 396.339   5
   0   0   5 34.5712 46.2691   5
   0   0   5 48.6192 40.4934   3
   0   1 -12 4427.55 361.528   5
   0  -1 -12 4988.00 390.600   5
   0   1 -11 2576.31 266.634   5
   0  -1 -11 2671.46 273.383   5
   0  -1 -10 4170.60 310.700   5
   0   1 -10 4656.47 330.658   5
   0  -1  -9 9914.38 439.192   5
   0   1  -9 9400.10 430.505   5
   0  -1  -8 21358.9 590.829   5
   0   1  -8 21711.9 596.586   5
   0   1  -7 330.391 97.7556   5
   0  -1  -7 141.008 82.6484   5
   0   1  -6 25349.0 542.122   5
   0  -1  -6 25102.4 540.827   5
   0   1  -5 20011.7 436.165   5
   0  -1  -5 19301.0 427.171   5
   0   1  -4 125844. 975.449   5
   0  -1  -4 127632. 974.498   5
   0   1  -3 96846.6 736.498   5
   0  -1  -3 98269.2 734.712   5
   0   1  -2 121205. 668.363   5
   0  -1  -2 116838. 657.788   5
   0  -1   2 117816. 656.491   5
   0   1   2 116925. 657.013   5
   0  -1   2 117617. 693.419   3
   0  -1   3 98330.0 738.276   5
   0   1   3 99464.5 741.969   5
   0  -1   3 99359.2 777.354   3
   0  -1   4 130841. 985.361   5
   0   1   4 129251. 986.722   5
   0  -1   4 130439. 1033.99   3
   0  -1   5 20506.5 443.371   5
   0   1   5 20055.4 437.539   5
   0  -1   5 20985.3 467.407   3
   0  -2 -12 2888.95 297.786   5
   0   2 -12 2303.67 263.530   5
   0   2 -11 14466.7 605.621   5
   0  -2 -11 14373.1 605.735   5
   0   2 -10 1011.63 165.066   5
   0  -2 -10 907.106 162.568   5
   0  -2  -9 8879.13 413.228   5
   0   2  -9 8348.87 403.013   5
   0  -2  -8 20957.0 588.237   5
   0   2  -8 20940.6 589.759   5
   0  -2  -7 157063. 1475.39   5
   0   2  -7 158814. 1490.78   5
   0   2  -6 3485.45 211.808   5
   0  -2  -6 3505.26 209.801   5
   0   2  -5 54305.9 724.040   5
   0  -2  -5 54529.3 728.158   5
   0   2  -4 2460.35 145.462   5
   0  -2  -4 2371.73 139.220   5
   0   2  -3 262728. 1222.03   5
   0  -2  -3 255874. 1211.81   5
   0   2  -2 572.868 58.4397   5
   0  -2  -2 619.953 57.9394   5
   0  -2   2 686.077 59.3257   5
   0   2   2 620.680 58.7625   5
   0  -2   2 634.532 60.9618   3
   0  -2   3 261294. 1212.63   5
   0   2   3 262737. 1225.45   5
   0  -2   3 261351. 1272.09   3
   0  -2   4 2444.16 141.386   5
   0   2   4 2411.42 143.218   5
   0  -2   4 2486.70 150.173   3
   0  -2   5 55407.2 729.307   5
   0   2   5 55521.7 729.289   5
   0  -2   5 56355.1 769.938   3
   0   3 -12 3259.74 319.415   5
   0  -3 -12 4305.32 359.699   5
   0  -3 -11 822.381 162.652   5
   0   3 -11 668.360 164.684   5
   0  -3 -10 9497.88 459.194   5
   0   3 -10 9215.04 455.574   5
   0  -3  -9 6493.04 360.788   5
   0   3  -9 6909.51 370.470   5
   0  -3  -8 89182.2 1213.31   5
   0   3  -8 89075.1 1209.04   5
   0   3  -7 309.111 107.404   5
   0  -3  -7 185.354 89.4502   5
   0  -3  -6 151393. 1336.80   5
   0   3  -6 152102. 1343.20   5
   0   3  -5 149.385 60.5356   5
   0  -3  -5 70.4684 55.3730   5
   0  -3  -4 283859. 1480.60   5
   0   3  -4 282343. 1485.22   5
   0  -3  -3 4011.79 154.943   5
   0   3  -3 3880.17 159.286   5
   0   3  -2 59027.9 271.733   1
   0  -3  -2 58546.0 494.088   5
   0   3  -2 57266.2 504.590   3
   0   3  -2 58226.1 494.144   5
   0   3  -1 159313. 644.129   3
   0  -3  -1 161510. 649.947   5
   0   3  -1 163583. 657.612   6
   0  -3   1 161969. 656.426   5
   0  -3   1 160252. 655.848   6
   0   3   2 57761.7 490.183   5
   0  -3   2 58377.0 515.975   3
   0  -3   2 58395.1 494.926   5
   0  -3   3 3811.59 155.024   5
   0   3   3 4076.76 155.743   5
   0  -3   3 4042.49 164.517   3
   0  -3   4 286322. 1480.44   5
   0   3   4 288217. 1492.21   5
   0  -3   4 286629. 1564.54   3
   0  -3   5 234.757 62.5723   5
   0   3   5 135.189 64.0246   5
   0  -3   5 158.567 56.4953   3
   0  -4 -12 99.3494 106.137   5
   0   4 -12 377.156 138.009   5
   0  -4 -11 3429.56 302.981   5
   0   4 -11 3402.92 301.092   5
   0  -4 -10 1239.50 196.911   5
   0   4 -10 1099.97 185.203   5
   0   4  -9 172.262 103.241   5
   0  -4  -9 223.273 102.586   5
   0  -4  -8 11358.9 435.250   5
   0   4  -8 11357.6 442.492   5
   0  -4  -7 43984.7 788.683   5
   0   4  -7 43688.2 791.025   5
   0  -4  -6 26039.9 558.653   5
   0   4  -6 26000.2 562.237   5
   0  -4  -5 23355.5 479.670   5
   0   4  -5 23651.7 485.255   5
   0  -4  -4 229713. 1349.66   5
   0   4  -4 232999. 1362.63   5
   0   4  -3 48069.3 312.613   1
   0  -4  -3 47922.1 539.358   5
   0   4  -3 47537.1 543.954   5
   0  -4  -2 36937.9 406.129   5
   0   4  -2 36458.5 413.806   3
   0   4  -2 36494.4 405.289   6
   0   4  -2 36353.0 410.710   5
   0   4  -1 24007.8 268.632   3
   0  -4  -1 26234.4 307.700   6
   0   4  -1 25035.1 285.626   6
   0   4   0 359026. 1014.00   6
   0  -4   0 360151. 1007.92   6
   0  -4   1 24688.3 222.484   2
   0   4   1 25393.4 306.910   6
   0  -4   1 24749.1 283.211   6
   0  -4   2 36099.6 415.928   3
   0  -4   2 35952.0 379.323   2
   0   4   2 37153.8 404.897   5
   0  -4   2 36861.5 405.532   5
   0  -4   3 47670.6 542.072   5
   0   4   3 46947.3 536.488   5
   0  -4   3 48928.4 575.753   3
   0  -4   4 232472. 1362.73   5
   0  -4   4 232477. 1425.33   3
   0  -4   5 23746.6 483.810   5
   0   4   5 23975.7 488.331   5
   0  -4   5 24161.5 515.471   3
   0  -5 -12 428.718 136.632   5
   0   5 -12 457.665 156.741   5
   0  -5 -11 15003.9 614.719   5
   0   5 -11 14742.7 619.352   5
   0  -5 -10 1791.56 215.433   5
   0   5 -10 1360.11 192.691   5
   0  -5  -9 7992.19 400.226   5
   0   5  -9 8031.36 405.114   5
   0  -5  -8 332.044 97.1785   5
   0   5  -8 458.341 75.7415   1
   0   5  -8 581.799 113.528   5
   0  -5  -7 16701.0 489.089   5
   0   5  -7 16065.4 334.428   1
   0   5  -7 16320.3 492.006   5
   0  -5  -6 5129.40 253.148   5
   0   5  -6 5486.53 175.539   1
   0   5  -6 5468.06 263.429   5
   0   5  -5 1960.71 93.0796   1
   0  -5  -5 1898.12 149.914   5
   0   5  -5 1789.48 147.791   5
   0   5  -4 101.446 25.9083   1
   0  -5  -4 82.9766 50.7640   5
   0   5  -4 71.1219 52.0356   5
   0   5  -3 98234.7 399.367   1
   0   5  -3 101553. 833.600   3
   0   5  -3 100090. 802.308   6
   0   5  -3 101842. 818.357   5
   0  -5  -2 3625.47 137.099   5
   0  -5  -2 4958.62 175.131   6
   0   5  -2 3743.08 140.653   3
   0   5  -2 4313.45 154.338   6
   0   5  -1 977154. 1063.97   4
   0   5  -1 964984. 1471.41   2
   0   5  -1 960852. 1798.73   3
   0  -5  -1 994699. 2033.48   6
   0   5  -1 975433. 1945.81   6
   0   5   0 394.443 49.9888   6
   0  -5   0 303.971 46.1501   6
   0   5   1 999999. 2041.65   6
   0  -5   1 984610. 1927.67   6
   0  -5   1 978711. 1427.49   2
   0  -5   2 3616.21 123.099   2
   0  -5   2 3825.68 139.300   3
   0  -5   2 4138.92 147.725   5
   0  -5   3 99470.7 827.693   3
   0  -5   3 102641. 776.718   2
   0   5   3 101712. 802.355   5
   0  -5   3 102161. 815.344   5
   0  -5   4 104.670 52.6935   5
   0   5   4 34.2001 38.9444   5
   0  -5   4 138.227 53.7665   3
   0  -5   5 2069.69 150.370   5
   0   5   5 2086.48 151.849   5
   0  -5   5 1946.10 151.284   3
   0  -6 -12 97.9511 103.205   5
   0   6 -12 83.3296 123.479   5
   0  -6 -11 309.837 136.918   5
   0   6 -11 236.947 128.910   5
   0  -6 -10 701.337 149.234   5
   0   6 -10 682.177 160.094   5
   0  -6  -9 1656.90 191.971   5
   0   6  -9 1621.13 197.915   5
   0  -6  -8 2774.08 225.664   5
   0   6  -8 2367.25 135.938   1
   0   6  -8 2356.38 210.025   5
   0  -6  -7 22323.1 567.763   5
   0   6  -7 22688.1 374.385   1
   0   6  -7 21815.0 570.684   5
   0  -6  -6 4498.76 241.061   5
   0   6  -6 4809.56 153.832   1
   0   6  -6 4812.39 248.277   5
   0  -6  -5 20189.7 460.672   5
   0   6  -5 19496.2 260.688   1
   0   6  -5 18917.6 449.938   5
   0   6  -4 188408. 655.581   1
   0  -6  -4 191629. 1276.32   5
   0   6  -4 188198. 1265.11   6
   0   6  -4 193701. 1291.04   5
   0  -6  -3 27743.2 432.014   5
   0  -6  -3 29849.3 487.902   6
   0   6  -3 26891.8 436.454   3
   0   6  -3 27675.4 435.796   6
   0   6  -3 28027.6 443.647   5
   0   6  -2 299795. 1273.19   3
   0  -6  -2 302491. 1259.07   5
   0  -6  -2 305778. 1361.56   6
   0   6  -2 308474. 1294.48   6
   0   6  -2 304722. 716.885   4
   0   6  -1 31578.8 343.036   3
   0  -6  -1 31747.5 397.489   6
   0   6  -1 32244.0 387.410   6
   0   6   0 272341. 1103.14   6
   0  -6   0 275817. 1092.24   6
   0   6   1 32821.9 402.717   6
   0  -6   1 32825.3 383.206   6
   0  -6   1 32136.7 218.090   4
   0  -6   2 296427. 1097.32   2
   0  -6   2 305256. 1260.30   3
   0  -6   2 302295. 1280.06   6
   0  -6   2 301614. 1279.02   5
   0  -6   3 27256.1 400.367   2
   0  -6   3 27025.4 443.074   3
   0   6   3 27646.2 430.531   5
   0  -6   3 27257.5 434.937   5
   0  -6   4 193979. 1282.56   5
   0  -6   4 191434. 1328.41   3
   0   6   4 193265. 1280.07   5
   0  -6   5 19612.6 453.729   5
   0  -6   5 20450.1 484.109   3
   0   6   5 19845.4 453.510   5
   0  -6   5 19777.5 448.969   2
   0  -7 -12 2336.11 276.677   5
   0   7 -12 2291.96 270.528   6
   0   7 -12 2952.36 322.233   5
   0  -7 -11 5635.38 386.781   5
   0   7 -11 5609.18 387.796   6
   0   7 -11 5492.29 389.047   5
   0  -7 -10 15146.4 587.844   5
   0   7 -10 15960.1 612.450   5
   0  -7  -9 257.918 110.336   5
   0   7  -9 146.444 99.0212   5
   0  -7  -8 1550.89 178.143   5
   0   7  -8 1532.08 106.579   1
   0   7  -8 1371.18 163.589   5
   0  -7  -7 548.057 112.367   5
   0   7  -7 668.865 70.0173   1
   0   7  -7 747.169 127.637   5
   0  -7  -6 36038.3 676.165   5
   0   7  -6 35629.2 382.435   1
   0   7  -6 36922.7 691.281   5
   0   7  -5 9926.00 170.496   1
   0  -7  -5 9858.02 325.824   5
   0   7  -5 10115.4 330.157   6
   0   7  -5 9790.65 336.574   5
   0  -7  -4 115737. 1009.07   5
   0  -7  -4 119339. 1094.18   6
   0   7  -4 115945. 1016.85   6
   0   7  -4 116926. 1030.23   5
   0  -7  -3 8738.18 253.624   5
   0   7  -3 8705.01 255.404   3
   0  -7  -3 8659.52 272.398   6
   0   7  -3 8633.62 254.969   6
   0   7  -2 30017.1 411.559   3
   0  -7  -2 31515.0 461.434   6
   0   7  -2 30824.6 432.809   6
   0  -7  -2 30997.8 423.526   5
   0   7  -2 29845.6 224.188   4
   0   7  -1 56619.9 382.123   2
   0  -7  -1 57396.8 568.411   6
   0   7  -1 56669.6 548.352   6
   0   7   0 3926.55 158.316   6
   0  -7   0 3429.61 139.526   6
   0   7   1 57129.9 569.450   6
   0  -7   1 57344.8 542.275   6
   0  -7   1 55771.7 315.949   4
   0  -7   2 29903.5 343.633   2
   0   7   2 31735.5 468.044   6
   0  -7   2 30495.9 424.968   6
   0  -7   2 30751.3 422.862   5
   0  -7   3 8731.46 231.105   2
   0  -7   3 8454.11 250.725   3
   0  -7   3 8891.69 254.454   5
   0  -7   4 118457. 1029.85   5
   0  -7   4 117541. 966.009   2
   0  -7   4 117488. 1055.41   3
   0   7   4 119573. 1019.77   5
   0  -7   5 10039.6 346.955   3
   0  -7   5 10633.9 330.313   2
   0   7   5 9823.23 324.769   5
   0  -8 -12 729.716 177.537   5
   0   8 -12 421.762 154.554   6
   0   8 -12 361.619 151.431   5
   0  -8 -11 19293.6 705.692   5
   0   8 -11 20578.6 731.705   6
   0   8 -11 20224.7 737.776   5
   0  -8 -10 61.9292 100.426   5
   0   8 -10 171.569 119.015   6
   0   8 -10-33.7543 102.943   5
   0  -8  -9 30280.1 775.936   5
   0   8  -9 30715.9 785.107   6
   0   8  -9 30940.6 801.785   5
   0  -8  -8 4380.64 286.357   5
   0   8  -8 4432.85 163.787   1
   0   8  -8 4691.88 292.260   6
   0   8  -8 4284.49 286.119   5
   0   8  -7 79187.1 601.035   1
   0  -8  -7 77732.8 1080.82   5
   0   8  -7 78023.7 1083.69   6
   0   8  -7 80414.4 1118.32   5
   0  -8  -6 33.8479 59.3395   5
   0   8  -6 51.3674 24.1095   1
   0   8  -6 124.731 62.6266   6
   0   8  -6 111.561 74.1358   5
   0  -8  -5 112440. 1109.53   5
   0   8  -5 114013. 1121.55   6
   0   8  -5 113148. 1132.87   5
   0  -8  -4 518.017 89.5199   5
   0  -8  -4 646.343 99.2699   6
   0   8  -4 585.576 92.1932   3
   0   8  -4 477.822 84.1750   6
   0  -8  -3 148148. 1061.84   5
   0   8  -3 143956. 1057.01   3
   0  -8  -3 149206. 1140.61   6
   0   8  -3 149099. 1076.83   6
   0   8  -3 145049. 600.250   4
   0   8  -2 22336.5 368.067   3
   0  -8  -2 22768.9 413.038   6
   0  -8  -2 21978.1 370.910   5
   0   8  -2 22562.2 388.069   6
   0   8  -2 21953.0 198.311   4
   0  -8  -1 9979.24 258.171   6
   0   8  -1 9994.42 247.895   6
   0   8  -1 9574.26 163.381   2
   0   8   0 35919.5 462.812   6
   0  -8   0 35231.4 451.141   6
   0  -8   1 10358.8 247.377   6
   0   8   1 10539.3 262.520   6
   0  -8   1 9743.17 144.964   4
   0   8   2 23458.2 427.018   6
   0  -8   2 22247.6 294.090   2
   0  -8   2 22518.4 384.385   6
   0  -8   2 23092.1 383.801   5
   0  -8   3 143788. 925.256   2
   0  -8   3 145298. 1052.99   3
   0  -8   3 149880. 1072.32   5
   0  -8   4 491.611 83.1608   5
   0  -8   4 650.306 90.9236   3
   0  -8   4 510.738 78.5260   2
   0  -8   5 113503. 1072.25   2
   0  -8   5 113367. 1158.74   3
   0   8   5 112890. 1109.18   5
   0  -9 -12 6316.61 447.238   5
   0   9 -12 6121.93 432.201   6
   0   9 -12 6087.16 440.881   5
   0  -9 -11 144.898 124.613   5
   0   9 -11-27.4294 117.968   6
   0   9 -11 220.948 150.977   5
   0  -9 -10 15838.8 602.658   5
   0   9 -10 17159.2 632.148   6
   0   9 -10 16934.4 636.910   5
   0  -9  -9 18.2859 79.3658   5
   0   9  -9 153.222 100.423   6
   0  -9  -8 15616.4 526.604   5
   0   9  -8 15762.5 532.655   6
   0   9  -8 15652.9 540.532   5
   0  -9  -7 9079.96 381.518   5
   0   9  -7 9444.99 385.619   6
   0   9  -7 8957.48 383.027   5
   0  -9  -6 4511.41 248.368   5
   0   9  -6 4252.65 246.150   6
   0   9  -6 4510.33 258.020   5
   0  -9  -5 1530.57 144.423   5
   0   9  -5 1552.28 139.412   6
   0  -9  -4 97474.9 970.705   5
   0  -9  -4 97888.3 1038.99   6
   0   9  -4 94949.4 970.111   3
   0   9  -4 97020.0 582.617   4
   0   9  -4 96685.9 969.438   6
   0  -9  -3 316445. 1609.35   5
   0   9  -3 309317. 1589.49   3
   0   9  -3 318408. 1627.14   6
   0   9  -3 311786. 849.493   4
   0  -9  -3 319597. 1737.44   6
   0   9  -2 7619.69 122.998   4
   0   9  -2 8147.84 230.015   3
   0   9  -2 7932.11 185.877   2
   0  -9  -2 8406.59 262.676   6
   0   9  -2 8357.40 252.904   6
   0   9  -1 56851.6 618.232   6
   0  -9  -1 56702.0 633.406   6
   0   9  -1 56267.8 412.673   2
   0   9   0 122.772 59.0143   6
   0  -9   0 138.334 51.0716   6
   0   9   1 58587.4 645.270   6
   0  -9   1 57946.1 613.461   6
   0  -9   1 56063.6 376.534   4
   0   9   2 8773.75 273.405   6
   0  -9   2 8558.85 252.240   6
   0  -9   3 318931. 1365.31   2
   0  -9   3 320660. 1616.25   6
   0  -9   3 321810. 1625.92   5
   0  -9   4 96702.9 880.130   2
   0  -9   4 97728.5 997.761   3
   0  -9   4 97679.3 978.833   5
   0  -9   5 1434.84 127.951   2
   0  -9   5 1431.14 139.251   3
   0 -10 -12 6882.31 465.791   5
   0  10 -12 6829.35 462.497   6
   0 -10 -11 368.256 146.356   5
   0  10 -11 632.207 168.901   6
   0  10 -11 386.337 153.747   5
   0 -10 -10 825.096 164.293   5
   0  10 -10 973.938 174.303   6
   0  10 -10 1136.50 191.813   5
   0 -10  -9 1639.83 193.671   5
   0  10  -9 1672.94 200.820   6
   0  10  -9 1717.59 208.260   5
   0 -10  -8-79.8875 93.2303   5
   0  10  -8 67.9298 81.0380   6
   0  10  -8 134.419 101.650   5
   0 -10  -7 1949.34 187.172   5
   0  10  -7 1882.71 189.598   5
   0  10  -7 1461.38 170.966   6
   0 -10  -6 2264.06 187.167   5
   0  10  -6 2377.03 191.692   6
   0  10  -5 2588.57 184.038   6
   0 -10  -5 2650.67 185.435   5
   0  10  -5 2624.66 111.980   4
   0 -10  -4 56494.4 756.835   5
   0  10  -4 56683.0 424.051   4
   0  10  -4 55964.0 759.194   6
   0  10  -4 54811.4 751.061   3
   0  10  -3 12892.0 333.545   3
   0 -10  -3 12829.4 336.422   5
   0 -10  -3 12914.8 365.471   6
   0  10  -3 13008.7 347.628   6
   0  10  -3 12127.6 166.009   4
   0  10  -2 138067. 965.232   3
   0  10  -2 136629. 781.886   2
   0  10  -2 143429. 1073.31   6
   0 -10  -1 3539.92 173.705   6
   0  10  -1 3373.28 163.635   6
   0  10  -1 3289.02 106.422   2
   0  10   0 156321. 1083.79   6
   0 -10   0 154509. 1057.95   6
   0  10   1 3564.64 175.040   6
   0 -10   1 3495.75 165.155   6
   0 -10   1 3318.74 100.399   4
   0  10   2 143131. 1121.18   6
   0 -10   2 141836. 1052.07   6
   0 -10   3 12949.9 341.158   6
   0 -10   3 12888.9 340.993   5
   0 -10   3 12702.0 273.286   2
   0 -10   4 55380.2 659.713   2
   0 -10   4 55370.3 749.660   3
   0 -10   4 56835.8 763.652   5
   0 -10   5 2836.29 176.767   2
   0 -11 -12-179.073 113.141   5
   0  11 -12 3.73108 130.343   6
   0 -11 -11 667.847 164.126   5
   0  11 -11 813.084 175.889   6
   0 -11 -10 19981.2 694.986   5
   0  11 -10 20288.6 695.856   6
   0 -11  -9 3874.68 301.136   5
   0  11  -9 3958.87 304.367   6
   0 -11  -8 911.942 144.030   5
   0  11  -8 1148.77 166.798   6
   0 -11  -7 11483.5 438.079   5
   0  11  -7 11523.9 437.576   6
   0 -11  -6 5043.77 275.371   5
   0  11  -6 5135.43 278.342   6
   0  11  -6 4923.03 168.925   4
   0 -11  -5 21119.4 510.945   5
   0  11  -5 20781.7 291.782   4
   0  11  -5 21263.7 517.651   6
   0 -11  -4 7784.36 293.373   5
   0  11  -4 7880.80 292.678   3
   0  11  -4 8528.87 309.214   6
   0  11  -4 7474.17 149.410   4
   0  11  -3 355024. 885.577   4
   0  11  -3 355644. 1783.45   3
   0 -11  -3 362117. 1819.23   5
   0 -11  -3 361872. 1957.30   6
   0  11  -3 360739. 1859.67   6
   0  11  -2 440.737 88.2122   6
   0 -11  -2 74.8783 63.6139   6
   0  11  -2 138.232 54.3679   3
   0  11  -2 157.144 43.1289   2
   0  11  -1 118839. 986.861   6
   0 -11  -1 116861. 995.546   6
   0  11  -1 115355. 631.968   2
   0  11   0 435.134 89.3869   6
   0 -11   0 358.940 73.8795   6
   0  11   1 118973. 1020.41   6
   0 -11   1 119353. 976.096   6
   0 -11   1 114120. 610.538   4
   0 -11   2 186.269 28.1205   4
   0  11   2 122.813 58.8704   6
   0 -11   2 84.2336 55.4114   6
   0 -11   3 364061. 1856.13   6
   0 -11   3 357428. 1449.70   2
   0 -11   3 364416. 1851.96   5
   0 -11   4 7745.22 247.662   2
   0 -11   5 20675.6 455.012   2
   0 -12 -12 601.064 173.367   5
   0 -12 -11 3338.05 317.502   5
   0  12 -11 2917.99 294.772   6
   0 -12 -10 635.182 163.587   5
   0  12 -10 341.459 147.788   6
   0 -12  -9 16621.3 599.063   5
   0  12  -9 17043.2 609.680   6
   0 -12  -8 1548.01 184.385   5
   0  12  -8 1567.37 191.268   6
   0 -12  -7 18373.1 560.486   5
   0  12  -7 18626.2 353.272   4
   0  12  -7 18973.1 569.777   6
   0 -12  -6 3961.33 250.165   5
   0  12  -6 4077.80 144.107   4
   0  12  -6 4021.86 257.061   6
   0 -12  -5 51177.0 812.269   5
   0  12  -5 50428.0 812.406   3
   0  12  -5 48809.3 426.533   4
   0  12  -5 50626.1 814.458   6
   0  12  -4 40962.2 688.789   6
   0 -12  -4 40014.2 670.579   5
   0  12  -4 39828.2 666.946   3
   0  12  -4 39062.5 320.754   4
   0 -12  -3 136622. 1158.17   5
   0 -12  -3 140904. 1273.35   6
   0  12  -3 138222. 1197.68   6
   0  12  -2 9941.49 277.953   3
   0  12  -2 10314.9 223.300   2
   0 -12  -2 10142.2 327.722   6
   0  12  -2 10116.3 312.293   6
   0 -12  -1 20158.1 437.788   6
   0  12  -1 20901.1 439.661   6
   0  12  -1 18971.7 267.459   2
   0  12   0 5291.19 226.891   6
   0 -12   0 4706.90 212.802   6
   0  12   1 21523.7 454.796   6
   0 -12   1 20291.4 423.970   6
   0 -12   1 18749.9 262.613   4
   0  12   2 10108.9 328.393   6
   0 -12   2 9971.05 168.040   4
   0 -12   2 10086.6 305.831   6
   0 -12   3 138257. 1180.99   6
   0 -12   3 139969. 1178.45   5
   0 -12   4 39575.9 551.898   2
   0 -12   5 50627.0 711.298   2
   0 -13 -11 2441.95 279.410   5
   0  13 -11 2158.74 267.052   6
   0 -13 -10 19969.0 704.103   5
   0  13 -10 20913.3 726.684   6
   0 -13  -9 353.539 123.993   5
   0  13  -9 327.261 133.089   6
   0 -13  -8 27502.6 736.569   5
   0  13  -8 27498.1 740.900   6
   0  13  -7 136.393 41.0139   4
   0 -13  -7 102.497 81.3028   5
   0  13  -7 88.4317 93.2855   6
   0 -13  -6 66363.1 1007.59   5
   0  13  -6 65638.2 546.373   4
   0  13  -6 65327.2 1000.60   6
   0 -13  -5 289.088 84.6304   5
   0  13  -5 288.928 79.4244   3
   0  13  -5 204.145 84.0401   6
   0  13  -5 206.503 32.9676   4
   0  13  -4 124770. 546.948   4
   0 -13  -4 127630. 1222.59   5
   0  13  -4 128477. 1251.69   6
   0  13  -4 126993. 1209.76   3
   0  13  -3 21794.4 465.286   3
   0 -13  -3 21434.2 474.871   5
   0  13  -3 23271.9 513.617   6
   0  13  -2 31391.1 507.634   3
   0  13  -2 32216.7 399.449   2
   0 -13  -2 33581.6 612.768   6
   0  13  -2 34001.4 593.345   6
   0  13  -1 9446.39 308.008   6
   0 -13  -1 9821.84 318.393   6
   0  13  -1 9169.20 192.564   2
   0  13   0 501.182 91.8594   6
   0 -13   0 333.513 76.3516   6
   0 -13   1 9462.90 302.593   6
   0  13   1 9728.73 321.729   6
   0 -13   1 9137.87 192.973   4
   0  13   2 33675.9 613.653   6
   0 -13   2 32135.7 315.612   4
   0 -13   2 32482.3 574.814   6
   0  13   3 23843.6 546.325   6
   0 -13   4 126307. 996.659   2
   0 -13   5 164.059 58.1672   2
   0 -14 -11 4483.73 370.403   5
   0  14 -11 5330.64 405.970   6
   0 -14 -10 449.687 150.818   5
   0  14 -10 452.055 152.498   6
   0 -14  -9 10527.9 487.846   5
   0  14  -9 11283.6 515.795   6
   0 -14  -8 266.875 117.267   5
   0  14  -8 395.726 120.558   6
   0 -14  -7 3911.29 275.128   5
   0  14  -7 3680.84 261.485   6
   0 -14  -6 1385.58 156.397   5
   0  14  -6 1434.99 171.228   6
   0 -14  -5 10069.8 378.760   5
   0  14  -5 9902.01 375.212   3
   0  14  -5 10012.4 385.132   6
   0  14  -5 9577.89 160.960   4
   0 -14  -4 38625.2 692.441   5
   0  14  -4 39539.5 717.547   6
   0  14  -4 38895.4 681.804   3
   0  14  -3 2695.56 173.682   3
   0 -14  -3 2534.27 173.845   5
   0  14  -3 2456.13 179.284   6
   0  14  -2 136679. 835.316   2
   0  14  -2 137158. 1229.66   6
   0 -14  -1 1507.19 136.967   6
   0  14  -1 1462.22 132.303   6
   0  14  -1 1303.52 78.1212   2
   0 -14   0 171877. 1344.92   6
   0 -14   0 164504. 971.694   4
   0  14   0 173554. 1365.06   6
   0  14   1 1625.81 151.668   6
   0 -14   1 1481.91 129.860   6
   0 -14   1 1392.91 83.5893   4
   0  14   2 137361. 1276.04   6
   0 -14   2 137458. 682.714   4
   0  14   3 2421.51 193.669   6
   0 -14   5 9918.65 311.689   2
   0 -15 -11 6170.45 425.575   5
   0  15 -11 6063.13 430.064   6
   0 -15 -10 264.667 108.794   5
   0  15 -10 360.803 137.566   6
   0 -15  -9 1469.32 204.221   5
   0  15  -9 1353.88 192.193   6
   0 -15  -8 89.4881 89.1329   5
   0  15  -8 45.1150 94.0738   6
   0 -15  -7 243.949 103.816   5
   0  15  -7-50.6839 90.3141   6
   0 -15  -6 328.891 96.8226   5
   0  15  -6 380.797 105.661   6
   0  15  -5 16315.4 485.135   3
   0 -15  -5 15562.6 480.759   5
   0  15  -5 16063.5 495.998   6
   0 -15  -4 12376.4 406.957   5
   0  15  -4 11887.1 384.122   3
   0  15  -4 12331.3 421.887   6
   0  15  -3 49657.2 730.075   3
   0 -15  -3 49353.8 762.314   5
   0  15  -3 50773.9 804.889   6
   0  15  -2 249.637 74.6107   3
   0  15  -2 63.3304 69.8983   6
   0  15  -2 186.673 51.0445   2
   0  15  -1 22831.5 517.392   6
   0  15  -1 22666.7 316.949   2
   0 -15   0 748.364 85.4235   4
   0  15   0 772.906 128.379   6
   0  15   1 22587.4 522.874   6
   0 -15   1 22019.3 326.169   4
   0  15   2 161.481 106.886   6
   0 -15   2 116.166 37.4910   4
   0  15   3 52301.9 861.297   6
   0 -15   5 15861.2 398.329   2
   0 -16 -11 87.3354 102.028   5
   0  16 -11 260.909 138.620   6
   0 -16 -10 540.045 158.179   5
   0  16 -10 474.940 160.768   6
   0 -16  -9 6773.75 406.076   5
   0  16  -9 6967.25 418.922   6
   0 -16  -8 84.4539 94.4128   5
   0  16  -8-39.2250 96.8975   6
   0 -16  -7 15062.1 538.396   5
   0  16  -7 15248.5 548.372   6
   0 -16  -6 558.261 112.550   5
   0  16  -6 689.096 135.575   6
   0 -16  -5 2061.14 188.178   5
   0  16  -5 2536.23 220.504   6
   0  16  -5 2260.27 191.100   3
   0 -16  -4 9127.10 358.310   5
   0  16  -4 9081.56 368.293   6
   0  16  -4 9217.89 344.395   3
   0  16  -3 2452.61 169.494   3
   0  16  -3 2448.04 188.704   6
   0 -16  -3 2333.61 177.951   5
   0  16  -2 107229. 1010.90   3
   0  16  -2 105659. 750.504   2
   0  16  -2 106604. 1164.12   6
   0  16  -1 81.7661 34.3186   2
   0  16  -1 584.609 108.219   6
   0 -16   0 52299.9 587.026   4
   0  16   0 54182.2 822.957   6
   0 -16   1 114.394 39.6896   4
   0  16   1 521.988 125.522   6
   0 -16   2 106681. 651.238   4
   0  16   2 104445. 1193.19   6
   0  16   3 2623.86 223.086   6
   0 -17 -11 935.610 190.131   5
   0 -17 -10 10960.9 551.659   5
   0  17 -10 12254.8 589.034   6
   0 -17  -9 637.613 145.113   5
   0  17  -9 835.732 161.976   6
   0 -17  -8 19120.6 649.295   5
   0  17  -8 18555.5 648.703   6
   0 -17  -7-73.2232 90.1170   5
   0  17  -7 45.9810 83.4077   6
   0 -17  -6 27469.9 699.567   5
   0  17  -6 27529.9 707.808   6
   0 -17  -5 2555.04 213.954   5
   0  17  -5 2667.71 211.194   3
   0  17  -5 2666.33 227.947   6
   0 -17  -4 15988.5 484.185   5
   0  17  -4 16519.8 467.233   3
   0  17  -4 16825.2 514.594   6
   0 -17  -3 354.016 85.2795   5
   0  17  -3 462.868 102.583   6
   0  17  -3 480.251 90.7226   3
   0  17  -2 10107.1 323.485   3
   0  17  -2 10091.0 233.999   2
   0  17  -2 10624.9 391.881   6
   0  17  -1 129.236 33.9619   2
   0  17  -1 253.308 89.9170   6
   0 -17   0 327.257 63.9468   4
   0  17   0 2942.24 228.048   6
   0 -17   1 175.924 46.7963   4
   0  17   1 437.188 113.148   6
   0  17   2 10797.6 404.278   6
   0 -17   2 10171.1 209.004   4
   0  17   3 576.193 120.075   6
   0 -18 -10 2316.44 279.519   5
   0  18 -10 2494.26 291.635   6
   0 -18  -9 2588.85 278.993   5
   0  18  -9 2310.15 260.346   6
   0 -18  -8 506.096 133.846   5
   0  18  -8 371.448 136.426   6
   0 -18  -7 8840.80 430.535   5
   0  18  -7 9109.53 441.076   6
   0 -18  -6 3297.08 257.547   5
   0  18  -6 3394.53 267.607   6
   0 -18  -5 10510.6 423.000   5
   0  18  -5 10025.9 426.637   6
   0  18  -5 10167.2 397.593   3
   0 -18  -4 18736.5 539.160   5
   0  18  -4 18567.7 502.632   3
   0  18  -4 19243.9 564.441   6
   0  18  -3 12500.5 391.664   3
   0  18  -3 12441.5 439.966   6
   0 -18  -3 12901.2 427.931   5
   0  18  -2 7758.44 288.964   3
   0  18  -2 7561.30 206.466   2
   0  18  -2 7961.54 350.285   6
   0  18  -1 9412.96 218.930   2
   0  18  -1 9959.31 384.015   6
   0 -18   0 28029.9 460.392   4
   0  18   0 30437.5 668.508   6
   0  18   1 10200.8 401.673   6
   0 -18   1 8887.05 230.024   4
   0  18   2 8284.04 374.013   6
   0 -18   2 7768.63 189.039   4
   0  18   3 12946.6 481.966   6
   0 -19 -10 2633.09 286.247   5
   0  19 -10 2329.03 273.482   6
   0 -19  -9 118.691 127.239   5
   0  19  -9 101.913 127.261   6
   0 -19  -8 3023.17 276.410   5
   0  19  -8 2963.73 276.771   6
   0 -19  -7 412.313 124.515   5
   0  19  -7 528.907 144.918   6
   0 -19  -6 12630.0 496.652   5
   0  19  -6 12828.1 514.422   6
   0 -19  -5 4052.67 277.066   5
   0  19  -5 4113.87 261.434   3
   0  19  -5 3923.93 282.020   6
   0 -19  -4 2792.21 229.883   5
   0  19  -4 2886.61 208.548   3
   0  19  -4 2782.32 225.629   6
   0  19  -3 6724.12 294.925   3
   0  19  -3 6993.74 344.577   6
   0  19  -2 17217.8 440.454   3
   0  19  -2 16934.2 309.220   2
   0  19  -2 16943.7 519.776   6
   0  19  -1 46346.4 487.640   2
   0  19  -1 47780.8 860.475   6
   0 -19   0 560.147 86.9407   4
   0  19   0 396.027 129.993   6
   0  19   1 47465.2 869.412   6
   0 -19   1 45707.2 534.411   4
   0  19   2 17182.5 537.732   6
   0 -19   2 17338.3 292.561   4
   0  19   3 7412.54 373.689   6
   0 -20 -10 5811.61 418.708   5
   0  20 -10 6020.15 431.827   6
   0 -20  -9 738.723 172.611   5
   0  20  -9 782.389 187.109   6
   0 -20  -8 247.352 124.824   5
   0  20  -8 107.589 119.791   6
   0 -20  -7 24.4309 90.1067   5
   0  20  -7-3.41408 99.4698   6
   0 -20  -6 14405.4 541.368   5
   0  20  -6 14240.8 552.053   6
   0  20  -5 80.2470 100.185   6
   0  20  -5 38.3094 73.1871   3
   0 -20  -5-131.757 98.4935   5
   0  20  -4 1788.35 168.891   3
   0 -20  -4 1978.80 195.053   5
   0  20  -4 1841.99 193.539   6
   0  20  -3 137.753 60.7339   3
   0  20  -3 197.221 95.2996   6
   0  20  -2 31901.8 609.195   3
   0  20  -2 31728.1 731.474   6
   0 -20  -1 528.532 96.5449   4
   0  20  -1 496.541 97.2862   3
   0  20  -1 634.245 151.503   6
   0  20  -1 456.612 65.7847   2
   0 -20   0 97754.3 898.698   4
   0  20   0 100066. 1284.03   6
   0  20   1 804.444 159.433   6
   0 -20   1 428.342 77.9693   4
   0  20   2 32107.6 751.649   6
   0 -20   2 31818.6 407.930   4
   0  20   3 265.569 120.504   6
   0 -21 -10 1295.39 228.863   5
   0 -21  -9 443.463 148.085   5
   0  21  -9 524.179 167.316   6
   0 -21  -8 1113.00 187.180   5
   0  21  -8 1242.64 209.581   6
   0 -21  -7 1682.68 221.964   5
   0  21  -7 1491.66 215.167   6
   0 -21  -6 3172.63 263.558   5
   0  21  -6 3594.26 291.069   6
   0 -21  -5 4125.37 290.045   5
   0  21  -5 4597.00 287.865   3
   0  21  -5 4582.87 315.151   6
   0  21  -4 19032.6 536.964   3
   0  21  -4 19434.1 613.852   6
   0 -21  -4 18786.7 577.120   5
   0  21  -3 2503.89 191.827   3
   0  21  -3 2192.56 214.430   6
   0  21  -2 8191.87 319.466   3
   0  21  -2 8555.26 396.270   6
   0 -21  -1 28333.2 543.547   4
   0  21  -1 28562.0 394.610   2
   0  21  -1 28778.3 562.831   3
   0  21  -1 29425.0 718.163   6
   0 -21   0 765.930 96.7104   4
   0  21   0 1346.41 181.141   6
   0  21   0 812.323 78.4831   2
   0  21   1 28583.3 717.224   6
   0 -21   1 29033.6 452.722   4
   0  21   2 8365.51 400.751   6
   0 -21   2 8583.45 217.050   4
   0  21   3 2511.87 241.034   6
   0 -22  -9 7518.07 469.099   5
   0  22  -9 7921.15 494.464   6
   0 -22  -8-48.7778 97.7192   5
   0  22  -8 43.5554 113.338   6
   0 -22  -7 30054.2 841.840   5
   0  22  -7 29898.6 867.594   6
   0 -22  -6 5360.95 354.955   5
   0  22  -6 5243.87 359.426   6
   0 -22  -5 11365.9 479.772   5
   0  22  -5 11501.0 451.973   3
   0  22  -5 11036.3 493.310   6
   0  22  -4 2325.46 234.619   6
   0  22  -4 2312.41 201.736   3
   0 -22  -4 2526.36 231.402   5
   0  22  -3 13559.1 441.435   3
   0  22  -3 12916.6 506.129   6
   0  22  -2 4878.74 251.741   3
   0  22  -2 4468.86 295.175   6
   0 -22  -1 6604.33 272.384   4
   0  22  -1 6536.66 190.609   2
   0  22  -1 7186.10 297.076   3
   0  22  -1 7717.81 393.682   6
   0  22   0 1508.91 181.945   6
   0  22   0 1441.99 98.5613   2
   0 -22   0 1550.08 124.675   4
   0  22   1 7710.34 397.924   6
   0 -22   1 6764.94 227.002   4
   0  22   2 4855.08 316.005   6
   0 -22   2 4713.47 164.017   4
   0  22   3 13428.2 553.336   6
   0 -23  -9 372.593 148.305   5
   0  23  -9 378.264 156.745   6
   0 -23  -8 8313.24 478.506   5
   0  23  -8 8667.69 497.464   6
   0 -23  -7 1295.48 200.799   5
   0  23  -7 1570.26 232.091   6
   0 -23  -6 14847.4 583.757   5
   0  23  -6 15282.1 607.913   6
   0 -23  -5 848.405 156.222   5
   0  23  -5 1081.65 192.972   6
   0  23  -5 1075.68 155.585   3
   0 -23  -4 3745.94 278.881   5
   0  23  -4 4140.77 264.169   3
   0  23  -4 3815.37 293.348   6
   0  23  -3 17740.9 512.200   3
   0  23  -3 17313.4 600.604   6
   0 -23  -2 418.148 92.3015   4
   0  23  -2 672.921 155.221   6
   0  23  -2 566.255 106.966   3
   0 -23  -1 2371.67 172.714   4
   0  23  -1 2347.26 115.184   2
   0  23  -1 2393.08 176.297   3
   0  23  -1 3196.88 267.729   6
   0 -23   0 431.423 79.9998   4
   0  23   0 309.392 52.3523   2
   0  23   0 731.576 157.328   6
   0  23   1 3268.99 277.332   6
   0 -23   1 2466.63 142.849   4
   0  23   2 578.789 146.969   6
   0 -23   2 426.223 57.3451   4
   0  23   3 18554.6 657.184   6
   0 -24  -9 5072.12 400.431   5
   0  24  -8 481.119 158.682   6
   0 -24  -8 618.355 154.588   5
   0 -24  -7 6543.96 416.992   5
   0  24  -7 6752.84 432.669   6
   0 -24  -6 1926.13 228.975   5
   0  24  -6 1896.23 239.715   6
   0 -24  -5 6971.83 396.869   5
   0  24  -5 7316.95 422.292   6
   0  24  -5 7086.59 365.914   3
   0 -24  -4 12457.6 510.774   5
   0  24  -4 13318.2 471.060   3
   0  24  -4 13317.3 550.614   6
   0  24  -3 3229.21 234.271   3
   0 -24  -3 3118.07 264.573   5
   0  24  -3 2801.90 258.531   6
   0 -24  -2 8799.83 352.340   4
   0  24  -2 9087.59 354.243   3
   0  24  -2 8800.14 444.383   6
   0 -24  -1 1346.97 140.915   4
   0  24  -1 1799.69 166.203   3
   0  24  -1 1601.33 222.191   6
   0  24   0 50947.9 1028.56   6
   0 -24   0 51257.7 714.748   4
   0 -24   1 1501.17 125.032   4
   0  24   1 1369.02 207.427   6
   0  24   2 9341.24 463.650   6
   0  24   3 2957.66 287.214   6
   0 -25  -8 251.519 137.800   5
   0  25  -8 139.726 135.597   6
   0 -25  -7 48.7413 110.529   5
   0  25  -7 411.512 164.789   6
   0 -25  -6 3.05439 116.152   5
   0  25  -6 128.318 116.893   6
   0 -25  -5 5929.51 374.303   5
   0  25  -5 6660.46 360.041   3
   0  25  -5 6666.10 415.784   6
   0  25  -4 2659.46 223.094   3
   0  25  -4 3124.90 293.980   6
   0 -25  -4 2728.88 250.324   5
   0 -25  -3 12817.2 458.544   4
   0  25  -3 13950.2 470.891   3
   0 -25  -3 13289.9 525.361   5
   0  25  -3 12648.9 544.802   6
   0 -25  -2 2187.50 188.156   4
   0  25  -2 2117.96 182.928   3
   0  25  -2 2355.79 254.839   6
   0 -25  -1 60147.5 864.186   4
   0  25  -1 62161.0 904.756   3
   0  25  -1 60075.7 1153.21   6
   0 -25   0 599.464 100.080   4
   0  25   0 1294.14 208.021   6
   0  25   1 62111.8 1181.12   6
   0  25   2 2128.57 247.437   6
   0  25   3 14089.8 596.257   6
   0 -26  -8 472.905 153.534   5
   0 -26  -7 11087.8 556.244   5
   0  26  -7 12095.8 602.796   6
   0 -26  -6 411.721 138.515   5
   0  26  -6 662.759 172.842   6
   0 -26  -5 7888.78 441.509   5
   0  26  -5 8214.30 399.694   3
   0  26  -5 8018.50 468.009   6
   0 -26  -4 1122.76 184.137   5
   0  26  -4 1048.35 194.392   6
   0  26  -4 1230.36 159.293   3
   0 -26  -3 5296.32 307.639   4
   0  26  -3 5739.42 309.096   3
   0 -26  -3 5686.77 358.416   5
   0  26  -3 5892.36 394.046   6
   0 -26  -2 1554.77 168.970   4
   0  26  -2 2078.04 235.947   6
   0  26  -1 2465.33 265.853   6
   0 -26  -1 2698.32 199.519   4
   0  26   0 7559.21 428.815   6
   0  26   0 7996.49 324.155   3
   0 -26   0 7517.58 286.809   4
   0  26   1 3236.27 299.637   6
   0  26   2 1863.04 236.109   6
   0  26   3 6349.01 428.226   6
   0 -27  -7 372.748 148.784   5
   0  27  -7 266.880 135.781   6
   0 -27  -6 14137.7 618.586   5
   0  27  -6 13124.2 624.740   6
   0 -27  -5 34.0518 99.8652   5
   0  27  -5 77.3270 140.043   6
   0 -27  -4 18187.7 602.992   4
   0 -27  -4 18962.2 671.614   5
   0  27  -4 19440.9 718.305   6
   0 -27  -3 625.654 128.583   4
   0 -27  -3 644.532 143.698   5
   0  27  -3 838.209 182.638   6
   0 -27  -2 2401.61 202.119   4
   0  27  -2 2760.33 280.448   6
   0 -27  -1 265.633 83.3943   4
   0  27  -1 347.795 128.239   6
   0  27   0 1053.15 217.850   6
   0  27   1 427.339 154.885   6
   0  27   2 2347.09 274.054   6
   0  27   3 946.018 214.235   6
   0 -28  -7 4109.90 356.617   5
   0 -28  -6 631.755 150.062   5
   0  28  -6 762.642 181.718   6
   0 -28  -5 12166.0 566.654   5
   0  28  -5 12150.8 593.532   6
   0 -28  -4 3508.72 280.047   4
   0  28  -4 3508.49 329.440   6
   0 -28  -4 3643.98 314.642   5
   0 -28  -3 4163.75 285.215   4
   0  28  -3 4076.51 347.243   6
   0 -28  -3 4600.22 348.673   5
   0 -28  -2 1994.36 191.064   4
   0  28  -2 1974.54 247.190   6
   0  28  -1 245.867 115.052   6
   0  28   0 18441.7 695.833   6
   0  28   1 133.604 112.611   6
   0  28   2 2059.93 255.658   6
   0  28   3 4207.58 368.123   6
   0 -29  -6 143.796 111.704   5
   0 -29  -5 4269.14 332.931   4
   0 -29  -5 4206.02 356.586   5
   0  29  -5 4567.53 385.279   6
   0 -29  -4 423.542 135.705   4
   0 -29  -4 95.5520 98.9799   5
   0  29  -4 452.871 163.137   6
   0 -29  -3 14728.7 532.290   4
   0 -29  -3 14672.2 610.242   5
   0  29  -3 14640.6 646.036   6
   0  29  -2 672.202 160.010   6
   0  29  -1 5822.25 412.598   6
   0  29   0 359.309 150.445   6
   0  29   1 5442.29 401.433   6
   0  29   2 336.723 142.402   6
   0  29   3 15073.6 676.766   6
   0 -30  -6 264.157 133.457   4
   0 -30  -5 647.679 145.726   4
   0 -30  -5 542.125 154.894   5
   0 -30  -4 4300.13 315.914   4
   0 -30  -4 4433.54 358.832   5
   0  30  -4 4508.08 385.434   6
   0 -30  -3 87.2382 123.194   5
   0  30  -3 271.712 155.425   6
   0  30  -2 11915.3 592.654   6
   0  30  -1 529.976 175.894   6
   0  30   0 17670.7 718.104   6
   0  30   1 582.374 171.820   6
   0  30   2 13290.7 640.087   6
   0  30   3 7.81238 125.133   6
   0 -31  -5 1.04419 121.356   5
   0 -31  -4 2924.67 304.108   5
   0 -31  -3 5153.37 376.378   5
   0  31  -3 4994.39 410.165   6
   0  31  -2 2656.20 315.389   6
   0  31  -1 1048.03 220.849   6
   0  31   0 477.503 176.184   6
   0  31   1 954.513 201.064   6
   0  31   2 2759.69 314.771   6
   0 -32  -3 1842.27 253.265   5
   1   0 -12 1183.99 207.311   5
   1   0 -11-63.4448 96.3253   5
   1   0 -10 17438.2 608.058   5
   1   0  -9 50.0835 96.5598   5
   1   0  -8 77211.7 1090.47   5
   1   0  -7 181.669 77.8116   5
   1   0  -6 13810.7 388.522   5
   1   0  -5 44.5142 60.3593   5
   1   0  -4 218947. 1218.83   5
   1   0  -3 96.2558 44.4523   5
   1   0  -2 39674.3 344.762   5
   1   0   1 4.09952 20.0209   5
   1   0   2 67038.3 548.975   5
   1   0   2 67484.4 569.098   3
   1   0   3 66.1228 38.0860   5
   1   0   3 78.3187 45.6654   3
   1   0   4 5863.32 221.885   5
   1   0   4 5756.07 231.281   3
   1   0   5 2.77117 46.3399   5
   1   0   5-7.09275 42.6496   3
   1   1 -12 7976.25 475.979   5
   1  -1 -12 8613.49 485.960   5
   1   1 -11 5436.64 371.430   5
   1  -1 -11 5517.31 371.124   5
   1   1 -10 2231.56 226.179   5
   1  -1 -10 2166.65 229.201   5
   1   1  -9 2016.98 199.658   5
   1  -1  -9 2152.17 209.474   5
   1  -1  -8 4709.47 275.436   5
   1   1  -8 4603.48 279.809   5
   1  -1  -7 58389.2 868.112   5
   1   1  -7 58246.0 871.904   5
   1   1  -6 37752.8 641.353   5
   1  -1  -6 37310.6 636.868   5
   1   1  -5 2616.77 157.821   5
   1  -1  -5 2680.16 158.031   5
   1   1  -4 60127.8 641.622   5
   1  -1  -4 60243.0 635.110   5
   1  -1  -3 41221.0 440.608   5
   1   1  -3 40867.6 454.677   5
   1  -1  -2 7579.61 148.070   5
   1   1  -2 8019.55 162.092   5
   1   1  -2 7633.60 143.499   1
   1  -1   1 72298.1 428.884   5
   1  -1   1 71567.6 477.044   3
   1   1   1 72765.8 459.095   5
   1   1   1 71752.1 471.054   2
   1  -1   2 122593. 737.610   5
   1  -1   2 120555. 782.342   2
   1  -1   2 119913. 779.129   3
   1   1   2 121426. 746.034   3
   1  -1   3 10162.4 256.842   5
   1   1   3 10018.5 256.321   5
   1  -1   3 9952.89 266.436   3
   1   1   3 10265.2 261.930   3
   1  -1   4 10247.7 295.585   5
   1   1   4 9540.10 286.024   5
   1  -1   4 10299.2 309.610   3
   1   1   4 9895.43 296.992   3
   1  -1   5 4548.28 221.323   5
   1   1   5 4473.43 220.030   5
   1  -1   5 4663.01 234.126   3
   1   1   5 4113.31 215.639   3
   1  -2 -12 70.6129 127.391   5
   1   2 -12 215.576 137.256   5
   1   2 -11 30417.0 857.615   5
   1  -2 -11 30199.6 849.100   5
   1   2 -10 33.2615 91.7774   5
   1  -2 -10 258.699 112.586   5
   1  -2  -9 12849.1 484.422   5
   1   2  -9 13163.1 492.881   5
   1  -2  -8 38975.4 770.621   5
   1   2  -8 39461.4 784.057   5
   1  -2  -7 8010.11 326.163   5
   1   2  -7 8143.09 332.553   5
   1  -2  -6 13141.2 380.312   5
   1   2  -6 13324.1 385.502   5
   1  -2  -5 5091.17 213.380   5
   1   2  -5 5144.28 220.330   5
   1  -2  -4 1807.91 118.963   5
   1   2  -4 1751.63 94.8161   1
   1   2  -4 1955.68 123.330   5
   1  -2  -3 38194.1 427.978   5
   1   2  -3 37610.1 442.885   5
   1   2  -3 38422.1 363.699   1
   1  -2  -2 13860.8 202.031   5
   1   2  -2 13845.6 183.665   1
   1   2  -2 13739.0 223.614   5
   1  -2   1 266500. 949.881   2
   1  -2   1 272205. 849.458   5
   1   2   1 282598. 825.861   3
   1   2   1 277074. 944.089   5
   1  -2   2 17647.6 282.406   5
   1  -2   2 17478.5 299.868   2
   1  -2   2 17354.6 302.515   3
   1   2   2 17978.6 295.076   5
   1   2   2 17865.0 283.847   3
   1  -2   3 321027. 1413.24   5
   1   2   3 320029. 1453.56   5
   1  -2   3 314046. 1516.63   3
   1  -2   3 317454. 1501.79   2
   1   2   3 320699. 1443.13   3
   1  -2   4 9067.82 275.547   5
   1   2   4 9233.14 281.618   5
   1  -2   4 9523.59 300.406   3
   1   2   4 9451.29 291.225   3
   1  -2   5 100442. 1024.85   5
   1   2   5 100297. 1030.68   5
   1   2   5 99480.4 1037.56   3
   1  -2   5 99925.5 1078.76   3
   1   3 -12 17587.5 703.325   5
   1  -3 -12 18286.6 702.227   5
   1   3 -11 9686.92 490.908   5
   1  -3 -11 8805.89 464.843   5
   1  -3 -10 14753.6 556.752   5
   1   3 -10 14636.5 562.897   5
   1  -3  -9 3825.50 270.374   5
   1   3  -9 3717.32 266.808   5
   1   3  -8 288.758 99.7216   5
   1  -3  -8 47.7182 72.1973   5
   1   3  -8 131.478 54.3656   1
   1  -3  -7 21911.1 538.525   5
   1   3  -7 22025.3 433.281   1
   1   3  -7 22425.8 551.461   5
   1   3  -6 895.149 111.987   5
   1  -3  -6 829.172 104.981   5
   1   3  -6 936.567 86.6970   1
   1  -3  -5 29663.6 510.941   5
   1   3  -5 29340.0 405.262   1
   1   3  -5 29834.1 525.687   5
   1  -3  -4 73.7939 49.7635   5
   1   3  -4 305.270 49.3701   1
   1   3  -4 81.3567 50.4258   5
   1  -3  -3 41283.3 451.689   5
   1   3  -3 40821.8 358.455   1
   1   3  -3 41419.1 478.655   5
   1  -3  -2 338326. 1030.67   5
   1   3  -2 338703. 1189.58   6
   1  -3  -1 10547.0 129.134   5
   1  -3  -1 10425.9 166.715   6
   1   3  -1 9905.87 174.322   6
   1  -3   1 9363.72 163.445   5
   1   3   1 9592.43 185.666   6
   1  -3   1 10086.7 187.845   2
   1  -3   2 862.463 69.1852   5
   1   3   2 751.347 70.1252   5
   1  -3   2 800.847 72.7326   3
   1  -3   2 881.690 73.5639   2
   1  -3   3 22104.0 378.623   5
   1  -3   3 21656.5 394.104   2
   1  -3   3 22195.2 407.883   3
   1   3   3 22197.6 389.026   5
   1  -3   4 181888. 1237.00   5
   1  -3   4 181236. 1319.39   3
   1  -3   4 179535. 1289.18   2
   1  -3   5 23156.5 489.643   5
   1   3   5 23312.2 499.528   5
   1  -3   5 23417.8 529.733   3
   1   3   5 23346.5 506.595   3
   1  -3   5 23727.9 522.381   2
   1  -4 -12 2583.86 281.943   5
   1   4 -12 2160.35 250.293   5
   1  -4 -11 7198.99 417.856   5
   1   4 -11 7364.94 433.059   5
   1  -4 -10 14861.5 565.154   5
   1   4 -10 15216.2 577.432   5
   1  -4  -9 5829.94 338.305   5
   1   4  -9 5983.60 341.277   5
   1  -4  -8 4774.37 278.798   5
   1   4  -8 4953.85 219.495   1
   1   4  -8 4932.36 295.050   5
   1  -4  -7 1448.78 155.747   5
   1   4  -7 1635.57 117.635   1
   1   4  -7 1596.87 164.677   5
   1  -4  -6 18526.9 452.493   5
   1   4  -6 19233.4 351.729   1
   1   4  -6 18496.2 463.605   5
   1  -4  -5 27861.2 499.583   5
   1   4  -5 28423.7 382.031   1
   1   4  -5 28134.2 518.130   5
   1  -4  -4 85261.5 768.801   5
   1   4  -4 85337.9 577.632   1
   1   4  -4 85748.6 806.054   5
   1   4  -3 52171.7 387.723   1
   1  -4  -3 52108.3 515.485   5
   1   4  -3 53542.1 561.136   5
   1  -4  -2 322.517 42.4231   5
   1   4  -2 448.408 64.4576   6
   1  -4  -1 2308.84 86.3502   6
   1   4  -1 2042.30 92.2218   6
   1   4   0 160540. 745.129   6
   1  -4   0 160739. 613.830   6
   1  -4   0 162101. 623.576   4
   1   4   1 255514. 1032.70   6
   1  -4   1 261769. 820.407   4
   1  -4   1 260598. 856.161   6
   1  -4   1 255704. 959.766   2
   1  -4   1 258868. 907.190   5
   1  -4   2 69001.2 574.177   5
   1  -4   2 67525.7 593.767   2
   1  -4   2 68436.7 633.524   3
   1   4   2 66936.2 605.646   5
   1  -4   3 26813.6 422.889   5
   1  -4   3 27577.1 446.814   2
   1  -4   3 27351.4 464.082   3
   1   4   3 26868.8 437.524   5
   1  -4   4 46629.5 634.711   5
   1  -4   4 45549.4 649.471   2
   1  -4   4 46009.1 672.258   3
   1   4   4 46670.2 643.227   5
   1  -4   5 48617.5 715.867   5
   1   4   5 50414.5 740.699   5
   1  -4   5 49763.7 772.562   3
   1  -4   5 49117.3 747.680   2
   1  -5 -12 1084.18 186.489   5
   1   5 -12 828.143 192.454   5
   1  -5 -11 3899.73 314.401   5
   1   5 -11 4063.15 327.332   5
   1  -5 -10 2647.31 251.939   5
   1   5 -10 3064.01 265.335   5
   1  -5  -9 18557.4 581.945   5
   1   5  -9 18450.6 591.992   5
   1  -5  -8 14578.4 475.977   5
   1   5  -8 14999.8 362.953   1
   1   5  -8 14884.3 494.627   5
   1  -5  -7 54997.9 850.332   5
   1   5  -7 55239.0 632.737   1
   1   5  -7 56452.7 883.238   5
   1  -5  -6 3585.36 204.880   5
   1   5  -6 3512.75 147.786   1
   1   5  -6 3484.88 210.187   5
   1  -5  -5 19991.9 424.994   5
   1   5  -5 19570.5 304.049   1
   1   5  -5 20490.4 448.872   5
   1   5  -4 42247.5 388.827   1
   1  -5  -4 43147.3 558.944   5
   1   5  -4 42986.6 587.087   5
   1  -5  -3 65624.8 597.610   5
   1   5  -3 66434.8 665.149   6
   1  -5  -2 131182. 701.146   5
   1  -5  -2 135680. 844.376   6
   1   5  -2 124881. 814.230   6
   1   5  -1 65144.7 361.474   3
   1  -5  -1 65185.9 492.320   6
   1   5  -1 65538.2 535.700   6
   1   5   0 499179. 1455.63   6
   1  -5   0 506037. 1230.39   6
   1  -5   0 505205. 1174.47   4
   1   5   1 22237.7 331.122   6
   1  -5   1 20013.1 236.602   4
   1  -5   1 20466.3 266.245   6
   1  -5   1 20910.6 274.893   5
   1  -5   2 262304. 1172.30   2
   1  -5   3 543.473 75.8404   5
   1   5   3 441.557 66.4589   5
   1  -5   3 507.030 74.1681   3
   1  -5   3 445.950 64.0584   2
   1  -5   4 2102.67 136.830   5
   1  -5   4 2226.64 149.803   2
   1  -5   4 1912.85 144.321   3
   1   5   4 2066.80 145.021   5
   1  -5   5 1054.87 113.469   5
   1   5   5 870.720 108.579   5
   1  -5   5 957.452 112.211   3
   1  -5   5 1139.16 123.035   2
   1  -6 -12 410.459 143.192   5
   1   6 -12 715.928 181.157   5
   1  -6 -11 4314.01 331.620   5
   1   6 -11 4722.43 354.184   5
   1  -6 -10 480.636 132.319   5
   1   6 -10 440.650 133.789   5
   1  -6  -9 194.758 100.496   5
   1   6  -9-39.6582 85.0372   5
   1  -6  -8 24974.2 629.105   5
   1   6  -8 24451.8 445.252   1
   1   6  -8 25369.4 651.766   5
   1  -6  -7 3129.49 210.857   5
   1   6  -7 3053.29 146.582   1
   1   6  -7 3171.57 227.275   5
   1  -6  -6 12496.6 376.329   5
   1   6  -6 12737.6 265.270   1
   1   6  -6 12772.9 396.874   5
   1   6  -5 5838.79 159.812   1
   1  -6  -5 5636.74 232.218   5
   1   6  -5 5679.51 247.972   6
   1   6  -5 5633.89 246.006   5
   1  -6  -4 58080.9 652.871   5
   1   6  -4 57698.4 704.153   6
   1   6  -4 57028.7 693.304   5
   1  -6  -3 95509.7 742.275   5
   1  -6  -3 99514.9 848.201   6
   1   6  -3 97139.8 827.988   6
   1  -6  -2 9047.80 227.619   6
   1  -6  -2 8385.62 191.324   5
   1   6  -2 8349.76 187.345   3
   1   6  -2 8510.18 231.778   6
   1   6  -1 48918.2 340.815   3
   1  -6  -1 52024.4 479.769   6
   1   6  -1 50748.0 507.452   6
   1  -6   0 91190.0 585.180   6
   1   6   0 90018.3 670.476   6
   1  -6   0 90259.6 529.676   4
   1  -6   1 132693. 430.770   1
   1   6   1 137283. 867.745   6
   1  -6   1 134468. 626.485   4
   1  -6   1 137813. 750.408   6
   1  -6   1 136285. 746.260   5
   1  -6   2 34260.3 430.482   5
   1  -6   2 33485.0 423.167   2
   1  -6   3 562202. 1993.20   5
   1  -6   3 543680. 1992.56   2
   1  -6   3 547317. 2139.51   3
   1   6   3 558845. 2080.79   5
   1  -6   4 468.589 75.2472   5
   1   6   4 528.211 82.2863   5
   1  -6   4 540.271 83.0044   3
   1  -6   4 561.319 83.9372   2
   1  -6   5 3779.56 212.215   2
   1  -7 -12 5354.96 391.620   5
   1   7 -12 5779.62 409.603   6
   1   7 -12 5960.24 423.257   5
   1  -7 -11 329.204 150.074   5
   1   7 -11 433.696 147.139   6
   1   7 -11 237.976 115.606   5
   1  -7 -10 29472.9 796.497   5
   1   7 -10 30679.5 832.184   5
   1  -7  -9 538.909 113.126   5
   1   7  -9 869.518 154.802   5
   1  -7  -8 66512.9 1030.10   5
   1   7  -8 67538.8 709.920   1
   1   7  -8 67361.1 1073.68   5
   1  -7  -7 7242.18 320.731   5
   1   7  -7 7385.43 215.265   1
   1   7  -7 7095.90 328.945   6
   1   7  -7 7421.57 336.565   5
   1   7  -6 8673.86 206.936   1
   1  -7  -6 8503.75 314.017   5
   1   7  -6 8591.42 333.454   6
   1   7  -6 8624.64 336.671   5
   1  -7  -5 4290.39 208.218   5
   1   7  -5 4795.41 232.224   6
   1   7  -5 4454.44 225.209   5
   1  -7  -4 480.376 73.1755   5
   1   7  -4 506.558 91.2745   6
   1  -7  -3 5770.45 190.706   5
   1  -7  -3 5575.38 230.682   6
   1   7  -3 5499.64 207.839   6
   1  -7  -2 898.912 93.4080   6
   1   7  -2 630.638 59.3656   3
   1   7  -2 823.060 86.2724   6
   1  -7  -2 546.806 61.0075   5
   1   7  -1 11720.8 178.468   3
   1   7  -1 12786.1 273.278   6
   1  -7  -1 13254.8 264.511   6
   1   7   0 47693.1 525.132   6
   1  -7   0 47962.6 464.098   6
   1  -7   0 46559.1 402.143   4
   1   7   1 48311.6 548.682   6
   1  -7   1 48387.5 392.561   4
   1  -7   1 49074.3 476.698   6
   1   7   2 86036.2 803.803   6
   1  -7   2 84488.6 684.955   6
   1  -7   2 83273.5 669.091   2
   1  -7   2 85285.2 707.663   5
   1  -7   3 7961.33 242.100   2
   1  -7   3 8307.32 250.222   5
   1  -7   4 183736. 1309.35   5
   1  -7   4 179316. 1296.78   2
   1  -7   4 184398. 1398.26   3
   1   7   4 179510. 1329.57   5
   1  -7   5 4076.06 225.176   2
   1  -8 -12 2475.55 273.079   5
   1   8 -12 2739.49 306.077   6
   1   8 -12 2800.59 311.863   5
   1  -8 -11 16974.6 650.522   5
   1   8 -11 16858.7 661.987   6
   1   8 -11 17046.8 676.222   5
   1  -8 -10 6327.68 378.633   5
   1   8 -10 6188.11 380.560   6
   1   8 -10 6376.10 394.793   5
   1  -8  -9 3090.53 255.177   5
   1   8  -9 3485.97 272.910   6
   1   8  -9 3391.35 273.788   5
   1   8  -8 14119.1 308.453   1
   1  -8  -8 14261.7 483.588   5
   1   8  -8 14059.2 500.273   6
   1   8  -8 14160.3 500.453   5
   1  -8  -7 71.8886 72.1308   5
   1   8  -7 93.8016 75.1435   6
   1   8  -7 190.584 89.4386   5
   1   8  -7 108.514 35.9619   1
   1  -8  -6 5778.10 267.386   5
   1   8  -6 6624.79 298.922   6
   1   8  -6 6492.75 299.040   5
   1  -8  -5 1882.57 144.947   5
   1   8  -5 1920.85 159.335   6
   1  -8  -4 10844.7 301.486   5
   1  -8  -4 11782.0 355.068   6
   1   8  -4 11249.9 330.482   6
   1  -8  -3 1169.80 123.195   6
   1  -8  -3 411.164 68.0243   5
   1   8  -3 810.926 99.6431   6
   1   8  -2 8514.23 200.394   3
   1  -8  -2 8297.33 241.559   6
   1   8  -2 8325.62 246.438   6
   1  -8  -1 72892.2 652.985   6
   1   8  -1 71277.3 677.990   6
   1   8   0 11019.2 275.007   6
   1  -8   0 11076.1 242.085   6
   1  -8   0 10351.1 199.534   4
   1   8   1 86622.0 778.084   6
   1  -8   1 85053.6 537.984   4
   1  -8   1 86018.1 677.728   6
   1   8   2 165.521 65.4908   6
   1  -8   2 88.1083 36.2145   2
   1  -8   2 34.0024 39.2607   6
   1  -8   2 87.3437 40.4419   5
   1  -8   3 227584. 1344.69   5
   1  -8   3 225760. 1275.56   2
   1  -8   4 21454.6 453.996   5
   1  -8   4 21782.0 449.076   2
   1  -8   4 21936.0 486.485   3
   1  -8   5 39082.0 673.195   2
   1  -9 -12 2633.89 284.927   5
   1   9 -12 2648.15 291.808   6
   1  -9 -11 8282.80 454.150   5
   1   9 -11 8285.04 472.618   6
   1   9 -11 8883.16 489.558   5
   1  -9 -10 6833.19 390.823   5
   1   9 -10 7481.18 425.617   6
   1   9 -10 7488.01 430.183   5
   1  -9  -9 7114.27 374.121   5
   1   9  -9 7514.04 394.343   6
   1   9  -9 7200.68 390.944   5
   1  -9  -8 1446.51 171.376   5
   1   9  -8 1293.11 173.451   6
   1   9  -8 1477.86 180.281   5
   1  -9  -7 18158.0 509.951   5
   1   9  -7 19320.0 553.207   6
   1  -9  -6 9283.94 344.178   5
   1   9  -6 9283.02 359.058   6
   1   9  -5 26467.0 555.276   6
   1  -9  -5 25990.7 519.332   5
   1  -9  -4 2227.90 143.740   5
   1  -9  -4 2408.38 166.993   6
   1   9  -4 2023.17 63.5507   4
   1   9  -4 2531.55 169.757   6
   1  -9  -3 28091.0 444.173   5
   1  -9  -3 29380.2 514.075   6
   1   9  -3 28489.5 440.241   3
   1   9  -3 28126.6 503.035   6
   1   9  -2 4120.19 182.345   6
   1   9  -2 4058.86 145.999   3
   1  -9  -2 3854.54 173.466   6
   1   9  -1 76513.5 514.885   3
   1   9  -1 77655.1 748.185   6
   1  -9  -1 78888.3 714.265   6
   1   9   0 10148.6 273.954   6
   1  -9   0 10131.6 247.985   6
   1  -9   0 10032.9 208.010   4
   1  -9   1 42264.3 506.435   6
   1  -9   1 40986.2 388.817   4
   1   9   1 43671.6 582.697   6
   1   9   2 3125.85 174.398   6
   1  -9   2 3289.77 151.933   6
   1  -9   2 3243.57 152.157   5
   1  -9   3 939.839 95.8251   5
   1  -9   3 981.121 92.5245   2
   1  -9   4 98049.7 988.106   5
   1  -9   4 95546.1 941.674   2
   1  -9   5 4960.14 240.520   2
   1 -10 -12 1453.01 222.330   5
   1  10 -12 1345.11 230.831   6
   1 -10 -11 2077.02 247.110   5
   1  10 -11 2051.90 252.330   6
   1 -10 -10 31664.0 828.112   5
   1  10 -10 32049.9 867.888   6
   1 -10  -9 901.853 148.167   5
   1  10  -9 749.529 148.257   6
   1 -10  -8 10751.1 427.510   5
   1  10  -8 11586.3 461.838   6
   1 -10  -7 9063.68 372.269   5
   1  10  -7 8973.49 383.149   6
   1 -10  -6 17970.1 479.076   5
   1  10  -6 18498.9 510.483   6
   1 -10  -5 1137.08 120.374   5
   1  10  -5 1249.14 136.600   6
   1 -10  -4 117449. 1029.65   5
   1 -10  -4 117361. 1147.78   6
   1  10  -4 118093. 1113.39   6
   1 -10  -3 1654.43 118.499   5
   1 -10  -3 1920.09 157.581   6
   1  10  -3 1866.92 120.712   3
   1  10  -3 1832.85 138.635   6
   1 -10  -2 154454. 1126.33   6
   1  10  -2 149120. 906.536   3
   1  10  -1 57705.4 478.985   3
   1 -10  -1 54805.7 626.466   6
   1  10  -1 53967.6 655.316   6
   1  10   0 2948.02 188.123   6
   1 -10   0 2356.00 148.517   6
   1  10   1 1065.73 113.953   6
   1 -10   1 1031.55 68.5741   4
   1 -10   1 926.426 81.1235   6
   1 -10   2 22219.9 178.509   1
   1  10   2 24183.9 480.231   6
   1 -10   2 24719.6 312.488   4
   1 -10   2 24747.9 430.004   6
   1 -10   2 24721.5 431.605   5
   1 -10   3 7619.51 262.277   5
   1 -10   3 7495.86 237.711   2
   1 -10   4 6511.53 246.914   2
   1 -10   5 8411.66 313.936   2
   1 -11 -12 9178.83 517.256   5
   1  11 -12 9129.55 532.701   6
   1 -11 -11 4608.94 351.932   5
   1  11 -11 5369.73 392.912   6
   1 -11 -10 1684.58 209.338   5
   1  11 -10 1562.71 213.049   6
   1 -11  -9 10049.9 449.926   5
   1  11  -9 9843.33 465.061   6
   1 -11  -8 484.335 117.962   5
   1  11  -8 518.460 125.658   6
   1 -11  -7 67508.3 1014.60   5
   1  11  -7 70648.0 1078.79   6
   1 -11  -6 167.241 74.2043   5
   1  11  -6 70.6734 68.6585   6
   1 -11  -5 51762.2 760.970   5
   1  11  -5 47066.1 319.399   4
   1  11  -5 51558.6 811.525   6
   1 -11  -4 22992.9 469.800   5
   1  11  -4 22596.0 506.639   6
   1 -11  -3 103896. 915.968   5
   1 -11  -3 102822. 1034.35   6
   1  11  -3 104851. 1027.45   6
   1  11  -3 100749. 862.133   3
   1  11  -2 22581.3 362.929   3
   1 -11  -2 23168.8 453.828   6
   1  11  -2 22740.3 461.511   6
   1  11  -1 29222.3 357.505   3
   1 -11  -1 29910.1 488.600   6
   1  11  -1 30220.7 515.098   6
   1  11   0 81395.9 845.736   6
   1 -11   0 82192.5 788.474   6
   1 -11   0 79675.8 635.009   4
   1  11   1 8328.10 282.999   6
   1 -11   1 7882.14 246.779   6
   1 -11   1 8153.36 188.539   4
   1  11   2 77448.1 887.669   6
   1 -11   2 76336.9 563.465   4
   1 -11   2 77680.6 792.037   6
   1 -11   2 77868.7 790.247   5
   1 -11   3 176.390 52.9856   6
   1 -11   3 293.184 66.2182   5
   1 -11   4 52796.6 699.152   2
   1 -11   5 13969.6 400.655   2
   1 -12 -12 545.270 173.325   5
   1 -12 -11 13474.4 592.840   5
   1  12 -11 14105.5 630.120   6
   1 -12 -10 549.473 149.725   5
   1  12 -10 572.198 154.120   6
   1 -12  -9 13393.7 522.608   5
   1  12  -9 14584.0 570.996   6
   1 -12  -8 236.886 102.106   5
   1  12  -8 278.479 109.615   6
   1 -12  -7 1707.97 173.105   5
   1  12  -7 1384.59 87.1796   4
   1  12  -7 1677.79 192.832   6
   1 -12  -6 4185.44 243.216   5
   1  12  -6 3846.21 109.836   4
   1  12  -6 4036.14 255.183   6
   1 -12  -5 235.532 72.3182   5
   1  12  -5 273.419 87.3109   6
   1 -12  -4 1749.65 142.835   5
   1  12  -4 1692.89 164.617   6
   1 -12  -3 56480.0 704.576   5
   1  12  -3 56969.5 668.144   3
   1 -12  -3 58980.8 800.367   6
   1  12  -3 59671.1 805.575   6
   1 -12  -2 236.557 64.1994   6
   1  12  -2 229.189 67.3598   6
   1  12  -2 192.021 42.3239   3
   1 -12  -1 77459.5 714.347   4
   1  12  -1 76588.3 605.214   3
   1  12  -1 78446.1 866.227   6
   1 -12  -1 78563.8 828.825   6
   1  12   0 5846.22 246.319   6
   1 -12   0 5635.89 220.231   6
   1 -12   0 5478.67 177.107   4
   1  12   1 192058. 1385.96   6
   1 -12   1 190056. 1255.86   6
   1 -12   1 183187. 923.425   4
   1  12   2 22194.5 495.290   6
   1 -12   2 22148.6 311.999   4
   1 -12   2 22192.8 442.395   6
   1 -12   2 21910.3 439.586   5
   1  12   3 177695. 1469.28   6
   1 -12   3 175589. 1300.33   6
   1 -12   3 175982. 1312.54   5
   1 -12   4 80.8738 57.2389   2
   1 -12   5 156772. 1337.77   2
   1 -13 -12 13081.0 622.067   5
   1 -13 -11 379.567 147.441   5
   1  13 -11 435.288 153.401   6
   1 -13 -10 19188.3 673.577   5
   1  13 -10 20020.9 713.412   6
   1 -13  -9 657.585 150.118   5
   1  13  -9 653.719 156.755   6
   1 -13  -8 12923.4 489.339   5
   1  13  -8 13931.2 533.759   6
   1 -13  -7 2375.92 207.072   5
   1  13  -7 2253.52 93.8154   4
   1  13  -7 2278.38 213.250   6
   1 -13  -6 397.970 103.384   5
   1  13  -6 401.971 112.789   6
   1 -13  -5 126.038 85.0747   5
   1  13  -5 537.086 130.117   6
   1 -13  -4 3546.13 202.021   5
   1  13  -4 3384.46 189.830   3
   1  13  -4 3541.00 223.438   6
   1 -13  -3 24355.4 481.148   5
   1  13  -3 24900.2 537.109   6
   1  13  -3 24246.0 444.533   3
   1  13  -2 9218.85 245.579   3
   1 -13  -2 9173.48 312.663   6
   1  13  -2 9493.64 322.669   6
   1 -13  -1 19348.3 368.384   4
   1  13  -1 17729.8 180.522   2
   1  13  -1 19049.3 315.632   3
   1  13  -1 20164.4 457.213   6
   1 -13  -1 20071.2 439.469   6
   1  13   0 43598.3 672.062   6
   1 -13   0 43091.9 627.113   6
   1 -13   0 41769.3 497.444   4
   1  13   1 5772.84 260.043   6
   1 -13   1 5359.76 224.622   6
   1 -13   1 5629.97 172.134   4
   1  13   2 127989. 1221.51   6
   1 -13   2 129837. 775.329   4
   1 -13   2 130670. 1111.51   6
   1 -13   2 132220. 1105.62   5
   1  13   3 2520.42 190.159   6
   1 -13   3 2487.77 171.411   6
   1 -13   4 101427. 978.467   2
   1 -13   5 14320.7 402.478   2
   1 -14 -12 176.643 122.672   5
   1 -14 -11 1299.08 207.058   5
   1  14 -11 1088.33 216.246   6
   1 -14 -10 6376.90 396.094   5
   1  14 -10 6428.40 413.465   6
   1 -14  -9 7643.74 407.719   5
   1  14  -9 7217.55 416.960   6
   1 -14  -8 35115.9 812.762   5
   1  14  -8 35688.0 854.841   6
   1 -14  -7 1924.22 189.812   5
   1  14  -7 2200.99 226.747   6
   1 -14  -6 75102.2 1044.02   5
   1  14  -6 75906.8 1114.99   6
   1 -14  -5 18051.8 484.780   5
   1  14  -5 17854.7 518.514   6
   1 -14  -4 33634.4 617.126   5
   1  14  -4 35976.0 692.299   6
   1  14  -4 35022.0 602.355   3
   1  14  -3 17061.8 382.442   3
   1 -14  -3 17322.5 420.531   5
   1  14  -3 17453.9 465.712   6
   1  14  -2 50046.1 590.204   3
   1 -14  -2 51619.5 762.898   6
   1  14  -2 52121.2 775.489   6
   1 -14  -1 5023.54 199.133   4
   1  14  -1 4440.33 95.2105   2
   1  14  -1 4861.10 168.678   3
   1  14  -1 5499.67 256.113   6
   1 -14  -1 5301.24 238.487   6
   1  14   0 16511.2 442.687   6
   1 -14   0 15764.8 398.893   6
   1 -14   0 15057.3 309.887   4
   1  14   1 34740.3 640.311   6
   1 -14   1 35018.4 588.528   6
   1 -14   1 34121.5 428.839   4
   1  14   2 682.897 139.648   6
   1 -14   2 497.739 54.1583   4
   1 -14   2 568.644 91.8424   6
   1 -14   2 495.547 84.7271   5
   1  14   3 65995.7 959.349   6
   1 -14   5 19636.9 475.122   2
   1 -15 -11 4937.90 377.740   5
   1  15 -11 5009.74 396.955   6
   1 -15 -10 1202.29 194.701   5
   1  15 -10 1241.38 211.237   6
   1 -15  -9 19998.6 655.836   5
   1  15  -9 21144.7 709.188   6
   1 -15  -8 277.573 118.835   5
   1  15  -8 185.314 109.192   6
   1 -15  -7 46558.1 890.048   5
   1  15  -7 46526.0 934.526   6
   1 -15  -6 2775.41 215.452   5
   1  15  -6 2846.17 230.489   6
   1 -15  -5 25822.2 591.072   5
   1  15  -5 25918.6 632.860   6
   1 -15  -4 69.3242 62.1057   5
   1  15  -4-8.24854 80.2394   6
   1  15  -4 69.6697 55.0484   3
   1  15  -3 111816. 992.755   3
   1 -15  -3 114321. 1105.40   5
   1  15  -3 113463. 1211.60   6
   1  15  -2 1881.06 125.187   3
   1  15  -2 2322.11 181.400   6
   1 -15  -1 60574.0 693.042   4
   1  15  -1 57551.0 348.822   2
   1  15  -1 60809.7 611.498   3
   1  15  -1 62104.2 869.983   6
   1  15   0 68757.9 920.607   6
   1 -15   0 69397.6 862.387   6
   1 -15   0 66345.2 668.457   4
   1  15   1 7425.70 317.282   6
   1 -15   1 6882.04 277.076   6
   1 -15   1 6378.91 192.875   4
   1 -15   2 488.813 57.6619   4
   1  15   2 687.097 115.655   6
   1  15   3 2506.31 211.718   6
   1 -16 -11 13985.6 626.043   5
   1  16 -11 13420.7 639.964   6
   1 -16 -10 6836.81 419.999   5
   1  16 -10 6480.87 430.069   6
   1 -16  -9 330.431 127.722   5
   1  16  -9 391.665 140.786   6
   1 -16  -8 6983.76 377.839   5
   1  16  -8 7211.68 407.877   6
   1 -16  -7 504.456 120.448   5
   1  16  -7 704.345 147.643   6
   1 -16  -6 24893.8 628.517   5
   1  16  -6 23481.8 646.578   6
   1 -16  -5 16240.5 481.690   5
   1  16  -5 17347.5 536.002   6
   1 -16  -4 1892.23 162.565   5
   1  16  -4 1752.38 172.236   6
   1  16  -4 1962.67 152.932   3
   1 -16  -3 869.973 112.012   5
   1  16  -3 1357.35 184.840   6
   1  16  -3 906.720 101.394   3
   1  16  -2 4931.40 197.324   3
   1  16  -2 5578.07 278.558   6
   1 -16  -1 59616.9 706.293   4
   1  16  -1 59765.4 631.748   3
   1  16  -1 62027.9 898.790   6
   1  16   0 40790.8 732.496   6
   1 -16   0 41272.0 544.613   4
   1  16   1 13013.1 426.813   6
   1 -16   1 11949.3 270.632   4
   1 -16   2 7687.26 205.135   4
   1  16   2 7408.53 330.857   6
   1 -16   3 16868.6 154.181   1
   1  16   3 23474.5 614.753   6
   1 -17 -11 2011.69 256.099   5
   1 -17 -10 11886.9 559.471   5
   1  17 -10 11847.9 578.645   6
   1 -17  -9 26.0563 102.625   5
   1  17  -9 43.5246 103.147   6
   1 -17  -8 3262.12 266.568   5
   1  17  -8 3602.33 293.931   6
   1 -17  -7 4004.73 278.729   5
   1  17  -7 3785.94 285.758   6
   1 -17  -6 9325.62 395.910   5
   1  17  -6 9983.86 435.980   6
   1 -17  -5 17972.9 518.520   5
   1  17  -5 18120.3 561.004   6
   1 -17  -4 689.250 118.652   5
   1  17  -4 624.301 127.923   6
   1  17  -4 661.847 97.4353   3
   1  17  -3 6117.97 246.506   3
   1  17  -3 6134.20 306.484   6
   1  17  -2 12537.0 321.813   3
   1  17  -2 13896.2 452.044   6
   1 -17  -1 563.112 93.2835   4
   1  17  -1 349.119 66.9165   3
   1  17  -1 395.992 111.303   6
   1  17  -1 231.996 26.0655   2
   1  17   0 92812.4 1138.97   6
   1 -17   0 90885.9 830.984   4
   1  17   1 7220.66 335.662   6
   1 -17   1 7143.27 218.973   4
   1  17   2 63342.7 978.662   6
   1 -17   2 62383.2 597.148   4
   1  17   3 804.331 140.771   6
   1 -17   3 717.511 39.1853   1
   1 -18 -11 6713.42 448.124   5
   1 -18 -10 163.311 117.407   5
   1  18 -10-26.8547 116.230   6
   1 -18  -9 7433.27 427.546   5
   1  18  -9 7461.06 446.929   6
   1 -18  -8 203.291 92.8928   5
   1  18  -8 433.361 148.745   6
   1 -18  -7 12302.6 490.624   5
   1  18  -7 12012.6 509.605   6
   1 -18  -6 717.765 125.996   5
   1  18  -6 618.472 144.009   6
   1 -18  -5 58.1163 71.6092   5
   1  18  -5 77.6310 87.1123   6
   1 -18  -4 543.145 110.285   5
   1  18  -4 364.383 116.712   6
   1  18  -4 268.845 78.0833   3
   1  18  -3 14370.0 384.732   3
   1  18  -3 14911.5 488.218   6
   1 -18  -2 337.778 85.9313   4
   1  18  -2 673.588 127.013   6
   1  18  -2 263.071 59.5911   3
   1 -18  -1 54485.2 717.708   4
   1  18  -1 54606.5 649.119   3
   1  18  -1 55792.7 913.280   6
   1  18   0 12875.6 446.174   6
   1 -18   0 11455.1 309.598   4
   1 -18   1 60971.4 646.504   4
   1  18   1 62922.1 987.052   6
   1  18   2 13172.8 465.272   6
   1 -18   2 12655.2 277.043   4
   1  18   3 34992.0 788.006   6
   1 -18   3 29825.3 264.756   1
   1 -19 -11 333.895 140.229   5
   1 -19 -10 742.185 173.163   5
   1  19 -10 632.622 172.676   6
   1 -19  -9 2847.99 275.928   5
   1  19  -9 2962.19 295.252   6
   1 -19  -8 711.301 150.034   5
   1  19  -8 839.463 175.681   6
   1 -19  -7 32726.5 802.896   5
   1  19  -7 33662.6 871.011   6
   1 -19  -6 1950.51 199.433   5
   1  19  -6 1781.14 211.996   6
   1  19  -5 11365.6 475.325   6
   1 -19  -5 10892.7 426.368   5
   1 -19  -4 717.769 121.279   5
   1  19  -4 704.189 134.713   6
   1  19  -4 826.581 112.313   3
   1  19  -3 5259.31 238.490   3
   1  19  -3 5231.32 301.252   6
   1 -19  -2 3775.24 213.911   4
   1  19  -2 3587.70 185.012   3
   1  19  -2 3781.07 262.986   6
   1 -19  -1 33974.6 578.457   4
   1  19  -1 34438.9 530.323   3
   1  19  -1 35791.9 759.001   6
   1 -19   0 945.777 100.228   4
   1  19   0 1070.01 154.658   6
   1  19   1 999.521 180.696   6
   1 -19   1 419.818 75.2145   4
   1  19   2 38621.9 815.809   6
   1 -19   2 38642.2 493.525   4
   1  19   3 21097.0 630.660   6
   1 -19   3 18266.1 223.756   1
   1 -20 -10 9980.82 527.848   5
   1  20 -10 10393.4 567.162   6
   1 -20  -9 524.972 158.899   5
   1  20  -9 538.926 164.392   6
   1 -20  -8 9727.00 469.352   5
   1  20  -8 9749.03 500.785   6
   1 -20  -7 1460.21 192.590   5
   1  20  -7 1386.67 202.675   6
   1 -20  -6 28577.6 732.356   5
   1  20  -6 30016.3 801.881   6
   1 -20  -5 316.782 112.967   5
   1  20  -5 204.958 105.106   6
   1 -20  -4 65503.3 1012.77   5
   1  20  -4 65623.6 906.625   3
   1  20  -4 64670.1 1093.18   6
   1  20  -3 340.932 121.978   6
   1  20  -3 180.003 67.0004   3
   1 -20  -2 50275.8 772.181   4
   1  20  -2 51194.4 698.889   3
   1  20  -2 51741.7 946.186   6
   1 -20  -1 8595.04 303.725   4
   1  20  -1 9218.08 283.694   3
   1  20  -1 9902.19 421.308   6
   1  20   0 5405.13 315.845   6
   1  20   0 4686.86 128.298   2
   1 -20   0 4847.99 212.639   4
   1  20   1 3076.22 255.728   6
   1 -20   1 2722.82 150.968   4
   1  20   2 2774.15 251.435   6
   1 -20   2 2850.99 140.082   4
   1  20   3 8517.54 422.543   6
   1 -20   3 7671.52 154.929   1
   1 -21 -10 318.735 130.091   5
   1 -21  -9 9303.98 496.917   5
   1  21  -9 9576.72 531.156   6
   1 -21  -8 1636.99 210.705   5
   1  21  -8 1642.19 243.304   6
   1 -21  -7 17569.6 614.127   5
   1  21  -7 18649.4 676.286   6
   1 -21  -6 6546.01 364.105   5
   1  21  -6 6315.98 393.242   6
   1 -21  -5 10715.3 441.756   5
   1  21  -5 10382.0 471.254   6
   1 -21  -4 5244.47 302.026   5
   1  21  -4 5280.79 265.032   3
   1  21  -4 4805.02 316.579   6
   1  21  -3 8214.60 400.248   6
   1  21  -3 8616.97 313.848   3
   1 -21  -2 1288.48 144.123   4
   1  21  -2 1291.08 125.279   3
   1  21  -2 1632.23 207.780   6
   1 -21  -1 10469.4 340.291   4
   1  21  -1 10680.2 311.811   3
   1  21  -1 10933.9 450.608   6
   1  21   0 11292.3 460.055   6
   1 -21   0 11394.9 327.256   4
   1  21   1 14311.1 521.419   6
   1 -21   1 14278.1 341.387   4
   1  21   2 5211.00 328.081   6
   1 -21   2 5001.52 188.432   4
   1  21   3 1944.47 232.869   6
   1 -22 -10 3197.38 315.700   5
   1 -22  -9 807.576 164.463   5
   1  22  -9 767.174 173.817   6
   1 -22  -8 3447.71 299.127   5
   1  22  -8 3468.08 320.629   6
   1 -22  -7 700.384 146.474   5
   1  22  -7 774.089 183.572   6
   1 -22  -6 7782.04 405.001   5
   1  22  -6 7605.55 425.937   6
   1 -22  -5 3769.50 271.609   5
   1  22  -5 4572.29 323.774   6
   1 -22  -4 339.803 113.490   5
   1  22  -4 136.947 93.5164   6
   1  22  -4 256.115 81.7714   3
   1 -22  -3 2460.62 198.447   4
   1  22  -3 2744.41 186.175   3
   1  22  -3 2570.97 240.586   6
   1 -22  -2 3912.75 234.156   4
   1  22  -2 3866.19 207.850   3
   1  22  -2 4188.28 299.436   6
   1  22  -1 13409.9 358.282   3
   1  22  -1 14534.9 532.816   6
   1 -22  -1 13654.2 395.438   4
   1 -22   0 1112.58 118.065   4
   1  22   0 1258.32 180.326   6
   1  22   1 59175.2 1075.74   6
   1 -22   1 57996.5 696.235   4
   1  22   2 3355.96 282.329   6
   1 -22   2 3290.06 157.091   4
   1  22   3 64220.4 1188.40   6
   1 -23 -10 5572.93 417.538   5
   1 -23  -9 346.759 138.613   5
   1  23  -9 428.086 155.321   6
   1 -23  -8 3333.56 304.976   5
   1  23  -8 3426.90 325.684   6
   1 -23  -7 60.2680 92.5499   5
   1  23  -7 175.760 121.797   6
   1 -23  -6 455.028 120.568   5
   1  23  -6 282.081 130.141   6
   1 -23  -5 5734.21 340.840   5
   1  23  -5 6328.31 390.619   6
   1 -23  -4 17111.9 560.313   5
   1  23  -4 18767.9 511.008   3
   1  23  -4 18697.3 645.368   6
   1 -23  -3 751.961 123.338   4
   1  23  -3 929.066 169.655   6
   1  23  -3 802.006 110.990   3
   1 -23  -2 30934.4 646.452   4
   1  23  -2 31958.8 593.272   3
   1  23  -2 31733.3 811.289   6
   1  23  -1 4205.03 209.385   3
   1  23  -1 4310.11 312.698   6
   1 -23  -1 3878.00 219.564   4
   1  23   0 32704.4 809.098   6
   1 -23   0 32145.8 570.876   4
   1  23   1 683.971 189.407   6
   1 -23   1 252.554 96.9113   4
   1  23   2 38125.3 902.694   6
   1 -23   2 38883.3 536.176   4
   1  23   3 554.289 171.550   6
   1 -24  -9 1764.00 241.503   5
   1 -24  -8 6721.76 425.216   5
   1  24  -8 7317.89 483.841   6
   1 -24  -7 200.780 127.029   5
   1  24  -7 131.001 142.279   6
   1 -24  -6 4854.66 336.028   5
   1  24  -6 5537.67 387.736   6
   1 -24  -5 3589.98 280.064   5
   1  24  -5 3717.65 316.188   6
   1 -24  -4 6051.74 332.745   4
   1 -24  -4 5952.62 344.172   5
   1  24  -4 6218.44 303.704   3
   1  24  -4 6132.21 385.112   6
   1 -24  -3 860.936 142.951   4
   1  24  -3 946.795 175.878   6
   1  24  -3 822.345 120.237   3
   1 -24  -2 2994.90 217.110   4
   1  24  -2 2990.34 195.658   3
   1  24  -2 3070.91 283.170   6
   1  24  -1 8490.25 299.095   3
   1  24  -1 9017.01 449.540   6
   1 -24  -1 8460.90 326.715   4
   1  24   0 14924.1 381.091   3
   1  24   0 16965.1 606.325   6
   1 -24   0 15629.4 409.640   4
   1 -24   1 32830.6 546.781   4
   1  24   1 32665.8 844.754   6
   1  24   2 3260.43 295.040   6
   1  24   3 2905.35 285.436   6
   1 -25  -9 10898.4 565.867   5
   1 -25  -8 2508.12 284.639   5
   1  25  -8 2729.47 306.696   6
   1 -25  -7 15711.0 630.022   5
   1  25  -7 16734.1 696.024   6
   1 -25  -6 114.034 104.510   5
   1  25  -6 120.217 114.601   6
   1 -25  -5 26829.7 761.677   5
   1  25  -5 27490.9 835.695   6
   1 -25  -4 1453.24 182.451   4
   1 -25  -4 1390.75 187.253   5
   1  25  -4 1472.71 210.233   6
   1  25  -4 1663.87 165.379   3
   1 -25  -3 26538.9 665.864   4
   1 -25  -3 26059.3 710.207   5
   1  25  -3 26977.8 587.717   3
   1  25  -3 27005.0 798.223   6
   1 -25  -2 11735.8 418.520   4
   1  25  -2 11694.5 371.575   3
   1  25  -2 12540.5 546.228   6
   1  25  -1 2970.62 278.214   6
   1 -25  -1 2509.77 186.155   4
   1  25   0 3050.81 282.676   6
   1 -25   0 2856.93 185.561   4
   1  25   1 671.883 178.979   6
   1 -25   1 323.693 81.9718   4
   1  25   2 13387.4 573.217   6
   1  25   3 89.6520 119.775   6
   1 -26  -8 11379.0 573.399   5
   1 -26  -7 4394.68 348.543   5
   1  26  -7 4319.69 367.999   6
   1 -26  -6 12333.7 554.659   5
   1  26  -6 13029.3 607.645   6
   1 -26  -5 62.0483 102.227   4
   1 -26  -5 27.1404 105.799   5
   1  26  -5 31.7578 131.674   6
   1 -26  -4 10310.9 450.877   4
   1 -26  -4 9701.35 463.225   5
   1  26  -4 10354.9 523.464   6
   1 -26  -3 21161.5 608.155   4
   1 -26  -3 20624.7 650.987   5
   1  26  -3 21947.7 742.530   6
   1  26  -2 8833.94 468.451   6
   1 -26  -2 8104.03 357.720   4
   1  26  -1 3487.76 301.983   6
   1 -26  -1 3415.36 221.550   4
   1  26   0 5834.67 385.245   6
   1 -26   0 6307.75 272.263   4
   1  26   1 4209.35 335.236   6
   1  26   2 303.204 156.170   6
   1  26   3 22682.4 782.133   6
   1 -27  -8 1331.51 221.845   5
   1 -27  -7-46.0731 127.512   5
   1 -27  -6 275.610 117.846   4
   1  27  -6 211.889 148.565   6
   1 -27  -6 256.448 125.143   5
   1 -27  -5 1171.68 181.344   4
   1 -27  -5 1165.12 192.574   5
   1  27  -5 1215.08 214.490   6
   1 -27  -4 6416.30 364.735   4
   1 -27  -4 7005.54 407.868   5
   1  27  -4 7464.28 462.801   6
   1 -27  -3 786.221 145.415   4
   1 -27  -3 1015.58 178.158   5
   1  27  -3 1218.31 211.213   6
   1 -27  -2 159.643 91.1673   4
   1  27  -2 428.297 156.919   6
   1 -27  -1 1333.18 148.733   4
   1  27  -1 1349.45 220.245   6
   1  27   0 13051.0 576.110   6
   1  27   1 247.855 149.331   6
   1  27   2 35075.1 963.606   6
   1  27   3 370.076 175.621   6
   1 -28  -7 119.997 101.033   5
   1 -28  -6 2761.38 280.545   4
   1  28  -6 2630.04 298.653   6
   1 -28  -6 2586.82 274.770   5
   1 -28  -5 2673.52 257.280   4
   1 -28  -5 2724.73 273.620   5
   1  28  -5 2942.84 312.345   6
   1 -28  -4 11366.7 495.861   4
   1  28  -4 12952.0 604.997   6
   1 -28  -4 11691.0 530.523   5
   1 -28  -3 10414.3 440.618   4
   1 -28  -3 10545.6 491.530   5
   1  28  -3 11321.8 559.956   6
   1 -28  -2 507.212 109.175   4
   1  28  -2 675.500 165.292   6
   1  28  -1 13958.6 607.156   6
   1  28   0 1096.53 206.304   6
   1  28   1 5670.39 405.616   6
   1  28   2 629.768 209.118   6
   1  28   3 19633.9 762.273   6
   1 -29  -7 1918.49 260.383   5
   1 -29  -6-57.4505 114.846   4
   1 -29  -6 2.24089 119.950   5
   1 -29  -5 6562.08 399.595   4
   1 -29  -5 7125.93 436.851   5
   1  29  -5 6578.25 458.147   6
   1 -29  -4 249.639 120.129   4
   1  29  -4-88.2688 126.252   6
   1 -29  -4 256.786 147.005   5
   1 -29  -3 5797.84 379.434   5
   1  29  -3 5777.15 418.749   6
   1 -29  -3 5852.00 340.302   4
   1  29  -2 338.458 153.776   6
   1  29  -1 10425.7 551.565   6
   1  29   0 613.663 168.049   6
   1  29   1 2859.19 307.395   6
   1  29   2 823.608 204.751   6
   1  29   3 12.4296 150.975   6
   1 -30  -6 3292.28 307.167   4
   1 -30  -6 2573.57 283.202   5
   1 -30  -5 462.600 159.790   4
   1 -30  -5 265.868 115.017   5
   1 -30  -4 14811.2 575.232   4
   1  30  -4 15256.5 688.492   6
   1 -30  -4 15334.0 631.199   5
   1 -30  -3 532.567 139.508   5
   1  30  -3 661.394 185.702   6
   1  30  -2 2785.91 301.583   6
   1  30  -1 5170.59 408.403   6
   1  30   0 206.191 143.984   6
   1  30   1 1954.59 266.884   6
   1  30   2-145.167 140.655   6
   1  30   3 4242.98 383.609   6
   1 -31  -5 9414.74 485.729   4
   1 -31  -5 9880.88 534.129   5
   1 -31  -4 194.950 126.452   5
   1 -31  -3 2876.46 291.100   5
   1  31  -2 2296.31 290.565   6
   1  31  -1 2351.84 295.039   6
   1  31   0 3288.26 338.663   6
   1  31   1 1695.32 257.878   6
   1 -32  -4 246.994 133.197   5
   1 -32  -3 2081.78 260.802   5
   2   0 -13 126.890 142.418   5
   2   0 -12 14326.6 615.066   5
   2   0 -11 109.565 112.269   5
   2   0 -10 42717.0 922.554   5
   2   0  -9-56.2074 78.4775   5
   2   0  -8 26887.9 626.995   5
   2   0  -7-20.8477 61.2824   5
   2   0  -7 86.0120 55.1714   1
   2   0  -6 68701.9 778.759   1
   2   0  -6 69332.5 836.238   5
   2   0  -5 77.2778 53.7508   5
   2   0  -5 113.175 59.2626   1
   2   0  -4 67892.0 640.410   1
   2   0  -4 68356.5 646.087   5
   2   0  -3 60.5742 42.1075   5
   2   0  -3 143.593 44.8342   1
   2   0  -2 890509. 1674.28   4
   2   0  -2 902724. 1859.96   1
   2   0  -2 902033. 1515.05   5
   2   0  -1 62.7384 29.3131   4
   2   0  -1 20.7626 18.2816   6
   2   0   1 34.7821 27.5665   5
   2   0   1 29.6730 34.0212   2
   2   0   2 4636.78 175.142   2
   2   0   2 4644.70 167.679   3
   2   0   2 4744.84 162.422   5
   2   0   3 82.2395 40.5619   5
   2   0   3 128.835 51.5690   3
   2   0   3 67.5989 45.7145   2
   2   0   4 376929. 1868.82   5
   2   0   4 376438. 1975.21   2
   2   0   4 377542. 1941.36   3
   2   0   5-16.7754 46.8739   3
   2   1 -13 4081.85 358.758   5
   2  -1 -13 3804.72 349.004   5
   2  -1 -12 64.0144 103.013   5
   2   1 -12 63.5209 101.582   5
   2   1 -11 26348.2 783.967   5
   2  -1 -11 26490.7 777.013   5
   2   1 -10 59.6065 91.9210   5
   2  -1 -10 244.824 114.529   5
   2   1  -9 11296.1 448.486   5
   2  -1  -9 11573.1 449.334   5
   2   1  -8 15048.0 472.388   5
   2  -1  -8 15166.0 474.401   5
   2  -1  -7 27825.2 584.471   5
   2   1  -7 26656.1 516.714   1
   2   1  -7 26300.7 572.746   5
   2  -1  -6 31838.7 563.112   5
   2   1  -6 32236.7 520.444   1
   2   1  -6 32154.5 574.298   5
   2   1  -5 167720. 1079.01   1
   2  -1  -5 167183. 1147.88   5
   2   1  -5 165740. 1164.05   5
   2  -1  -4 111870. 815.296   5
   2  -1  -4 114857. 852.000   1
   2   1  -4 112152. 798.571   1
   2   1  -4 113833. 845.436   5
   2  -1  -3 26199.3 327.912   5
   2  -1  -3 27176.5 372.493   1
   2   1  -3 26956.0 351.301   1
   2   1  -3 26004.7 345.652   5
   2  -1  -2 69809.6 502.370   4
   2  -1  -2 69565.9 528.415   1
   2  -1  -2 68864.3 392.826   5
   2   1  -2 70177.0 444.985   4
   2  -1  -1 386067. 1103.94   1
   2   1  -1 393429. 925.880   6
   2   1  -1 389778. 1000.79   4
   2  -1  -1 379479. 1074.50   4
   2  -1   0 7945.33 113.928   5
   2   1   0 8038.64 119.600   6
   2  -1   0 8109.31 165.720   4
   2   1   1 1575.48 91.0731   2
   2  -1   1 1571.78 76.9644   5
   2   1   1 1545.27 82.1644   5
   2  -1   1 1632.37 91.8462   2
   2  -1   2 61978.3 632.176   2
   2  -1   2 62904.4 574.870   5
   2   1   2 62886.1 636.622   2
   2  -1   2 61936.8 617.708   3
   2   1   2 62336.9 591.504   3
   2   1   2 63035.7 592.771   5
   2  -1   3 41953.3 548.983   5
   2  -1   3 42811.4 602.913   2
   2   1   3 42541.9 563.379   5
   2  -1   3 42340.6 586.930   3
   2   1   3 42014.3 593.946   2
   2   1   3 43164.5 576.162   3
   2  -1   4 4408.45 204.420   5
   2   1   4 4370.55 204.855   5
   2  -1   4 4517.53 221.726   2
   2  -1   4 4300.60 214.032   3
   2   1   4 4153.80 213.601   2
   2   1   4 4193.97 210.220   3
   2   1   5 60782.1 860.244   3
   2  -2 -13 3245.49 320.764   5
   2   2 -13 2928.15 314.137   5
   2  -2 -12 359.933 148.886   5
   2   2 -12 231.416 108.890   5
   2  -2 -11 284.656 105.699   5
   2   2 -11 452.663 132.278   5
   2  -2 -10 185.005 105.472   5
   2   2 -10 72.7440 96.8833   5
   2   2  -9 6096.26 333.284   5
   2  -2  -9 5794.84 326.072   5
   2  -2  -8 3141.40 227.958   5
   2   2  -8 2784.56 221.221   5
   2  -2  -7 67661.8 902.260   5
   2   2  -7 68392.8 799.727   1
   2   2  -7 68740.9 926.914   5
   2   2  -6 319.723 78.5388   5
   2  -2  -6 355.279 85.7095   5
   2   2  -6 260.622 60.2637   1
   2  -2  -5 22055.3 420.755   5
   2   2  -5 21717.6 379.559   1
   2   2  -5 21384.8 428.086   5
   2  -2  -4 4009.92 158.488   5
   2   2  -4 3997.43 150.304   1
   2   2  -4 3912.49 163.740   5
   2  -2  -3 255520. 1003.80   5
   2   2  -3 249729. 1043.66   1
   2   2  -3 244073. 1094.30   5
   2  -2  -2 522510. 1049.40   5
   2  -2  -2 507321. 1428.38   4
   2   2  -2 515672. 1429.34   6
   2   2  -2 528441. 1137.37   4
   2  -2  -2 524442. 1500.49   1
   2   2  -1 498483. 1098.22   4
   2  -2  -1 494030. 1275.62   1
   2   2  -1 493278. 1163.59   6
   2  -2  -1 493633. 1281.96   4
   2  -2   0 67094.5 312.804   5
   2   2   0 66566.7 410.863   6
   2  -2   0 68012.6 480.285   4
   2   2   1 18327.1 284.150   2
   2  -2   1 18489.7 250.057   5
   2   2   1 17851.6 251.761   3
   2   2   1 18215.2 277.452   5
   2  -2   1 18243.1 296.916   2
   2  -2   2 399.283 58.1643   5
   2   2   2 473.590 63.0837   5
   2  -2   2 334.008 56.9260   3
   2  -2   2 375.359 59.7307   2
   2   2   2 366.448 54.8726   3
   2   2   2 465.710 63.5633   2
   2  -2   3 16975.9 350.556   5
   2  -2   3 17084.5 380.149   2
   2  -2   3 16321.3 370.983   3
   2   2   3 16623.6 356.517   5
   2   2   3 16378.8 372.059   2
   2   2   3 16514.9 353.043   3
   2  -2   4 24913.9 479.605   5
   2  -2   4 24942.0 515.824   2
   2  -2   4 24493.7 505.714   3
   2   2   4 24637.8 486.019   5
   2   2   4 24730.5 512.141   2
   2   2   4 24513.8 489.222   3
   2   2   5 9163.40 330.860   3
   2  -3 -13 544.079 149.910   5
   2   3 -13 566.790 167.881   5
   2  -3 -12 2219.84 255.856   5
   2   3 -12 1613.05 226.302   5
   2  -3 -11 285.367 121.896   5
   2   3 -11 130.591 101.064   5
   2  -3 -10 931.233 156.619   5
   2   3 -10 967.701 168.790   5
   2  -3  -9 3472.00 250.731   5
   2   3  -9 3715.45 264.898   5
   2  -3  -8 91923.8 1147.61   5
   2   3  -8 92943.1 979.991   1
   2   3  -8 93081.8 1184.37   5
   2   3  -7 4276.40 198.762   1
   2  -3  -7 4136.31 233.128   5
   2   3  -7 4068.20 237.281   5
   2  -3  -6 17520.6 418.161   5
   2   3  -6 17093.6 361.072   1
   2   3  -6 17225.7 429.484   5
   2  -3  -5 1527.99 117.398   5
   2   3  -5 1619.98 106.930   1
   2   3  -5 1518.99 122.989   5
   2  -3  -4 230782. 1159.76   5
   2   3  -4 229137. 1086.35   1
   2   3  -4 233847. 1278.51   5
   2   3  -3 20609.8 296.615   1
   2  -3  -3 21260.9 295.775   5
   2   3  -3 21159.4 248.558   4
   2  -3  -2 298824. 1150.14   4
   2  -3  -2 299251. 805.111   5
   2  -3  -2 308481. 1189.56   1
   2   3  -2 302168. 1155.25   6
   2   3  -2 298654. 795.511   4
   2  -3  -1 321439. 811.177   6
   2  -3  -1 318312. 1049.73   1
   2   3  -1 318723. 1030.94   6
   2  -3  -1 317393. 1081.55   4
   2  -3   0 253517. 624.626   5
   2  -3   0 241081. 948.752   4
   2   3   0 251389. 898.001   6
   2  -3   1 17559.9 243.443   5
   2   3   1 17163.1 275.967   2
   2   3   1 16559.7 232.527   3
   2   3   1 16248.1 258.241   6
   2  -3   1 16961.1 293.120   2
   2  -3   2 12117.0 284.475   2
   2  -3   2 12434.2 256.779   5
   2   3   2 12398.7 282.006   2
   2   3   2 12741.7 259.486   3
   2   3   2 12370.8 276.816   5
   2  -3   3 70163.5 771.425   2
   2  -3   3 71550.7 713.296   5
   2  -3   3 69776.3 774.124   3
   2   3   3 70037.2 741.521   5
   2   3   3 71068.1 715.656   3
   2  -3   4 1010.96 105.525   5
   2   3   4 1106.58 110.654   5
   2   3   4 946.297 101.439   3
   2  -3   4 989.684 111.008   3
   2  -3   4 1058.25 115.845   2
   2   3   5 182.218 65.8921   3
   2   4 -13 5678.98 424.685   5
   2  -4 -13 5985.39 428.385   5
   2   4 -12 10050.8 529.014   5
   2  -4 -12 9664.39 507.954   5
   2   4 -11 8112.08 449.973   5
   2  -4 -11 8219.37 438.569   5
   2  -4 -10 20518.4 636.187   5
   2   4 -10 21119.4 661.825   5
   2  -4  -9 426.206 114.714   5
   2   4  -9 532.575 127.326   5
   2  -4  -8 3652.97 237.123   5
   2   4  -8 3793.02 199.360   1
   2   4  -8 3790.70 250.184   5
   2  -4  -7 10229.2 356.052   5
   2   4  -7 10546.6 301.572   1
   2   4  -7 10285.0 375.942   5
   2  -4  -6 20760.1 453.765   5
   2   4  -6 20895.1 384.547   1
   2   4  -6 22270.5 498.458   5
   2  -4  -5 4332.50 190.738   5
   2   4  -5 4086.18 158.967   1
   2   4  -5 4410.85 207.283   5
   2   4  -4 52884.2 511.648   1
   2  -4  -4 51455.3 557.806   5
   2   4  -4 52582.8 620.342   5
   2   4  -3 5442.46 117.178   4
   2  -4  -3 5253.82 150.153   5
   2   4  -3 5243.55 188.463   6
   2  -4  -2 5260.97 164.525   4
   2  -4  -2 5149.39 111.713   5
   2   4  -2 5256.04 98.8619   4
   2   4  -2 5236.29 166.608   6
   2  -4  -1 64669.3 407.507   6
   2   4  -1 65557.6 519.380   6
   2  -4  -1 65338.9 512.094   4
   2  -4  -1 65842.9 498.031   1
   2  -4   0 174261. 701.424   1
   2   4   0 170421. 831.376   6
   2  -4   0 179569. 556.578   6
   2  -4   0 177862. 822.731   4
   2   4   0 175283. 653.662   2
   2  -4   0 179680. 576.028   5
   2  -4   1 52720.3 433.662   5
   2   4   1 51821.3 475.884   2
   2   4   1 51399.5 392.374   3
   2   4   1 51514.9 491.890   6
   2  -4   2 7806.58 206.412   5
   2   4   2 7719.13 224.003   2
   2   4   2 7831.34 199.375   3
   2   4   2 7853.28 227.278   5
   2  -4   2 7590.85 227.681   2
   2  -4   3 14896.0 354.060   2
   2  -4   3 15184.5 333.755   5
   2  -4   3 14669.5 361.250   3
   2   4   3 14813.5 351.112   5
   2   4   3 14784.4 325.551   3
   2  -4   4 91368.1 914.961   5
   2  -4   4 93761.3 1002.39   2
   2  -4   4 92851.1 1003.92   3
   2   4   4 93339.4 962.507   5
   2   4   4 93607.1 931.278   3
   2   4   5 3737.19 213.608   3
   2  -5 -13 6675.46 443.524   5
   2  -5 -12 231.923 150.371   5
   2   5 -12 88.9579 119.801   5
   2  -5 -11 24028.5 737.274   5
   2   5 -11 24179.4 763.910   5
   2  -5 -10 7600.35 395.389   5
   2   5 -10 7020.32 395.456   5
   2  -5  -9 26509.0 673.318   5
   2   5  -9 26762.1 705.127   5
   2  -5  -8 1050.67 135.505   5
   2   5  -8 1303.24 121.549   1
   2   5  -8 1250.69 155.586   5
   2  -5  -7 47371.6 759.439   5
   2   5  -7 48274.4 623.585   1
   2   5  -7 47664.2 807.387   5
   2  -5  -6 7810.43 283.897   5
   2   5  -6 8079.80 237.966   1
   2   5  -6 8129.61 309.567   5
   2   5  -5 14796.1 289.817   1
   2  -5  -5 14676.3 346.359   5
   2   5  -5 14727.8 375.514   5
   2  -5  -4 3202.62 142.675   5
   2   5  -4 3368.97 175.824   6
   2  -5  -3 1860.50 93.9856   5
   2   5  -3 2002.22 126.314   6
   2   5  -3 1938.83 64.9477   4
   2  -5  -2 7890.49 205.870   4
   2  -5  -2 7784.93 148.039   5
   2  -5  -2 7733.44 193.008   6
   2   5  -2 7541.72 109.331   4
   2   5  -2 7393.92 206.194   6
   2  -5  -1 4191.96 133.879   1
   2  -5  -1 4250.42 118.215   6
   2   5  -1 4309.97 146.913   6
   2  -5  -1 4261.36 141.131   4
   2  -5   0 2505.56 88.9381   1
   2   5   0 3490.40 160.707   6
   2  -5   0 2675.77 86.9366   6
   2  -5   0 2608.34 108.924   4
   2  -5   0 2712.34 80.6087   5
   2   5   0 2465.78 75.8263   2
   2  -5   1 83145.9 565.425   5
   2   5   1 83179.9 591.764   2
   2   5   1 83538.9 485.334   3
   2  -5   1 84643.2 607.867   4
   2   5   1 83838.2 665.538   6
   2  -5   1 84270.7 507.449   6
   2  -5   2 40030.7 472.871   5
   2   5   2 40203.4 442.452   3
   2  -5   2 38857.5 510.722   2
   2  -5   3 327932. 1672.74   2
   2  -5   3 339906. 1579.88   5
   2   5   3 335044. 1686.14   5
   2   5   3 333765. 1515.07   3
   2  -5   4 9187.91 296.258   5
   2  -5   4 8740.07 306.227   2
   2  -5   4 9237.43 325.326   3
   2   5   4 9351.86 294.967   3
   2   5   4 8870.91 306.004   5
   2   5   5 79497.1 958.338   3
   2  -6 -13 198.064 129.295   5
   2   6 -12 6524.69 437.982   6
   2   6 -12 5992.91 412.468   5
   2  -6 -12 6131.52 410.519   5
   2  -6 -11 837.061 172.681   5
   2   6 -11 782.905 171.836   5
   2  -6 -10 19349.3 621.958   5
   2   6 -10 18135.1 627.691   5
   2  -6  -9 65.0855 75.6053   5
   2   6  -9 249.406 107.155   5
   2  -6  -8 33412.2 701.930   5
   2   6  -8 32708.7 540.152   1
   2   6  -8 33850.2 742.544   5
   2  -6  -7 31079.7 621.851   5
   2   6  -7 30934.0 483.812   1
   2   6  -7 30835.7 653.350   5
   2   6  -6 19533.4 355.799   1
   2  -6  -6 19718.4 451.524   5
   2   6  -6 19676.1 498.042   6
   2   6  -6 20604.3 492.835   5
   2  -6  -5 41992.0 588.511   5
   2   6  -5 41510.6 658.481   6
   2  -6  -4 146.244 51.4998   5
   2   6  -4 271.569 96.3964   6
   2  -6  -3 7882.34 195.497   5
   2   6  -3 8114.28 250.381   6
   2   6  -3 7409.90 108.017   4
   2  -6  -2 48241.8 522.503   4
   2  -6  -2 47406.9 391.693   5
   2  -6  -2 47490.8 490.356   6
   2   6  -2 47712.3 539.346   6
   2  -6  -1 194.107 43.1059   4
   2  -6  -1 218.109 40.6398   6
   2   6  -1 179.104 48.6771   6
   2   6   0 404334. 1497.74   6
   2  -6   0 408416. 1148.45   1
   2  -6   0 411658. 1330.33   4
   2   6   0 405897. 928.889   2
   2   6   1 99651.0 645.402   2
   2   6   1 97144.6 764.863   6
   2  -6   1 98469.3 665.811   4
   2   6   1 98258.3 509.973   3
   2  -6   1 97010.6 593.082   6
   2  -6   1 99339.0 642.267   5
   2  -6   2 1583.96 101.730   5
   2   6   2 1856.83 123.276   6
   2   6   2 1547.18 91.1420   3
   2  -6   2 1443.28 104.753   2
   2  -6   3 35432.9 551.013   2
   2  -6   3 36093.4 521.171   5
   2   6   3 36774.5 504.219   3
   2  -6   4 396.630 76.3166   5
   2   6   4 421.022 83.2265   5
   2  -6   4 349.166 69.2935   3
   2  -6   4 360.734 69.5973   2
   2   6   4 383.254 69.8809   3
   2   6   5 5769.74 258.776   3
   2  -7 -13 41.6266 104.754   5
   2  -7 -12 3390.51 312.061   5
   2   7 -12 3473.05 329.257   6
   2   7 -12 3201.22 310.580   5
   2  -7 -11 367.220 120.646   5
   2   7 -11 295.529 133.346   6
   2   7 -11 27.7429 108.471   5
   2  -7 -10 894.655 159.573   5
   2   7 -10 1040.05 177.756   6
   2   7 -10 941.916 169.726   5
   2  -7  -9 5789.22 323.397   5
   2   7  -9 5624.08 339.319   6
   2   7  -9 5705.57 340.163   5
   2   7  -8 2710.03 154.915   1
   2  -7  -8 2759.36 215.491   5
   2   7  -8 2884.91 234.614   6
   2   7  -8 2968.42 237.623   5
   2  -7  -7 23014.5 542.437   5
   2   7  -7 22849.6 583.620   6
   2   7  -7 22710.6 576.694   5
   2   7  -7 22931.4 406.199   1
   2  -7  -6 22230.2 483.179   5
   2   7  -6 22459.4 536.630   6
   2  -7  -5 1543.42 122.986   5
   2   7  -5 1513.75 142.903   6
   2   7  -4 196250. 658.105   4
   2  -7  -4 200040. 1156.58   5
   2   7  -4 205442. 1370.02   6
   2  -7  -3 4035.91 146.631   5
   2  -7  -3 4209.05 184.975   6
   2   7  -3 4277.02 186.261   6
   2  -7  -2 21037.1 359.693   4
   2  -7  -2 21293.7 347.218   6
   2  -7  -2 21246.2 284.024   5
   2   7  -2 21684.9 382.615   6
   2  -7  -1 20641.1 305.643   6
   2   7  -1 20591.5 359.293   6
   2  -7  -1 21001.3 329.783   4
   2  -7   0 103142. 601.265   1
   2   7   0 99591.4 451.500   2
   2   7   0 105176. 814.981   6
   2  -7   0 100035. 680.844   4
   2  -7   1 9558.53 151.228   1
   2  -7   1 9356.76 210.579   4
   2   7   1 9727.40 204.864   2
   2   7   1 9257.72 253.680   6
   2  -7   1 9304.23 200.710   6
   2  -7   1 9554.53 209.572   5
   2  -7   2 106053. 805.918   5
   2   7   2 103700. 914.922   6
   2  -7   2 104828. 858.496   2
   2  -7   3 11753.5 308.224   5
   2  -7   3 11882.1 323.391   2
   2   7   4 13339.3 352.045   3
   2  -7   4 13229.3 376.619   2
   2  -7   4 13620.5 363.281   5
   2   7   4 13138.3 377.087   5
   2   7   5 262.119 75.8198   3
   2  -8 -13-62.4392 111.400   5
   2  -8 -12 650.908 164.614   5
   2   8 -12 612.685 166.134   6
   2  -8 -11 1450.48 200.391   5
   2   8 -11 1344.46 215.991   6
   2   8 -11 1566.63 221.080   5
   2  -8 -10 2705.82 247.399   5
   2   8 -10 2957.10 276.421   6
   2   8 -10 2846.15 264.656   5
   2  -8  -9 572.917 119.417   5
   2   8  -9 535.083 131.108   6
   2   8  -9 485.955 133.470   5
   2  -8  -8 26044.7 627.526   5
   2   8  -8 26239.1 680.175   6
   2  -8  -7 43338.1 747.086   5
   2   8  -7 44601.8 823.727   6
   2  -8  -6 2308.48 164.470   5
   2   8  -6 2573.78 191.855   6
   2  -8  -5 97276.6 934.449   5
   2   8  -5 97706.4 1052.44   6
   2  -8  -4 8148.74 241.163   5
   2  -8  -4 8865.83 293.027   6
   2   8  -4 8123.60 285.304   6
   2  -8  -3 153779. 918.806   5
   2  -8  -3 151478. 1086.41   6
   2   8  -3 154859. 1139.22   6
   2  -8  -2 27372.5 421.065   4
   2  -8  -2 26999.6 412.902   6
   2  -8  -2 27722.2 342.964   5
   2   8  -2 27121.0 449.355   6
   2  -8  -1 99508.9 720.961   6
   2   8  -1 101555. 840.548   6
   2   8   0 16814.3 182.612   2
   2  -8   0 18077.8 264.347   1
   2   8   0 17677.5 358.873   6
   2  -8   0 17521.7 289.593   6
   2  -8   0 17394.6 295.415   4
   2  -8   1 24266.5 251.581   1
   2   8   1 23391.4 422.958   6
   2  -8   1 24130.6 344.272   4
   2  -8   1 24039.8 346.274   6
   2  -8   1 24397.7 351.646   5
   2   8   2 12907.1 336.887   6
   2  -8   2 12844.5 293.314   5
   2  -8   3 707.297 85.8946   5
   2  -8   3 651.366 81.5550   2
   2  -8   4 8362.25 290.767   5
   2  -8   4 7901.81 293.622   2
   2   8   5 7810.57 299.992   3
   2  -9 -13 3279.62 337.882   5
   2  -9 -12 1728.36 236.011   5
   2   9 -12 1787.92 252.231   6
   2  -9 -11 19548.4 677.629   5
   2   9 -11 19303.3 713.267   6
   2  -9 -10 611.375 141.896   5
   2   9 -10 740.893 165.008   6
   2  -9  -9 17068.4 552.017   5
   2   9  -9 18060.5 613.251   6
   2  -9  -8 304.921 106.624   5
   2   9  -8 302.264 106.725   6
   2  -9  -7 7759.07 322.047   5
   2   9  -7 8408.39 367.255   6
   2  -9  -6 19734.4 472.157   5
   2   9  -6 20065.1 524.452   6
   2   9  -5 9205.94 144.742   4
   2  -9  -5 9384.84 295.280   5
   2   9  -5 9831.34 345.169   6
   2  -9  -4 77556.3 764.403   5
   2  -9  -4 78676.4 892.899   6
   2   9  -4 79448.6 897.900   6
   2  -9  -3 8731.04 230.776   5
   2  -9  -3 9949.02 294.503   6
   2   9  -3 9984.63 306.773   6
   2  -9  -2 31598.9 467.146   4
   2  -9  -2 31315.2 464.040   6
   2   9  -2 31926.5 512.904   6
   2  -9  -1 13979.8 290.192   4
   2   9  -1 12972.2 153.326   3
   2   9  -1 13827.7 333.776   6
   2  -9  -1 14238.4 292.914   6
   2   9   0 37689.7 273.006   2
   2   9   0 39884.8 559.786   6
   2  -9   0 39554.5 465.675   6
   2  -9   0 38826.4 452.796   4
   2   9   1 5080.33 210.158   6
   2  -9   1 4646.31 116.968   1
   2  -9   1 4898.46 160.982   4
   2  -9   1 4949.81 167.895   6
   2  -9   1 5117.15 172.778   5
   2   9   2 18653.2 417.649   6
   2  -9   2 18381.6 344.280   6
   2  -9   2 18502.7 358.431   5
   2  -9   3 6351.94 236.812   5
   2  -9   3 6524.22 244.517   2
   2  -9   4 1702.59 139.162   5
   2  -9   4 1899.10 151.216   2
   2   9   5 1066.33 116.978   3
   2 -10 -12 4799.11 366.791   5
   2  10 -12 5024.60 396.887   6
   2 -10 -11 220.633 113.698   5
   2  10 -11 356.436 156.800   6
   2 -10 -10 8949.84 434.253   5
   2  10 -10 9555.69 478.474   6
   2 -10  -9 2118.59 212.095   5
   2  10  -9 2245.71 235.392   6
   2 -10  -8 56851.5 944.976   5
   2  10  -8 57193.8 1024.93   6
   2 -10  -7 1756.60 161.178   5
   2  10  -7 1942.50 189.872   6
   2 -10  -6 27607.7 572.304   5
   2  10  -6 29098.5 643.344   6
   2 -10  -5 8230.54 284.902   5
   2  10  -5 8456.46 330.395   6
   2 -10  -4 2429.52 144.792   5
   2 -10  -4 2746.25 179.267   6
   2  10  -4 2913.65 187.623   6
   2 -10  -3 2131.31 122.521   5
   2 -10  -3 2129.31 140.442   6
   2  10  -3 2171.60 151.306   6
   2 -10  -2 542.488 76.6272   4
   2 -10  -2 579.256 76.2345   6
   2  10  -2 494.835 83.5043   6
   2 -10  -1 15003.5 309.383   4
   2  10  -1 15028.2 358.173   6
   2 -10  -1 14848.8 311.101   6
   2  10  -1 14298.1 176.607   3
   2  10   0 47688.8 305.893   2
   2  10   0 52003.4 665.900   6
   2 -10   0 50875.3 560.921   6
   2 -10   0 49410.5 526.820   4
   2  10   1 12006.8 336.825   6
   2 -10   1 12106.6 257.341   4
   2 -10   1 12005.3 276.489   6
   2 -10   1 11906.9 195.957   1
   2 -10   1 12027.3 274.173   5
   2  10   2 140719. 1175.20   6
   2 -10   2 141651. 996.369   6
   2 -10   2 141781. 1025.71   5
   2 -10   3 17496.6 400.513   5
   2 -10   4 81159.3 931.881   2
   2 -11 -12 56.8835 111.356   5
   2  11 -12 79.6799 150.105   6
   2 -11 -11 10669.7 512.096   5
   2  11 -11 10694.0 544.801   6
   2 -11 -10 5359.28 344.711   5
   2  11 -10 5370.29 370.805   6
   2 -11  -9 25200.7 685.839   5
   2  11  -9 25183.9 738.112   6
   2 -11  -8 1131.56 151.678   5
   2  11  -8 1411.28 184.754   6
   2 -11  -7 9572.47 369.472   5
   2  11  -7 9328.82 402.583   6
   2  11  -6 15339.1 177.530   4
   2 -11  -6 17280.6 456.678   5
   2  11  -6 17997.6 518.622   6
   2 -11  -5 547.658 89.7480   5
   2  11  -5 750.182 137.996   6
   2 -11  -4 35526.8 552.773   5
   2 -11  -4 36924.0 641.815   6
   2  11  -4 37065.6 655.325   6
   2 -11  -3 374.121 59.8025   5
   2 -11  -3 567.383 102.526   6
   2  11  -3 646.877 111.379   6
   2 -11  -2 6975.41 235.156   4
   2 -11  -2 7006.52 246.031   6
   2  11  -2 6763.33 259.427   6
   2 -11  -1 8267.49 239.894   4
   2  11  -1 8285.00 146.889   3
   2  11  -1 8646.58 290.655   6
   2 -11  -1 8390.54 252.866   6
   2  11   0 70936.5 370.404   2
   2  11   0 75714.2 845.158   6
   2 -11   0 76260.9 727.931   6
   2 -11   0 74105.3 665.227   4
   2  11   1 172850. 1304.47   6
   2 -11   1 171450. 989.514   4
   2 -11   1 171462. 1093.74   6
   2 -11   1 171682. 1080.66   5
   2 -11   1 173117. 786.344   1
   2  11   2 66974.7 843.024   6
   2 -11   2 66085.0 623.664   4
   2 -11   2 66430.8 715.902   6
   2 -11   2 67592.1 732.788   5
   2 -11   3 57160.5 734.389   5
   2 -11   4 20400.0 475.701   2
   2 -12 -12-13.9552 124.002   5
   2  12 -12 241.804 154.557   6
   2 -12 -11 4984.19 359.879   5
   2  12 -11 5140.73 389.241   6
   2 -12 -10 2704.86 254.159   5
   2  12 -10 2825.86 275.337   6
   2 -12  -9 461.773 117.791   5
   2  12  -9 971.352 176.472   6
   2 -12  -8 6877.85 340.949   5
   2  12  -8 6974.03 373.792   6
   2  12  -7 58681.5 400.803   4
   2 -12  -7 61834.2 942.702   5
   2  12  -7 64534.4 1056.58   6
   2 -12  -6 10308.9 359.606   5
   2  12  -6 10572.5 408.697   6
   2 -12  -5 107623. 1067.69   5
   2  12  -5 111120. 1227.47   6
   2 -12  -4 15927.7 382.159   5
   2  12  -4 16270.8 448.004   6
   2 -12  -3 142020. 1041.79   5
   2 -12  -3 142579. 1208.14   6
   2  12  -3 142878. 1261.42   6
   2 -12  -2 11924.1 316.648   4
   2 -12  -2 12489.5 339.189   6
   2  12  -2 12344.9 234.701   3
   2  12  -2 12101.6 358.611   6
   2 -12  -1 51330.3 610.024   4
   2  12  -1 51010.0 390.920   3
   2  12  -1 50839.0 713.897   6
   2 -12  -1 51989.7 648.596   6
   2  12   0 20872.5 200.253   2
   2  12   0 23393.7 491.585   6
   2 -12   0 23197.6 423.662   6
   2 -12   0 22146.4 377.039   4
   2 -12   1 12226.1 221.870   1
   2  12   1 12986.4 382.575   6
   2 -12   1 13096.2 282.634   4
   2 -12   1 12717.7 313.598   6
   2 -12   1 12277.0 302.600   5
   2 -12   2 62553.5 368.825   1
   2  12   2 64332.9 859.853   6
   2 -12   2 65076.4 628.162   4
   2 -12   2 65647.9 737.238   6
   2 -12   2 66202.9 747.873   5
   2  12   3 24259.1 558.517   6
   2 -12   3 24557.1 493.783   5
   2 -12   4 6789.01 275.676   2
   2 -13 -12 1457.72 223.543   5
   2 -13 -11 2908.06 282.231   5
   2  13 -11 2675.55 286.360   6
   2 -13 -10 4850.79 336.616   5
   2  13 -10 4977.73 369.721   6
   2 -13  -9 5833.46 346.425   5
   2  13  -9 6329.09 386.803   6
   2 -13  -8 5068.53 298.056   5
   2  13  -8 5534.65 341.570   6
   2 -13  -7 7849.79 347.021   5
   2  13  -7 7771.95 380.567   6
   2 -13  -6 100989. 1133.11   5
   2  13  -6 100661. 1261.32   6
   2 -13  -5 3935.38 216.625   5
   2  13  -5 4312.63 258.394   6
   2 -13  -4 108534. 1023.63   5
   2  13  -4 110760. 1192.72   6
   2 -13  -3 10962.5 307.236   5
   2 -13  -3 11147.1 351.849   6
   2  13  -3 11357.0 373.247   6
   2 -13  -2 56759.9 704.482   4
   2  13  -2 56454.4 513.410   3
   2 -13  -2 55554.9 738.792   6
   2  13  -2 56311.1 793.677   6
   2 -13  -1 8538.15 259.927   4
   2  13  -1 8044.44 165.419   3
   2  13  -1 8568.71 310.325   6
   2 -13  -1 8455.49 275.306   6
   2  13   0 15223.7 170.246   2
   2  13   0 17475.9 441.492   6
   2 -13   0 16946.3 381.714   6
   2 -13   0 16978.9 339.642   4
   2 -13   1 16965.1 328.956   4
   2  13   1 16886.8 445.579   6
   2 -13   1 16875.0 378.200   6
   2 -13   2 6640.00 131.965   1
   2  13   2 7161.82 304.380   6
   2 -13   2 6942.50 210.467   4
   2 -13   2 7096.35 254.647   6
   2 -13   2 6976.90 252.506   5
   2  13   3 10191.3 377.391   6
   2 -14 -12 5108.56 389.079   5
   2 -14 -11 1448.57 209.307   5
   2  14 -11 1564.69 233.947   6
   2 -14 -10 26523.4 771.191   5
   2  14 -10 27482.5 842.605   6
   2 -14  -9 1277.81 179.024   5
   2  14  -9 1383.57 205.127   6
   2 -14  -8 13042.3 478.766   5
   2  14  -8 13639.9 537.347   6
   2 -14  -7 388.003 92.1081   5
   2  14  -7 653.826 142.887   6
   2 -14  -6 5372.12 275.363   5
   2  14  -6 5188.85 302.160   6
   2 -14  -5 23345.7 523.834   5
   2  14  -5 24127.7 604.180   6
   2 -14  -4 2861.16 177.684   5
   2  14  -4 2920.05 214.950   6
   2 -14  -3 15820.9 381.939   5
   2  14  -3 16403.6 458.321   6
   2 -14  -2 4930.42 220.575   4
   2  14  -2 5194.68 163.872   3
   2 -14  -2 5506.49 251.507   6
   2  14  -2 5332.42 268.098   6
   2  14  -1 2388.66 96.2544   3
   2 -14  -1 2501.26 164.795   6
   2  14  -1 2558.82 193.330   6
   2 -14  -1 2224.74 139.895   4
   2  14   0 21927.1 515.138   6
   2 -14   0 22942.6 463.182   6
   2 -14   0 21285.8 390.026   4
   2  14   1 77041.1 976.194   6
   2 -14   1 74860.4 707.702   4
   2 -14   1 75210.6 837.287   6
   2 -14   2 38841.3 334.866   1
   2  14   2 40038.8 725.910   6
   2 -14   2 39832.6 510.787   4
   2 -14   2 40293.3 628.429   6
   2 -14   2 40248.9 631.087   5
   2  14   3 6965.52 325.702   6
   2 -15 -12-40.6255 105.659   5
   2 -15 -11 12080.6 559.092   5
   2  15 -11 12801.7 617.261   6
   2 -15 -10 3668.33 304.847   5
   2  15 -10 4222.08 349.812   6
   2 -15  -9 16881.2 583.454   5
   2  15  -9 16420.9 631.073   6
   2 -15  -8 14383.2 514.366   5
   2  15  -8 14483.2 561.672   6
   2 -15  -7 31180.8 704.026   5
   2  15  -7 31247.2 777.013   6
   2 -15  -6 6690.48 309.703   5
   2  15  -6 6845.61 358.000   6
   2 -15  -5 21635.0 516.577   5
   2  15  -5 22443.7 600.199   6
   2 -15  -4 1120.26 119.004   5
   2  15  -4 949.916 131.139   6
   2 -15  -3 3387.27 186.192   5
   2  15  -3 3752.19 236.109   6
   2 -15  -2 5892.59 243.681   4
   2  15  -2 5718.42 177.756   3
   2  15  -2 5578.91 276.129   6
   2 -15  -1 158.003 68.1591   4
   2  15  -1 583.993 126.465   6
   2  15  -1 163.603 36.7129   3
   2 -15  -1 296.699 86.1054   6
   2  15   0 3327.64 77.3032   2
   2  15   0 4146.91 243.237   6
   2 -15   0 4115.58 211.290   6
   2 -15   0 3792.63 173.075   4
   2  15   1 43138.6 758.527   6
   2 -15   1 42855.7 548.116   4
   2 -15   1 42561.8 654.171   6
   2 -15   2 267.187 34.4766   1
   2  15   2 292.432 106.646   6
   2 -15   2 204.423 51.5764   4
   2 -15   2 288.810 71.7168   6
   2  15   3 30954.1 692.970   6
   2 -16 -12 4002.89 350.130   5
   2 -16 -11 288.061 117.213   5
   2  16 -11 574.686 170.646   6
   2 -16 -10 10924.8 509.466   5
   2  16 -10 12402.6 590.490   6
   2 -16  -9 1919.25 216.676   5
   2  16  -9 1734.07 221.372   6
   2 -16  -8 10398.3 442.952   5
   2  16  -8 10857.7 492.446   6
   2 -16  -7 19907.3 569.399   5
   2  16  -7 20643.2 643.833   6
   2 -16  -6 703.669 127.146   5
   2  16  -6 563.474 135.601   6
   2 -16  -5 5055.14 259.382   5
   2  16  -5 5374.40 311.161   6
   2 -16  -4 307.347 84.9734   5
   2  16  -4 410.971 125.244   6
   2 -16  -3 9936.25 343.887   4
   2 -16  -3 9990.31 324.670   5
   2  16  -3 10183.6 385.243   6
   2 -16  -2 1252.70 125.147   4
   2  16  -2 1047.17 83.0770   3
   2  16  -2 1497.88 158.650   6
   2  16  -1 100102. 676.732   3
   2  16  -1 102777. 1175.07   6
   2 -16  -1 100726. 954.247   4
   2  16   0 18539.7 508.539   6
   2 -16   0 18694.4 387.011   4
   2  16   1 49893.6 843.380   6
   2 -16   1 48913.3 601.878   4
   2 -16   2 49745.2 425.835   1
   2  16   2 51614.0 875.491   6
   2 -16   2 51581.4 604.500   4
   2  16   3 12183.6 455.139   6
   2 -17 -12 779.664 177.304   5
   2 -17 -11-157.159 126.343   5
   2 -17 -10 9350.44 480.571   5
   2  17 -10 9503.95 519.385   6
   2 -17  -9 267.859 102.370   5
   2  17  -9 505.247 128.898   6
   2 -17  -8 9081.19 426.318   5
   2  17  -8 9047.94 459.601   6
   2 -17  -7 11831.3 450.105   5
   2  17  -7 12205.2 505.004   6
   2 -17  -6 21738.5 577.880   5
   2  17  -6 22167.1 652.727   6
   2 -17  -5 6133.55 293.303   5
   2  17  -5 6299.62 341.355   6
   2 -17  -4 55378.7 823.654   5
   2  17  -4 56724.7 958.507   6
   2 -17  -3 2666.35 191.111   4
   2 -17  -3 2742.12 181.871   5
   2  17  -3 2722.03 215.282   6
   2 -17  -2 51650.5 749.869   4
   2  17  -2 52025.1 566.393   3
   2  17  -2 51566.1 871.368   6
   2  17  -1 8360.06 205.280   3
   2  17  -1 8218.96 357.926   6
   2 -17  -1 8650.91 293.684   4
   2  17   0 61560.5 950.119   6
   2 -17   0 59883.6 707.523   4
   2  17   1 4657.11 279.593   6
   2 -17   1 4464.17 190.583   4
   2  17   2 31032.0 701.126   6
   2 -17   2 31453.5 482.680   4
   2 -17   2 30918.5 353.549   1
   2  17   3 7894.66 384.445   6
   2 -18 -11 2952.65 298.698   5
   2 -18 -10 774.615 161.237   5
   2  18 -10 1025.04 208.827   6
   2 -18  -9 1882.58 224.862   5
   2  18  -9 2170.71 260.330   6
   2 -18  -8 5876.30 348.087   5
   2  18  -8 5956.75 387.923   6
   2 -18  -7 8203.09 385.062   5
   2  18  -7 8190.80 434.055   6
   2 -18  -6 1370.36 156.157   5
   2  18  -6 1260.18 176.350   6
   2 -18  -5 10964.2 400.556   5
   2  18  -5 10822.9 451.067   6
   2 -18  -4 257.360 81.7669   5
   2  18  -4 326.859 107.898   6
   2 -18  -3 66375.4 921.674   4
   2  18  -3 67817.1 740.065   3
   2  18  -3 66708.0 1041.55   6
   2 -18  -2 951.360 120.019   4
   2  18  -2 926.867 86.0483   3
   2  18  -2 1035.93 153.333   6
   2  18  -1 22561.4 348.187   3
   2  18  -1 22801.6 598.063   6
   2 -18  -1 22869.6 479.806   4
   2  18   0 17543.0 527.961   6
   2 -18   0 16973.1 390.071   4
   2 -18   1 11543.4 306.991   4
   2  18   1 11692.6 440.227   6
   2  18   2 3440.57 254.137   6
   2 -18   2 3291.51 163.270   4
   2 -18   2 3211.71 120.349   1
   2  18   3 1979.19 209.066   6
   2 -19 -11 15486.2 658.067   5
   2 -19 -10 107.817 106.065   5
   2  19 -10 96.4465 128.313   6
   2 -19  -9 10606.0 496.566   5
   2  19  -9 11707.3 566.195   6
   2 -19  -8 391.663 121.799   5
   2  19  -8 336.294 140.390   6
   2 -19  -7 10101.1 434.904   5
   2  19  -7 9541.45 470.869   6
   2 -19  -6 15458.5 513.509   5
   2  19  -6 15602.2 576.274   6
   2 -19  -5 7852.99 346.777   5
   2  19  -5 7667.16 390.686   6
   2 -19  -4 14121.5 444.504   5
   2  19  -4 14036.9 508.472   6
   2  19  -3 2683.27 238.729   6
   2 -19  -3 2653.63 201.124   4
   2  19  -3 2571.08 152.928   3
   2 -19  -2 12333.6 383.632   4
   2  19  -2 12805.6 297.756   3
   2  19  -2 12930.8 469.769   6
   2  19  -1 2569.70 123.395   3
   2  19  -1 3066.48 241.896   6
   2 -19  -1 2608.67 172.421   4
   2  19   0 383.488 111.759   6
   2 -19   0 413.165 82.8430   4
   2  19   1 806.743 145.483   6
   2 -19   1 701.092 90.1292   4
   2 -19   2 721.951 61.9236   1
   2  19   2 753.745 146.040   6
   2 -19   2 757.338 87.0410   4
   2  19   3 15598.7 555.004   6
   2 -20 -11 229.941 142.949   5
   2 -20 -10 4358.21 346.137   5
   2  20 -10 4190.33 371.539   6
   2 -20  -9 152.274 111.629   5
   2  20  -9 28.0089 112.711   6
   2 -20  -8 12174.4 514.379   5
   2  20  -8 12853.9 578.809   6
   2 -20  -7 98.3334 84.6788   5
   2  20  -7 264.246 134.369   6
   2 -20  -6 26521.9 680.627   5
   2  20  -6 26820.7 769.578   6
   2 -20  -5 579.899 119.329   5
   2  20  -5 561.962 136.746   6
   2 -20  -4 7194.93 343.485   4
   2 -20  -4 7107.87 327.235   5
   2  20  -4 6944.36 377.783   6
   2 -20  -3 3835.56 238.238   4
   2  20  -3 4625.61 206.555   3
   2  20  -3 4185.02 285.978   6
   2 -20  -2 17648.2 469.303   4
   2  20  -2 17806.8 358.464   3
   2  20  -2 17677.3 565.594   6
   2  20  -1 2163.00 117.992   3
   2  20  -1 2126.53 203.774   6
   2 -20  -1 2105.64 159.411   4
   2  20   0 14345.9 285.255   3
   2  20   0 15431.2 527.440   6
   2 -20   0 14729.0 380.519   4
   2  20   1 1055.96 163.261   6
   2 -20   1 990.937 105.524   4
   2 -20   2 532.071 58.3411   1
   2  20   2 722.875 142.563   6
   2 -20   2 638.111 87.6197   4
   2  20   3 3853.84 300.319   6
   2 -21 -10 1098.25 194.970   5
   2 -21  -9 6969.19 419.848   5
   2  21  -9 6553.99 446.066   6
   2 -21  -8 3833.43 304.625   5
   2  21  -8 4018.05 339.508   6
   2 -21  -7 3961.28 288.583   5
   2  21  -7 4152.30 340.861   6
   2 -21  -6 7282.71 369.719   5
   2  21  -6 7035.43 408.019   6
   2 -21  -5 7261.96 355.144   5
   2  21  -5 7054.29 397.076   6
   2 -21  -4 53689.4 928.375   4
   2 -21  -4 55453.3 920.602   5
   2  21  -4 55384.8 1057.26   6
   2 -21  -3 581.574 117.493   4
   2  21  -3 477.153 148.984   6
   2 -21  -2 8654.91 338.510   4
   2  21  -2 9217.66 421.572   6
   2  21  -2 9328.03 265.324   3
   2  21  -1 10024.8 255.515   3
   2  21  -1 9802.21 437.331   6
   2 -21  -1 10085.4 344.038   4
   2  21   0 23355.3 377.051   3
   2  21   0 23067.7 662.558   6
   2 -21   0 23411.1 488.621   4
   2  21   1 15476.9 547.507   6
   2 -21   1 15572.2 382.367   4
   2  21   2 15124.6 551.632   6
   2 -21   2 14965.6 359.619   4
   2  21   3 20723.0 674.271   6
   2 -22 -10 1630.29 228.643   5
   2 -22  -9 3308.00 299.710   5
   2  22  -9 3824.10 349.961   6
   2 -22  -8 114.327 106.910   5
   2  22  -8 139.144 127.533   6
   2 -22  -7 9385.25 447.576   5
   2  22  -7 10280.4 515.409   6
   2 -22  -6 101.240 97.3958   5
   2  22  -6 8.26176 101.301   6
   2 -22  -5 19306.2 607.443   4
   2 -22  -5 19316.7 582.697   5
   2  22  -5 19460.7 664.837   6
   2 -22  -4 3581.41 257.590   4
   2  22  -4 3507.68 289.712   6
   2 -22  -4 3272.08 242.638   5
   2 -22  -3 40801.6 789.558   4
   2  22  -3 40649.7 909.256   6
   2  22  -2 16420.7 357.649   3
   2  22  -2 16231.6 573.333   6
   2 -22  -2 15679.1 463.666   4
   2  22  -1 36575.5 497.429   3
   2  22  -1 35569.3 841.050   6
   2 -22  -1 36778.4 662.636   4
   2  22   0 2823.82 138.423   3
   2  22   0 2856.42 253.318   6
   2 -22   0 3346.10 200.958   4
   2  22   1 10950.8 483.259   6
   2 -22   1 11376.6 336.726   4
   2  22   2 2007.33 224.959   6
   2 -22   2 2206.57 144.224   4
   2  22   3 6747.35 401.745   6
   2 -23 -10 766.805 177.678   5
   2 -23  -9 84.1913 101.815   5
   2 -23  -8 11342.3 521.092   5
   2  23  -8 11860.7 591.316   6
   2 -23  -7 974.179 169.838   5
   2  23  -7 1037.97 193.542   6
   2 -23  -6 8364.97 414.450   5
   2  23  -6 8287.74 459.956   6
   2 -23  -5 3989.74 289.539   4
   2 -23  -5 3550.61 262.924   5
   2  23  -5 3877.19 308.571   6
   2 -23  -4 11946.9 460.672   4
   2 -23  -4 12094.9 456.980   5
   2  23  -4 11697.2 518.785   6
   2 -23  -3 3021.38 228.316   4
   2  23  -3 3355.55 288.358   6
   2  23  -2 65839.1 719.868   3
   2  23  -2 63901.7 1163.88   6
   2 -23  -2 64484.7 949.703   4
   2  23  -1 2535.46 137.260   3
   2  23  -1 2810.55 264.830   6
   2 -23  -1 2627.97 192.083   4
   2  23   0 44854.4 539.984   3
   2  23   0 45636.1 971.887   6
   2 -23   0 45882.2 712.695   4
   2  23   1 3770.37 295.836   6
   2 -23   1 4274.76 211.846   4
   2  23   2 6653.38 397.277   6
   2 -23   2 6591.57 247.978   4
   2  23   3 16156.0 635.714   6
   2 -24  -9 872.553 176.996   5
   2 -24  -8 7755.83 440.563   5
   2  24  -8 8073.39 499.802   6
   2 -24  -7 7615.29 421.432   5
   2  24  -7 8114.88 480.548   6
   2 -24  -6 6806.99 397.607   4
   2 -24  -6 6277.84 368.102   5
   2  24  -6 6994.66 429.846   6
   2 -24  -5 2656.18 243.988   4
   2 -24  -5 2680.09 232.529   5
   2  24  -5 2969.94 287.219   6
   2 -24  -4 125.903 79.2160   4
   2 -24  -4 347.207 114.836   5
   2  24  -4 421.513 156.090   6
   2 -24  -3 8131.16 367.729   4
   2  24  -3 7933.47 428.737   6
   2 -24  -2 1473.26 169.587   4
   2  24  -2 1549.31 229.205   6
   2  24  -1 5989.47 375.742   6
   2 -24  -1 5911.42 283.222   4
   2  24   0 11723.3 519.322   6
   2 -24   0 12359.8 385.259   4
   2  24   1 166.313 122.902   6
   2 -24   1 287.200 84.0229   4
   2  24   2 29789.5 837.688   6
   2 -24   2 29821.9 528.299   4
   2  24   3 456.498 153.542   6
   2 -25  -9 13282.2 604.430   5
   2 -25  -8 56.9728 106.073   5
   2 -25  -7 7521.46 442.612   4
   2 -25  -7 7318.58 417.607   5
   2  25  -7 7328.76 469.176   6
   2 -25  -6 531.743 141.280   4
   2 -25  -6 453.905 124.435   5
   2  25  -6 359.092 164.412   6
   2 -25  -5 4438.38 321.393   4
   2 -25  -5 4346.89 306.202   5
   2  25  -5 4049.68 340.164   6
   2 -25  -4 52.8974 80.7622   4
   2 -25  -4 77.2702 101.559   5
   2  25  -4 140.640 122.432   6
   2 -25  -3 3486.22 251.912   4
   2 -25  -3 3075.53 249.063   5
   2  25  -3 3845.88 321.562   6
   2 -25  -2 1407.72 161.734   4
   2  25  -2 1281.73 196.080   6
   2  25  -1 15039.2 598.267   6
   2 -25  -1 14360.0 441.123   4
   2  25   0 1120.76 186.582   6
   2 -25   0 1174.20 133.378   4
   2 -25   1 8231.85 304.373   4
   2  25   1 8442.18 463.489   6
   2  25   2 7601.95 445.643   6
   2  25   3 31149.7 907.816   6
   2 -26  -8 8542.46 474.171   5
   2 -26  -7 6550.47 433.065   4
   2 -26  -7 6424.95 407.785   5
   2  26  -7 6572.15 466.007   6
   2 -26  -6 9353.68 482.515   4
   2 -26  -6 9303.62 462.457   5
   2  26  -6 9438.14 533.958   6
   2 -26  -5 16952.3 613.349   4
   2 -26  -5 15920.7 583.042   5
   2  26  -5 16354.1 670.546   6
   2 -26  -4 1635.83 201.888   4
   2 -26  -4 1562.45 194.178   5
   2  26  -4 1514.13 220.037   6
   2 -26  -3 7060.62 372.416   5
   2  26  -3 7470.61 451.271   6
   2 -26  -3 7216.51 362.718   4
   2  26  -2 7838.47 452.881   6
   2 -26  -2 7859.66 359.843   4
   2  26  -1 20308.7 710.780   6
   2 -26  -1 20055.2 531.971   4
   2  26   0 7031.36 432.480   6
   2 -26   0 7046.71 299.875   4
   2  26   1 14576.0 615.804   6
   2  26   2 7378.74 448.408   6
   2  26   3 7991.64 486.063   6
   2 -27  -7 322.680 129.468   4
   2 -27  -7 142.252 119.802   5
   2 -27  -6 12108.7 551.450   4
   2 -27  -6 11372.7 522.621   5
   2  27  -6 11479.8 591.529   6
   2 -27  -5 104.593 102.767   4
   2 -27  -5 96.3006 103.429   5
   2  27  -5 206.481 150.814   6
   2 -27  -4 22592.1 680.877   4
   2 -27  -4 22050.2 682.601   5
   2  27  -4 22520.7 787.033   6
   2 -27  -3 6002.68 354.378   5
   2  27  -3 5738.93 405.912   6
   2 -27  -3 5863.87 334.236   4
   2  27  -2 27044.0 843.234   6
   2 -27  -2 25404.2 645.085   4
   2  27  -1 760.696 177.903   6
   2 -27  -1 1055.89 146.768   4
   2  27   0 12032.4 573.629   6
   2  27   1 2903.37 294.899   6
   2  27   2 6398.24 429.614   6
   2  27   3 727.940 188.752   6
   2 -28  -6 94.5861 123.822   4
   2 -28  -6 39.6501 112.688   5
   2  28  -6 193.626 156.618   6
   2 -28  -5 15752.3 605.447   4
   2 -28  -5 15936.0 615.315   5
   2  28  -5 16752.5 713.915   6
   2 -28  -4-101.130 104.124   4
   2  28  -4 62.6174 119.847   6
   2 -28  -4 36.8987 97.9209   5
   2 -28  -3 19177.7 639.660   5
   2  28  -3 20376.8 758.427   6
   2 -28  -3 19712.2 614.415   4
   2  28  -2 2161.57 267.126   6
   2 -28  -2 2132.40 204.902   4
   2  28  -1 19979.1 739.109   6
   2 -28  -1 21063.5 561.880   4
   2  28   0 370.492 149.418   6
   2  28   1 7021.99 456.068   6
   2  28   2 3762.16 340.562   6
   2  28   3 597.881 175.591   6
   2 -29  -6 1300.83 209.287   4
   2 -29  -5 5824.63 384.150   4
   2 -29  -5 5703.76 379.403   5
   2  29  -5 6266.61 460.350   6
   2 -29  -4 5053.72 350.566   5
   2  29  -4 5630.19 423.703   6
   2 -29  -4 5473.94 353.666   4
   2 -29  -3 263.286 112.882   4
   2 -29  -3 542.114 140.530   5
   2  29  -3 581.558 179.397   6
   2  29  -2 5522.61 409.216   6
   2 -29  -2 5456.51 309.024   4
   2  29  -1 2873.79 310.312   6
   2  29   0 3411.05 328.396   6
   2  29   1 4622.53 380.237   6
   2  29   2 335.594 168.888   6
   2  29   3 18361.6 762.116   6
   2 -30  -6 2934.28 291.596   4
   2 -30  -5 1126.17 194.263   4
   2 -30  -4 5.39871 95.3968   4
   2 -30  -4 176.798 131.495   5
   2 -30  -3-166.172 111.696   5
   2  30  -3-200.322 155.285   6
   2  30  -2 399.028 157.670   6
   2  30  -1 3023.56 323.092   6
   2  30   0 10634.3 580.552   6
   2  30   1 541.408 177.872   6
   2  30   2 16292.4 726.012   6
   2 -31  -5 882.211 183.101   4
   2 -31  -3 555.935 157.479   5
   3   0 -13 132.878 123.905   5
   3   0 -12 1152.50 189.777   5
   3   0 -11-216.325 121.457   5
   3   0 -10 1039.20 162.869   5
   3   0  -9 3.59752 75.6845   5
   3   0  -8 5794.51 289.352   5
   3   0  -7 38.2331 59.1267   5
   3   0  -6 4744.93 214.472   1
   3   0  -6 4585.11 211.823   5
   3   0  -5 34.3396 39.5461   1
   3   0  -5-1.50622 43.0225   5
   3   0  -4 158894. 969.528   4
   3   0  -4 164040. 1062.97   1
   3   0  -4 158017. 939.439   5
   3   0  -3 35.7024 38.8013   4
   3   0  -3 169.035 48.3764   1
   3   0  -3 76.0288 31.2347   5
   3   0  -2 38200.3 406.168   4
   3   0  -2 39296.0 446.045   1
   3   0  -1-9.14903 39.1459   4
   3   0  -1 38.8396 19.1773   6
   3   0   0 133020. 452.355   6
   3   0   1 100.624 52.8689   2
   3   0   1 97.6228 33.0134   5
   3   0   2 149780. 1077.10   2
   3   0   3-5.01715 38.0729   5
   3   0   3 1.98724 40.6722   3
   3   0   3 34.0091 42.7195   2
   3   0   4 211727. 1590.68   2
   3   0   4 210803. 1533.26   3
   3   0   4 209917. 1464.58   5
   3   1 -13 12235.6 603.117   5
   3  -1 -13 11461.3 574.635   5
   3   1 -12 886.418 176.875   5
   3  -1 -12 726.251 160.241   5
   3   1 -11 2553.13 256.524   5
   3  -1 -11 2668.77 256.484   5
   3   1 -10 16877.7 571.971   5
   3  -1 -10 17492.7 576.662   5
   3   1  -9 12700.7 463.323   5
   3  -1  -9 12196.5 447.440   5
   3   1  -8 51836.4 855.029   5
   3  -1  -8 51194.3 841.713   5
   3   1  -7 19563.7 453.404   1
   3   1  -7 19667.2 483.605   5
   3  -1  -7 19136.5 468.706   5
   3  -1  -6 907.265 99.6685   5
   3  -1  -6 956.703 107.003   1
   3   1  -6 984.000 99.2776   1
   3   1  -6 886.727 105.053   5
   3   1  -5 18112.6 376.951   1
   3  -1  -5 18602.2 397.561   1
   3   1  -5 18149.3 375.312   5
   3  -1  -5 17927.7 364.111   5
   3  -1  -4 537.065 62.9560   5
   3   1  -4 538.418 65.7781   4
   3  -1  -4 601.895 76.1694   4
   3  -1  -4 565.139 74.7300   1
   3   1  -4 591.411 70.7843   5
   3   1  -4 550.781 69.3619   1
   3  -1  -3 123487. 804.826   4
   3  -1  -3 124033. 860.588   1
   3  -1  -3 122818. 660.401   5
   3  -1  -2 17426.7 300.549   1
   3   1  -2 17272.4 264.473   4
   3   1  -2 16666.4 254.555   6
   3  -1  -2 17011.6 283.959   4
   3   1  -1 334588. 1190.14   4
   3  -1  -1 338010. 1235.15   4
   3   1  -1 327693. 905.281   6
   3  -1  -1 332164. 709.488   6
   3  -1   0 23763.8 249.121   5
   3   1   0 23316.4 231.527   6
   3  -1   0 23774.7 350.398   4
   3  -1   1 25283.0 332.001   5
   3   1   1 24693.0 349.631   5
   3  -1   1 24192.0 393.807   2
   3   1   1 24502.5 380.762   2
   3   1   2 950.635 85.9653   3
   3  -1   2 961.579 83.4597   5
   3   1   2 935.204 85.7224   5
   3   1   2 919.238 93.9212   2
   3  -1   2 881.712 88.4834   2
   3  -1   3 32995.1 567.178   2
   3   1   3 33574.1 575.299   2
   3  -1   3 32728.4 552.210   3
   3   1   3 33471.6 541.432   3
   3  -1   3 33496.0 523.137   5
   3   1   3 33811.3 534.864   5
   3  -1   4 2272.94 170.938   2
   3   1   4 2325.45 173.233   2
   3  -1   4 2308.06 166.648   3
   3  -1   4 2212.43 157.216   5
   3   1   4 2121.98 159.848   3
   3   1   4 2446.92 165.565   5
   3   2 -13 6577.96 446.492   5
   3  -2 -13 6517.29 438.530   5
   3   2 -12 185.019 101.657   5
   3  -2 -12-159.010 129.593   5
   3   2 -11 26019.2 764.164   5
   3  -2 -11 25949.5 754.332   5
   3  -2 -10 164.454 91.7219   5
   3   2 -10 145.957 109.936   5
   3   2  -9 17852.4 548.353   5
   3  -2  -9 17979.1 539.563   5
   3   2  -8 3913.05 252.366   5
   3  -2  -8 4284.07 253.585   5
   3   2  -7 15938.1 403.018   1
   3   2  -7 15209.9 430.957   5
   3  -2  -7 15529.5 420.157   5
   3  -2  -6 18278.5 431.676   1
   3   2  -6 18415.8 403.179   1
   3   2  -6 18162.0 428.244   5
   3  -2  -6 18357.3 412.756   5
   3  -2  -5 24423.6 464.548   1
   3   2  -5 24055.8 425.819   1
   3   2  -5 23879.2 439.076   5
   3  -2  -5 23765.2 413.185   5
   3   2  -4 7557.03 196.670   4
   3   2  -4 7374.30 219.957   1
   3  -2  -4 7593.64 239.125   1
   3   2  -4 7066.50 214.886   5
   3  -2  -4 7174.62 197.523   5
   3  -2  -3 32825.4 432.084   4
   3  -2  -3 33683.1 458.990   1
   3   2  -3 32585.1 370.193   4
   3  -2  -3 32152.3 323.371   5
   3  -2  -2 91511.1 698.676   1
   3   2  -2 90722.8 583.510   4
   3   2  -2 90602.7 613.799   6
   3  -2  -2 88616.2 665.593   4
   3   2  -1 581589. 1557.22   4
   3   2  -1 590981. 1360.80   6
   3  -2  -1 601816. 1685.58   4
   3  -2   0 2074.11 71.0904   5
   3   2   0 2034.81 81.4081   6
   3  -2   0 1997.68 107.563   4
   3  -2   1 362.746 47.5683   5
   3   2   1 298.986 56.8237   2
   3  -2   2 958.425 79.8181   5
   3   2   2 974.904 88.5626   5
   3  -2   2 904.642 93.0046   2
   3   2   2 876.881 84.3479   3
   3   2   2 902.262 88.1678   2
   3  -2   3 223527. 1488.56   2
   3   2   3 229375. 1497.83   2
   3  -2   3 222358. 1452.21   3
   3  -2   3 233341. 1367.94   5
   3   2   3 231110. 1399.43   3
   3   2   3 227641. 1406.68   5
   3  -2   4 1839.18 153.857   2
   3  -2   4 1726.39 146.017   3
   3  -2   4 1799.48 139.319   5
   3   2   4 2000.35 162.217   2
   3   2   4 1861.90 147.118   3
   3   2   4 1821.25 145.212   5
   3   3 -13 1148.43 211.176   5
   3  -3 -13 816.543 175.058   5
   3   3 -12 5684.90 394.364   5
   3  -3 -12 4921.24 352.596   5
   3  -3 -11 121.249 93.4275   5
   3   3 -11 157.624 116.850   5
   3   3 -10 20767.4 647.715   5
   3  -3 -10 20762.4 628.695   5
   3   3  -9 9218.05 406.742   5
   3  -3  -9 9305.61 393.166   5
   3   3  -8 24275.4 597.511   5
   3  -3  -8 25192.1 586.451   5
   3  -3  -7 8595.21 317.764   5
   3   3  -7 8111.76 282.705   1
   3   3  -7 8648.72 332.083   5
   3  -3  -6 48738.9 664.039   5
   3   3  -6 49101.8 644.935   1
   3   3  -6 49186.9 708.621   5
   3  -3  -5 48991.8 588.423   5
   3  -3  -5 52509.7 696.289   1
   3   3  -5 50208.5 605.194   1
   3   3  -5 50650.1 651.959   5
   3   3  -4 40622.8 507.113   1
   3  -3  -4 40525.4 453.849   5
   3   3  -4 41452.4 435.240   4
   3  -3  -4 42430.7 577.486   1
   3  -3  -3 20721.6 256.723   5
   3  -3  -3 21609.5 368.253   4
   3  -3  -3 21835.8 378.170   1
   3   3  -3 21388.0 361.794   6
   3   3  -3 20837.8 279.418   4
   3  -3  -2 148248. 898.152   1
   3   3  -2 145677. 721.203   4
   3   3  -2 140245. 819.569   6
   3  -3  -2 144782. 883.489   4
   3  -3  -1 39854.7 431.349   1
   3  -3  -1 38509.0 249.350   6
   3   3  -1 38547.1 384.544   6
   3  -3  -1 39702.3 446.358   4
   3  -3   0 18.2521 19.1665   5
   3   3   0 112.607 39.7257   6
   3  -3   0 39.8055 43.8105   4
   3  -3   1 15685.4 256.175   5
   3   3   1 15769.1 278.196   6
   3   3   1 15060.2 296.780   2
   3   3   2 1505.15 113.755   2
   3  -3   2 1469.66 99.5545   5
   3   3   2 1460.01 98.0952   3
   3   3   2 1444.20 106.681   5
   3  -3   2 1411.87 111.896   2
   3  -3   3 5982.42 245.128   2
   3  -3   3 5814.77 216.920   5
   3   3   3 6022.20 249.893   2
   3   3   3 6066.65 225.904   3
   3   3   3 5987.73 234.235   5
   3  -3   4 79708.9 974.718   2
   3  -3   4 81018.8 899.418   5
   3  -3   4 81045.3 982.744   3
   3   3   4 82292.9 987.087   2
   3   3   4 80977.4 917.409   3
   3   3   4 80228.6 929.218   5
   3  -4 -13 1978.70 258.134   5
   3   4 -13 1795.89 255.888   5
   3   4 -12 5340.26 383.998   5
   3  -4 -12 5279.55 370.616   5
   3   4 -11 4310.75 323.092   5
   3  -4 -11 4749.93 326.961   5
   3  -4 -10 253.152 111.096   5
   3   4 -10 438.793 125.348   5
   3  -4  -9 860.800 126.662   5
   3   4  -9 895.909 143.233   5
   3  -4  -8 1572.69 159.701   5
   3   4  -8 1721.98 174.559   5
   3  -4  -7 13898.1 400.026   5
   3   4  -7 13695.4 361.768   1
   3   4  -7 13737.4 420.157   5
   3  -4  -6 13599.8 356.350   5
   3   4  -6 13542.3 333.119   1
   3   4  -6 13632.7 384.263   5
   3  -4  -5 597.696 77.5011   5
   3   4  -5 582.567 63.9243   4
   3   4  -5 597.640 74.4149   1
   3  -4  -5 789.402 94.7412   1
   3  -4  -4 112328. 755.522   5
   3  -4  -4 116476. 978.310   1
   3   4  -4 112686. 952.754   6
   3  -4  -3 60337.9 434.806   5
   3  -4  -3 60730.7 632.567   4
   3   4  -3 58529.1 446.871   4
   3   4  -3 59317.4 625.422   6
   3  -4  -3 62116.0 652.839   1
   3  -4  -2 40426.4 231.095   5
   3   4  -2 43904.9 384.441   4
   3  -4  -2 44456.0 502.701   1
   3   4  -2 43541.3 479.420   6
   3  -4  -2 43596.8 502.733   4
   3  -4  -1 13127.2 251.340   1
   3  -4  -1 13418.7 162.864   6
   3   4  -1 13034.8 244.515   6
   3  -4  -1 13216.3 267.323   4
   3  -4   0 225095. 709.141   5
   3   4   0 221419. 989.620   6
   3  -4   0 215729. 1082.54   4
   3   4   1 23166.5 361.592   2
   3  -4   1 24132.1 317.650   5
   3   4   1 23877.3 354.887   6
   3   4   2 165324. 1132.26   2
   3  -4   2 168035. 1012.49   5
   3   4   2 166595. 994.795   3
   3  -4   3 57513.4 681.051   5
   3   4   3 57474.8 746.542   2
   3   4   3 56080.7 671.158   3
   3   4   3 55780.4 718.744   5
   3  -4   3 53766.1 733.207   2
   3  -4   4 14737.9 418.762   2
   3  -4   4 14711.6 388.561   5
   3  -4   4 13718.9 407.155   3
   3   4   4 14395.9 414.605   2
   3   4   4 14279.7 383.719   3
   3   4   4 14459.8 402.681   5
   3   5 -13 4699.61 388.194   5
   3  -5 -13 4266.16 356.619   5
   3  -5 -12 338.649 135.536   5
   3   5 -12 491.105 155.962   5
   3   5 -11 2694.25 264.642   5
   3  -5 -11 3006.68 264.306   5
   3  -5 -10 1181.62 168.474   5
   3   5 -10 1082.99 167.114   5
   3  -5  -9 2410.70 211.253   5
   3   5  -9 2534.13 221.490   5
   3  -5  -8 214.339 84.1008   5
   3   5  -8 354.530 77.6470   1
   3   5  -8 337.623 103.123   5
   3  -5  -7 21270.9 494.775   5
   3   5  -7 20259.8 429.539   1
   3   5  -7 21502.9 535.089   5
   3   5  -6 2088.80 132.733   1
   3  -5  -6 2068.85 144.682   5
   3  -5  -5 21903.4 395.033   5
   3   5  -5 22601.1 326.324   4
   3   5  -5 22813.7 481.457   6
   3  -5  -4 64922.8 578.919   5
   3   5  -4 65910.2 747.083   6
   3   5  -4 65676.2 488.437   4
   3  -5  -3 39738.2 527.809   4
   3  -5  -3 38993.5 358.602   5
   3  -5  -3 40436.5 541.626   1
   3   5  -3 38655.6 342.897   4
   3   5  -3 39258.3 525.470   6
   3  -5  -2 19203.0 177.086   5
   3  -5  -2 19727.5 286.032   6
   3   5  -2 19200.4 337.475   6
   3  -5  -2 19532.1 344.920   1
   3  -5  -2 18996.0 346.626   4
   3  -5  -1 130489. 576.531   6
   3   5  -1 131092. 825.997   6
   3  -5  -1 129334. 850.483   4
   3  -5   0 145308. 594.857   5
   3   5   0 140058. 856.355   6
   3  -5   0 141679. 891.721   4
   3  -5   0 140027. 506.360   6
   3   5   1 193039. 1032.15   2
   3  -5   1 199900. 931.346   5
   3   5   1 193248. 1060.14   6
   3  -5   2 56198.2 587.272   5
   3   5   2 54956.0 646.828   2
   3   5   2 55102.7 564.005   3
   3  -5   2 55483.5 683.308   2
   3  -5   3 65587.3 728.934   5
   3   5   3 66395.4 798.881   2
   3   5   3 66682.2 722.964   3
   3   5   3 64100.2 782.024   5
   3  -5   3 64782.1 809.911   2
   3  -5   4 4562.90 237.713   2
   3  -5   4 5161.35 231.279   5
   3   5   4 5178.50 250.437   2
   3   5   4 4667.45 222.711   3
   3  -6 -13 22.9096 122.815   5
   3   6 -12 4688.45 378.911   6
   3   6 -12 4678.35 369.054   5
   3  -6 -12 4727.84 355.810   5
   3   6 -11 7864.75 450.879   6
   3   6 -11 7013.76 419.424   5
   3  -6 -11 7040.65 400.786   5
   3  -6 -10 187.029 93.9886   5
   3   6 -10 341.657 126.629   5
   3  -6  -9 24349.9 627.767   5
   3   6  -9 25334.1 682.861   5
   3   6  -8 17694.5 419.971   1
   3  -6  -8 18618.4 509.281   5
   3   6  -8 18368.8 556.473   6
   3   6  -8 18612.8 544.761   5
   3  -6  -7 14865.5 415.223   5
   3   6  -7 14779.4 464.933   6
   3   6  -7 14296.4 354.463   1
   3  -6  -6 149.730 58.6569   5
   3   6  -6 108.977 37.4650   4
   3   6  -6 201.462 84.4397   6
   3   6  -5 376.669 47.5801   4
   3  -6  -5 351.252 61.5950   5
   3   6  -5 385.921 88.4142   6
   3  -6  -4 35314.3 433.614   5
   3   6  -4 35331.3 563.337   6
   3   6  -4 35867.7 334.230   4
   3  -6  -3 53133.0 625.334   4
   3  -6  -3 51926.1 430.761   5
   3  -6  -3 53396.2 634.512   1
   3   6  -3 51427.8 371.538   4
   3   6  -3 52415.9 623.468   6
   3  -6  -2 49461.2 322.369   5
   3  -6  -2 50658.1 478.420   6
   3   6  -2 49811.9 570.633   6
   3  -6  -2 50644.1 573.220   4
   3  -6  -2 50533.6 562.915   1
   3  -6  -1 208250. 813.940   6
   3   6  -1 205205. 1106.78   6
   3  -6  -1 211753. 1046.21   1
   3  -6  -1 211870. 1109.90   4
   3  -6   0 44754.6 354.979   5
   3  -6   0 44164.3 433.411   1
   3   6   0 43830.6 516.223   6
   3  -6   0 44790.4 511.428   4
   3  -6   0 44648.9 338.403   6
   3  -6   1 52710.5 489.930   5
   3   6   1 51007.4 525.910   2
   3   6   1 52100.5 420.670   3
   3   6   1 50423.5 580.450   6
   3  -6   1 52415.8 570.585   4
   3  -6   2 110725. 836.129   5
   3   6   2 107839. 912.542   2
   3   6   2 108085. 774.141   3
   3  -6   3 21787.7 425.683   5
   3   6   3 21257.8 458.032   2
   3   6   3 21371.7 408.137   3
   3  -6   3 20533.1 456.567   2
   3  -6   4 31112.3 563.980   5
   3   6   4 32383.4 619.414   2
   3   6   4 32060.4 573.383   3
   3  -7 -13-3.15252 103.702   5
   3   7 -12 18886.3 737.534   6
   3  -7 -12 18736.1 684.259   5
   3  -7 -11 473.704 126.262   5
   3   7 -11 569.121 168.515   6
   3  -7 -10 19318.6 602.479   5
   3   7 -10 20023.6 670.021   6
   3  -7  -9 4082.03 267.965   5
   3   7  -9 4446.67 308.684   6
   3  -7  -8 17831.4 499.544   5
   3   7  -8 18229.2 560.113   6
   3  -7  -7 3603.85 208.898   5
   3   7  -7 3668.65 243.328   6
   3   7  -6 45391.8 472.460   4
   3  -7  -6 43949.3 648.819   5
   3   7  -6 44673.0 758.298   6
   3   7  -5 166.524 36.8336   4
   3  -7  -5 111.553 47.4123   5
   3   7  -5 164.008 65.1274   6
   3  -7  -4 380.218 55.5626   5
   3   7  -4 405.971 84.3214   6
   3   7  -4 361.141 36.5603   4
   3  -7  -3 27678.5 465.226   4
   3  -7  -3 26174.4 322.023   5
   3  -7  -3 27734.4 442.187   6
   3   7  -3 26915.9 469.313   6
   3  -7  -2 8668.42 242.739   1
   3  -7  -2 8438.18 149.585   5
   3  -7  -2 8070.41 206.040   6
   3   7  -2 8328.73 250.462   6
   3  -7  -2 8343.64 242.498   4
   3  -7  -1 70790.4 522.581   6
   3   7  -1 71367.4 688.412   6
   3  -7  -1 72265.3 625.898   1
   3  -7  -1 71458.5 663.722   4
   3  -7   0 118415. 720.600   1
   3   7   0 117631. 892.317   6
   3  -7   0 117318. 849.151   4
   3  -7   0 118188. 620.875   6
   3  -7   0 119814. 622.566   5
   3  -7   1 4237.87 145.492   5
   3   7   1 4119.84 151.627   2
   3   7   1 4171.85 114.827   3
   3   7   1 4177.40 180.758   6
   3  -7   1 4376.58 169.477   4
   3  -7   1 4158.30 127.162   6
   3  -7   2 10087.0 258.723   5
   3   7   2 9759.52 275.431   2
   3   7   2 9885.05 230.929   3
   3   7   2 10190.4 297.538   6
   3  -7   3 8147.19 265.737   5
   3   7   3 7987.21 279.640   2
   3   7   3 8020.44 249.413   3
   3  -7   3 8050.01 289.278   2
   3  -7   4 22460.0 485.580   5
   3   7   4 22937.2 523.574   2
   3   7   4 22487.7 472.130   3
   3  -8 -13 625.231 169.723   5
   3   8 -12 4886.95 385.214   6
   3  -8 -12 4014.19 331.764   5
   3  -8 -11 11285.1 502.168   5
   3   8 -11 11858.9 561.709   6
   3  -8 -10 4279.10 297.311   5
   3   8 -10 4333.55 324.614   6
   3  -8  -9 20611.6 583.659   5
   3   8  -9 21950.6 667.924   6
   3  -8  -8 4452.66 254.005   5
   3   8  -8 4905.90 300.877   6
   3  -8  -7 52222.9 786.581   5
   3   8  -7 55045.9 561.339   4
   3   8  -7 53217.8 903.550   6
   3   8  -6 5644.09 155.412   4
   3  -8  -6 5582.31 235.963   5
   3   8  -6 5150.85 272.529   6
   3  -8  -5 21446.8 406.857   5
   3   8  -5 21642.3 500.716   6
   3   8  -5 21176.6 249.606   4
   3  -8  -4 1402.88 97.4896   5
   3  -8  -4 1598.75 130.636   6
   3   8  -4 1183.91 53.1189   4
   3   8  -4 1429.19 132.188   6
   3  -8  -3 5960.98 228.754   4
   3  -8  -3 5548.20 160.217   5
   3  -8  -3 5434.27 202.928   6
   3   8  -3 5648.39 230.509   6
   3  -8  -2 11868.2 289.270   1
   3  -8  -2 12141.8 198.307   5
   3  -8  -2 11483.7 257.202   6
   3   8  -2 11575.5 305.877   6
   3  -8  -2 11801.4 296.103   4
   3  -8  -1 62781.5 534.165   6
   3   8  -1 63279.2 685.135   6
   3  -8  -1 65092.9 654.731   4
   3  -8  -1 65610.2 613.256   1
   3  -8   0 35225.6 405.549   1
   3   8   0 36718.3 527.703   6
   3  -8   0 35744.5 378.625   6
   3  -8   0 35804.4 476.604   4
   3   8   0 36074.9 339.812   2
   3  -8   0 35992.4 366.031   5
   3   8   1 24970.1 366.153   2
   3   8   1 24790.5 270.330   3
   3   8   1 24544.2 448.863   6
   3  -8   1 25335.4 406.955   4
   3  -8   1 24272.4 328.097   6
   3  -8   1 25445.7 363.335   5
   3  -8   2 40983.2 532.468   5
   3   8   2 41041.8 553.940   2
   3   8   2 40745.3 463.645   3
   3   8   2 40622.6 615.845   6
   3  -8   3 64009.3 745.530   5
   3   8   3 65509.5 795.401   2
   3   8   3 64135.8 690.214   3
   3  -8   3 63383.1 816.766   2
   3  -8   4 3164.69 186.874   5
   3   8   4 3120.74 197.660   2
   3   8   4 2974.58 173.603   3
   3   8   5 41977.5 712.633   3
   3  -9 -13 2659.33 291.661   5
   3  -9 -12 4152.77 337.637   5
   3   9 -12 4766.33 380.730   6
   3  -9 -11 295.588 108.707   5
   3   9 -11 760.751 185.767   6
   3  -9 -10 585.430 131.676   5
   3   9 -10 710.162 157.002   6
   3  -9  -9 28413.0 687.890   5
   3   9  -9 29722.4 781.650   6
   3  -9  -8 4798.38 265.118   5
   3   9  -8 5235.25 188.163   4
   3   9  -8 4884.39 300.917   6
   3   9  -7 6405.66 180.049   4
   3  -9  -7 6058.79 274.815   5
   3   9  -7 6345.05 323.451   6
   3  -9  -6 29571.9 541.288   5
   3   9  -6 29819.6 643.290   6
   3   9  -6 28855.1 318.376   4
   3  -9  -5 7933.87 256.448   5
   3  -9  -5 8070.81 307.289   6
   3   9  -5 7191.93 126.425   4
   3   9  -5 7629.79 307.587   6
   3  -9  -4 7394.81 218.200   5
   3  -9  -4 6957.75 262.677   6
   3   9  -4 7032.00 278.120   6
   3  -9  -3 49511.0 656.556   4
   3  -9  -3 49419.8 492.485   5
   3  -9  -3 50281.9 622.790   6
   3   9  -3 48864.9 674.964   6
   3  -9  -2 442.762 74.2369   4
   3  -9  -2 345.423 58.3912   6
   3   9  -2 280.274 65.8492   6
   3  -9  -1 81642.6 705.475   1
   3  -9  -1 80869.2 648.412   6
   3   9  -1 82402.4 823.596   6
   3  -9  -1 81589.6 750.334   4
   3  -9   0 20282.5 317.325   1
   3   9   0 20773.3 419.187   6
   3  -9   0 20038.5 308.504   6
   3  -9   0 19852.8 365.766   4
   3   9   0 20422.8 249.165   2
   3  -9   0 20528.0 298.907   5
   3   9   1 228762. 1099.89   2
   3   9   1 226417. 793.953   3
   3  -9   1 228336. 1238.02   4
   3  -9   1 228687. 1070.85   6
   3  -9   1 232450. 1142.02   5
   3  -9   2 60870.1 662.155   5
   3   9   2 60132.9 672.047   2
   3   9   2 57851.8 759.601   6
   3   9   2 60222.8 553.552   3
   3  -9   3 100384. 953.498   5
   3   9   3 103993. 1003.07   2
   3   9   3 103384. 867.584   3
   3   9   4 33883.2 643.933   2
   3   9   4 34201.8 573.794   3
   3   9   5 27478.2 572.150   3
   3 -10 -13-68.7089 108.443   5
   3 -10 -12 4296.62 339.496   5
   3  10 -12 4969.48 397.288   6
   3 -10 -11 168.043 99.1400   5
   3  10 -11 104.971 124.309   6
   3 -10 -10 1485.51 180.734   5
   3  10 -10 1731.18 227.356   6
   3  10  -9 2493.52 141.780   4
   3 -10  -9 2102.32 199.842   5
   3  10  -9 2256.03 236.477   6
   3  10  -8 154.425 46.6038   4
   3 -10  -8 130.421 79.6343   5
   3  10  -8 342.620 121.014   6
   3  10  -7 250.564 39.6701   4
   3 -10  -7 141.911 66.9285   5
   3  10  -7 331.153 103.923   6
   3 -10  -6 44585.2 676.627   5
   3  10  -6 45640.2 808.025   6
   3  10  -6 40581.7 322.228   4
   3 -10  -5 14817.1 355.579   5
   3  10  -5 14631.1 433.200   6
   3 -10  -4 140699. 984.475   5
   3 -10  -4 142222. 1192.39   6
   3  10  -4 143585. 1270.39   6
   3 -10  -3 1585.54 133.968   4
   3 -10  -3 1504.19 94.3785   5
   3 -10  -3 1621.63 122.483   6
   3  10  -3 1445.67 128.713   6
   3 -10  -2 29357.1 492.067   4
   3 -10  -2 28571.3 445.540   6
   3  10  -2 28827.8 518.399   6
   3 -10  -1 1149.15 92.3984   1
   3 -10  -1 1282.37 93.3877   6
   3  10  -1 1091.18 111.820   6
   3 -10  -1 1242.03 107.486   4
   3  10   0 212702. 1382.89   6
   3 -10   0 211020. 1045.18   1
   3 -10   0 212669. 1076.70   6
   3 -10   0 209495. 1211.35   4
   3  10   0 207856. 762.955   2
   3 -10   0 212085. 1020.56   5
   3 -10   1 4419.82 133.234   1
   3  10   1 4427.42 155.269   2
   3  10   1 3966.41 104.366   3
   3  10   1 4401.89 217.832   6
   3 -10   1 4311.63 177.700   4
   3 -10   1 4141.38 159.565   6
   3 -10   1 4469.40 167.520   5
   3 -10   2 161736. 1114.25   5
   3  10   2 167000. 1119.76   2
   3  10   2 161618. 1302.07   6
   3  10   2 165803. 906.405   3
   3 -10   3 57601.2 736.277   5
   3  10   3 58660.6 757.941   2
   3  10   3 57740.4 645.368   3
   3  10   4 4144.85 231.406   2
   3  10   4 3850.21 196.298   3
   3  10   5 2516.00 181.954   3
   3 -11 -13 1372.88 224.524   5
   3 -11 -12 748.860 176.547   5
   3  11 -12 492.471 172.434   6
   3 -11 -11 103.696 101.277   5
   3  11 -11 100.320 113.028   6
   3 -11 -10 4353.01 300.532   5
   3  11 -10 4989.75 355.343   6
   3 -11  -9 601.381 129.076   5
   3  11  -9 646.540 72.0719   4
   3  11  -9 846.915 170.680   6
   3 -11  -8 47456.6 839.609   5
   3  11  -8 48798.7 962.307   6
   3  11  -8 48254.7 473.565   4
   3 -11  -7 7211.89 306.779   5
   3  11  -7 7661.32 376.331   6
   3  11  -7 6750.22 143.597   4
   3 -11  -6 12738.5 375.193   5
   3  11  -6 13005.2 446.425   6
   3 -11  -5 36538.7 570.206   5
   3  11  -5 37075.3 702.257   6
   3 -11  -4 205.836 53.2365   5
   3 -11  -4 318.575 76.9833   6
   3  11  -4 273.604 94.5158   6
   3 -11  -3 40796.8 626.177   4
   3 -11  -3 38740.3 594.828   6
   3  11  -3 40394.1 662.127   6
   3 -11  -3 40412.8 492.175   5
   3 -11  -2 40544.1 594.074   4
   3 -11  -2 40293.9 554.783   6
   3  11  -2 39569.3 630.332   6
   3 -11  -1 27955.8 438.613   1
   3  11  -1 27628.7 518.867   6
   3 -11  -1 27761.8 430.109   6
   3 -11  -1 28200.6 466.688   4
   3  11   0 646.207 107.114   6
   3 -11   0 565.683 77.2291   6
   3  11   0 659.893 47.9024   2
   3 -11   0 531.241 77.3091   4
   3 -11   0 519.866 58.7847   5
   3 -11   0 426.040 53.8003   1
   3 -11   1 81862.9 584.671   1
   3  11   1 84762.8 661.853   2
   3  11   1 81114.5 460.208   3
   3  11   1 82926.5 932.408   6
   3 -11   1 84523.7 780.129   4
   3 -11   1 82287.5 734.116   6
   3 -11   1 86128.4 753.719   5
   3  11   2 21373.2 402.267   2
   3  11   2 20628.1 487.753   6
   3  11   2 21202.4 322.502   3
   3 -11   2 20337.3 385.888   6
   3 -11   2 21383.3 416.042   5
   3 -11   3 37994.2 610.986   5
   3  11   3 38138.5 613.040   2
   3  11   3 37784.7 519.485   3
   3  11   4 22767.8 465.131   3
   3  11   5 14070.0 410.336   3
   3 -12 -13 7285.40 473.894   5
   3 -12 -12-39.3336 108.009   5
   3  12 -12 105.110 139.776   6
   3 -12 -11 17957.5 644.284   5
   3  12 -11 19340.2 738.371   6
   3 -12 -10-28.4461 87.4568   5
   3  12 -10 219.063 139.461   6
   3 -12  -9 9434.25 407.735   5
   3  12  -9 9520.50 469.043   6
   3 -12  -8 4791.38 278.098   5
   3  12  -8 5092.81 331.151   6
   3  12  -8 4590.78 124.520   4
   3 -12  -7 31525.1 638.875   5
   3  12  -7 31956.1 747.496   6
   3 -12  -6 5762.45 258.560   5
   3  12  -6 5810.90 305.609   6
   3 -12  -5 85126.2 890.722   5
   3  12  -5 84222.4 1082.42   6
   3 -12  -4 3.19778 58.2870   4
   3 -12  -4 58.7420 41.2759   5
   3 -12  -4-24.7843 66.0069   6
   3  12  -4-114.352 72.5602   6
   3 -12  -3 975.316 113.912   4
   3 -12  -3 1018.26 89.1891   5
   3 -12  -3 1214.40 119.619   6
   3  12  -3 1061.88 128.715   6
   3 -12  -2 6319.12 245.448   4
   3 -12  -2 6723.11 238.373   6
   3  12  -2 6335.08 266.314   6
   3  12  -1 2154.88 164.765   6
   3 -12  -1 2202.94 132.002   6
   3 -12  -1 2101.30 137.209   4
   3  12   0 33543.9 599.328   6
   3 -12   0 32242.3 477.355   6
   3 -12   0 32466.6 498.641   4
   3  12   0 31080.2 272.483   2
   3 -12   0 33098.9 441.046   1
   3  12   1 6331.04 181.226   2
   3 -12   1 6420.89 170.395   1
   3  12   1 5974.00 124.251   3
   3  12   1 6633.91 281.517   6
   3 -12   1 6366.88 221.503   4
   3 -12   1 6409.45 218.801   6
   3 -12   1 6531.99 217.235   5
   3  12   2 16873.1 357.302   2
   3  12   2 16428.7 447.239   6
   3  12   2 16740.4 284.417   3
   3 -12   2 16204.9 356.467   6
   3 -12   2 16602.6 379.703   5
   3 -12   3 82649.3 919.221   5
   3  12   3 85951.7 924.097   2
   3  12   3 83471.7 767.968   3
   3  12   4 3022.27 173.128   3
   3  12   5 51103.3 776.984   3
   3 -13 -13 6503.93 450.008   5
   3 -13 -12 3503.45 318.277   5
   3 -13 -11 4226.71 327.259   5
   3  13 -11 4677.75 380.754   6
   3 -13 -10 26048.6 725.791   5
   3  13 -10 27125.2 833.209   6
   3 -13  -9 321.435 94.6993   5
   3  13  -9 221.009 114.522   6
   3 -13  -8 27518.1 652.249   5
   3  13  -8 26806.8 738.658   6
   3 -13  -7 7716.49 326.680   5
   3  13  -7 7191.79 367.912   6
   3 -13  -6 7409.52 295.722   5
   3  13  -6 7673.53 367.301   6
   3 -13  -5 31.8506 49.9374   5
   3  13  -5-19.7882 73.3412   6
   3 -13  -4 16751.0 454.312   4
   3 -13  -4 16914.9 378.675   5
   3  13  -4 17023.3 481.537   6
   3 -13  -3 2216.09 165.153   4
   3 -13  -3 2456.51 137.653   5
   3 -13  -3 2084.99 155.212   6
   3  13  -3 2495.57 186.563   6
   3 -13  -2 40151.8 605.169   6
   3  13  -2 39623.7 682.534   6
   3 -13  -2 40140.8 616.955   4
   3  13  -1 30207.6 589.839   6
   3 -13  -1 29519.1 490.938   6
   3 -13  -1 29169.3 499.314   4
   3  13   0 571.161 112.753   6
   3 -13   0 470.834 62.0772   1
   3 -13   0 439.503 73.9505   6
   3 -13   0 405.725 76.1544   4
   3 -13   1 82.4103 30.6083   1
   3  13   1 163.513 81.1801   6
   3  13   1 129.106 38.7639   2
   3 -13   1 69.2000 42.5357   4
   3  13   1 77.8465 19.7741   3
   3 -13   1 67.0901 46.1191   6
   3 -13   1 52.2659 41.2248   5
   3  13   2 35631.2 520.873   2
   3  13   2 35479.9 679.667   6
   3  13   2 35775.6 416.247   3
   3 -13   2 34986.7 529.937   4
   3 -13   2 34729.1 546.998   6
   3 -13   2 35313.5 569.102   5
   3  13   3 8659.71 360.270   6
   3  13   3 9328.17 308.858   2
   3  13   3 8871.91 253.556   3
   3  13   4 73123.6 824.994   3
   3  13   5 30184.6 596.958   3
   3 -14 -12 13129.7 594.365   5
   3 -14 -11 4080.95 321.030   5
   3  14 -11 4228.58 368.746   6
   3 -14 -10 614.406 134.950   5
   3  14 -10 694.430 177.153   6
   3 -14  -9 2916.10 240.835   5
   3  14  -9 2862.30 275.064   6
   3 -14  -8 876.942 133.936   5
   3  14  -8 733.290 154.942   6
   3 -14  -7 6899.47 316.471   5
   3  14  -7 6379.82 357.749   6
   3 -14  -6 1155.05 131.922   5
   3  14  -6 1212.04 154.366   6
   3 -14  -5 21599.2 477.578   5
   3  14  -5 21681.7 580.465   6
   3 -14  -4 53751.8 818.758   4
   3 -14  -4 51782.8 684.347   5
   3  14  -4 52770.6 864.156   6
   3 -14  -3 33452.8 611.319   4
   3 -14  -3 32781.7 514.376   5
   3 -14  -3 32504.0 602.845   6
   3  14  -3 33067.2 659.961   6
   3 -14  -2 33618.5 571.213   6
   3  14  -2 33545.4 652.670   6
   3 -14  -2 33295.6 577.767   4
   3  14  -1 14565.1 427.264   6
   3 -14  -1 14522.3 362.883   6
   3 -14  -1 14498.4 363.535   4
   3 -14   0 34280.3 479.671   1
   3  14   0 35292.7 665.054   6
   3 -14   0 34982.2 547.225   6
   3 -14   0 34779.6 540.059   4
   3  14   1 23444.7 341.990   2
   3 -14   1 23061.6 341.714   1
   3  14   1 24236.9 563.016   6
   3  14   1 21778.6 239.129   3
   3 -14   1 23184.3 437.451   4
   3 -14   1 23542.5 451.104   6
   3 -14   1 23477.8 447.199   5
   3  14   2 41093.0 559.114   2
   3  14   2 39676.3 738.024   6
   3 -14   2 39132.6 571.182   4
   3  14   2 41011.3 446.601   3
   3 -14   2 39802.1 608.329   6
   3 -14   2 40639.8 626.068   5
   3  14   3 4766.54 277.256   6
   3  14   3 4980.35 228.734   2
   3  14   3 4761.66 186.535   3
   3  14   4 48834.7 678.799   3
   3 -15 -12 1139.60 209.428   5
   3 -15 -11 2474.31 259.294   5
   3  15 -11 2603.49 290.536   6
   3 -15 -10 26.1625 85.6517   5
   3  15 -10 177.979 124.533   6
   3 -15  -9 53.8163 87.8222   5
   3  15  -9 38.1227 110.471   6
   3 -15  -8 1034.80 145.641   5
   3  15  -8 1202.62 182.259   6
   3 -15  -7 19918.7 542.393   5
   3  15  -7 20540.5 635.232   6
   3 -15  -6 53.3420 59.2514   5
   3  15  -6 110.826 83.9763   6
   3 -15  -5 6749.82 276.469   5
   3  15  -5 6602.23 333.388   6
   3 -15  -4 942.345 134.620   4
   3 -15  -4 954.448 104.350   5
   3  15  -4 1046.53 142.371   6
   3 -15  -3 80923.4 978.284   4
   3 -15  -3 79488.5 829.068   5
   3  15  -3 81040.9 1065.84   6
   3 -15  -2 13543.4 382.993   6
   3  15  -2 14109.1 439.334   6
   3 -15  -2 14273.4 388.279   4
   3  15  -1 118727. 1253.17   6
   3 -15  -1 119037. 1074.36   6
   3 -15  -1 119201. 1058.63   4
   3 -15   0-15.3143 35.3906   1
   3  15   0 86.5868 86.4608   6
   3 -15   0 53.2220 47.7950   6
   3 -15   0 40.2050 51.8930   4
   3  15   1 119414. 761.366   2
   3  15   1 118943. 1280.51   6
   3 -15   1 115978. 791.439   1
   3 -15   1 117385. 998.361   4
   3 -15   1 119160. 1056.66   6
   3 -15   1 119198. 1043.25   5
   3  15   2 6596.53 226.569   2
   3  15   2 6701.21 323.518   6
   3 -15   2 6783.11 244.214   4
   3 -15   2 6615.35 260.171   6
   3 -15   2 6880.93 269.544   5
   3  15   3 22332.0 605.815   6
   3  15   3 23320.7 490.340   2
   3  15   3 23108.3 407.196   3
   3  15   4 1335.74 118.182   3
   3 -16 -12 1084.34 181.419   5
   3 -16 -11 2153.48 239.033   5
   3  16 -11 2858.47 314.494   6
   3 -16 -10 4096.20 312.510   5
   3  16 -10 4827.14 376.871   6
   3 -16  -9 7794.65 392.879   5
   3  16  -9 7769.29 444.889   6
   3 -16  -8 10812.0 433.819   5
   3  16  -8 10628.6 494.822   6
   3 -16  -7 4778.70 276.084   5
   3  16  -7 5120.96 331.329   6
   3 -16  -6 1333.46 145.582   5
   3  16  -6 1064.73 162.316   6
   3 -16  -5 5719.36 262.827   5
   3  16  -5 6041.82 330.038   6
   3 -16  -4 5466.20 278.348   4
   3 -16  -4 5613.23 245.820   5
   3  16  -4 5784.61 310.991   6
   3 -16  -3 898.570 121.868   4
   3 -16  -3 1113.33 110.614   5
   3  16  -3 967.181 142.416   6
   3  16  -2 49609.2 841.788   6
   3 -16  -2 49141.3 736.069   4
   3 -16  -1 413.943 88.8753   4
   3  16  -1 142.388 84.8721   6
   3 -16  -1 260.698 74.0818   6
   3 -16   0 68948.2 727.492   1
   3  16   0 68712.5 992.091   6
   3 -16   0 69352.5 841.989   6
   3 -16   0 67688.0 788.049   4
   3  16   1 2053.01 102.869   2
   3  16   1 2272.59 210.063   6
   3 -16   1 1926.18 109.280   1
   3 -16   1 1909.12 138.126   4
   3 -16   1 2032.48 150.254   6
   3 -16   1 1908.24 143.108   5
   3  16   2 82005.1 789.276   2
   3  16   2 80871.5 1116.12   6
   3 -16   2 80351.0 840.564   4
   3  16   3 74009.4 867.772   2
   3  16   3 72652.6 1117.35   6
   3  16   4 27962.7 516.993   3
   3 -17 -12 4135.69 350.559   5
   3 -17 -11 201.090 123.353   5
   3 -17 -10 8682.08 442.979   5
   3  17 -10 9536.91 526.957   6
   3 -17  -9 1331.50 185.009   5
   3  17  -9 1226.79 220.586   6
   3 -17  -8 19326.9 585.975   5
   3  17  -8 19782.9 676.727   6
   3 -17  -7 2112.00 192.706   5
   3  17  -7 2220.42 230.846   6
   3 -17  -6 40942.7 753.333   5
   3  17  -6 42197.2 903.583   6
   3 -17  -5 1063.78 147.191   4
   3 -17  -5 1115.68 131.878   5
   3  17  -5 1124.37 165.229   6
   3 -17  -4 54412.5 878.895   4
   3 -17  -4 55534.3 780.428   5
   3  17  -4 54450.8 951.040   6
   3 -17  -3 944.626 124.716   4
   3 -17  -3 876.076 107.697   5
   3  17  -3 761.403 131.790   6
   3  17  -2 10643.9 409.755   6
   3 -17  -2 10791.8 358.132   4
   3  17  -1 116.163 79.5100   6
   3 -17  -1 97.6264 54.6804   4
   3 -17   0 2477.19 148.293   1
   3  17   0 2168.88 195.189   6
   3 -17   0 2416.24 161.044   4
   3  17   1 24525.3 337.382   2
   3  17   1 25274.6 633.796   6
   3 -17   1 25073.0 392.612   1
   3 -17   1 25999.2 491.110   4
   3  17   2 4121.39 179.933   2
   3  17   2 3856.68 266.468   6
   3 -17   2 4111.84 198.687   4
   3 -17   2 3855.63 125.027   1
   3  17   3 3578.05 197.504   2
   3  17   3 3606.79 278.343   6
   3  17   4 27925.4 518.245   3
   3 -18 -11 8810.08 479.098   5
   3 -18 -10 219.791 107.292   5
   3  18 -10-60.6830 131.939   6
   3 -18  -9 16862.6 585.137   5
   3  18  -9 17889.5 686.252   6
   3 -18  -8 1449.31 178.430   5
   3  18  -8 1543.76 222.412   6
   3 -18  -7 13014.8 458.357   5
   3  18  -7 12807.6 535.075   6
   3 -18  -6 9351.38 373.613   5
   3  18  -6 9050.04 439.689   6
   3 -18  -5 19655.1 569.997   4
   3 -18  -5 19769.8 506.967   5
   3  18  -5 19456.4 613.818   6
   3 -18  -4 110.836 86.6687   4
   3 -18  -4 102.042 63.4978   5
   3  18  -4 191.486 100.127   6
   3 -18  -3 5196.33 267.670   4
   3 -18  -3 5683.54 252.219   5
   3  18  -3 5729.76 328.446   6
   3  18  -2 16593.3 527.496   6
   3 -18  -2 15883.5 438.627   4
   3  18  -1 4.80072 89.7966   6
   3 -18  -1 69.4300 61.6771   4
   3 -18   0 15770.2 366.756   1
   3  18   0 16505.5 523.238   6
   3 -18   0 16201.0 404.977   4
   3  18   1 17266.9 274.537   2
   3  18   1 18494.4 558.259   6
   3 -18   1 17926.9 416.656   4
   3 -18   1 17580.4 339.358   1
   3 -18   2 2584.79 106.634   1
   3  18   2 2718.10 145.832   2
   3  18   2 2453.52 225.225   6
   3 -18   2 2500.62 163.632   4
   3  18   3 4871.16 228.722   2
   3  18   3 4627.07 314.477   6
   3 -19 -11 4687.24 354.355   5
   3 -19 -10 2107.07 229.097   5
   3  19 -10 2285.94 272.867   6
   3 -19  -9 454.395 122.167   5
   3  19  -9 280.864 121.983   6
   3 -19  -8 5191.46 320.666   5
   3  19  -8 5389.76 379.971   6
   3 -19  -7 22.3679 71.2280   5
   3  19  -7-82.8093 125.929   6
   3 -19  -6 16781.0 565.589   4
   3 -19  -6 16072.0 496.361   5
   3  19  -6 16271.3 597.700   6
   3 -19  -5 358.545 98.0992   4
   3 -19  -5 535.968 104.825   5
   3  19  -5 234.029 102.631   6
   3 -19  -4 33496.0 723.334   4
   3 -19  -4 33470.2 649.620   5
   3  19  -4 32823.9 785.599   6
   3 -19  -3 41642.1 760.687   4
   3 -19  -3 42482.2 700.871   5
   3  19  -3 42354.7 868.828   6
   3  19  -2 19936.9 592.896   6
   3 -19  -2 18849.0 488.763   4
   3  19  -1 20300.2 596.532   6
   3 -19  -1 19672.7 471.840   4
   3 -19   0 9096.68 287.765   1
   3  19   0 9493.29 413.503   6
   3 -19   0 9287.17 315.967   4
   3  19   1 1537.50 79.5121   2
   3  19   1 1759.05 194.671   6
   3 -19   1 1682.91 139.873   4
   3 -19   1 1579.13 108.667   1
   3 -19   2 8006.33 189.941   1
   3  19   2 8427.49 249.832   2
   3  19   2 8428.32 400.729   6
   3 -19   2 8412.14 286.956   4
   3  19   3 45930.8 690.518   2
   3  19   3 47262.0 985.474   6
   3 -20 -10 1595.17 219.774   5
   3  20 -10 1754.81 251.339   6
   3 -20  -9 82.2100 111.005   5
   3  20  -9 86.6273 118.180   6
   3 -20  -8 1982.19 215.492   5
   3  20  -8 2351.95 272.282   6
   3 -20  -7 862.524 139.729   5
   3  20  -7 1004.54 190.606   6
   3 -20  -6 1535.60 188.274   4
   3 -20  -6 1333.16 160.349   5
   3  20  -6 1697.86 210.785   6
   3 -20  -5-12.7877 77.9772   4
   3 -20  -5-33.0328 73.5810   5
   3  20  -5 24.4253 88.8532   6
   3 -20  -4 13472.6 470.633   4
   3 -20  -4 13271.5 423.525   5
   3  20  -4 12956.6 509.731   6
   3 -20  -3 11955.5 424.446   4
   3  20  -3 11228.3 469.498   6
   3  20  -2 27816.7 716.363   6
   3 -20  -2 28603.2 614.871   4
   3  20  -1 4438.86 294.298   6
   3 -20  -1 4242.46 234.927   4
   3 -20   0 27396.1 510.627   1
   3  20   0 27775.8 714.301   6
   3 -20   0 27851.6 551.497   4
   3  20   1 22527.5 276.136   2
   3 -20   1 25160.8 511.582   4
   3  20   1 25754.7 700.842   6
   3 -20   1 24308.3 422.644   1
   3 -20   2 27606.4 525.008   4
   3  20   2 27556.5 736.390   6
   3  20   3 358.659 147.925   6
   3 -21 -10 1763.61 222.177   5
   3 -21  -9 1752.55 215.377   5
   3  21  -9 1745.19 261.007   6
   3 -21  -8 10860.1 472.126   5
   3  21  -8 11407.9 570.584   6
   3 -21  -7-67.8980 112.112   4
   3 -21  -7 66.1829 79.5565   5
   3  21  -7 226.024 128.649   6
   3 -21  -6 7869.28 406.470   4
   3 -21  -6 7762.04 362.800   5
   3  21  -6 7543.30 421.215   6
   3 -21  -5 1076.30 159.098   4
   3 -21  -5 1203.98 154.026   5
   3  21  -5 1291.44 190.555   6
   3 -21  -4 4646.55 284.340   4
   3  21  -4 4948.33 330.580   6
   3 -21  -4 4851.21 267.435   5
   3  21  -3 33090.8 812.780   6
   3 -21  -3 33379.8 712.818   4
   3  21  -2 10647.5 459.678   6
   3 -21  -2 10294.8 381.226   4
   3  21  -1 40342.2 880.747   6
   3 -21  -1 40133.4 702.832   4
   3 -21   0 246.536 66.9705   1
   3  21   0 221.454 101.218   6
   3 -21   0 375.054 98.0416   4
   3  21   1 29938.0 772.903   6
   3 -21   1 30565.8 572.613   4
   3  21   2 169.535 113.778   6
   3 -21   2 146.547 62.1962   4
   3  21   3 19981.2 682.667   6
   3 -22  -9 5410.85 361.656   5
   3  22  -9 5431.07 416.198   6
   3 -22  -8 306.870 148.683   4
   3 -22  -8 450.473 139.690   5
   3  22  -8 136.489 115.850   6
   3 -22  -7 11614.8 525.729   4
   3 -22  -7 11381.5 471.263   5
   3  22  -7 11972.0 566.355   6
   3 -22  -6-15.4558 104.460   4
   3 -22  -6 95.6899 78.4301   5
   3  22  -6 86.0598 103.149   6
   3 -22  -5 19082.1 609.831   4
   3 -22  -5 20203.5 569.187   5
   3  22  -5 19617.6 674.197   6
   3 -22  -4 3706.50 261.619   4
   3 -22  -4 4162.51 254.980   5
   3  22  -4 4321.06 319.220   6
   3  22  -3 9933.79 466.883   6
   3 -22  -3 9590.35 391.328   4
   3  22  -2 8444.69 429.700   6
   3 -22  -2 8543.56 351.655   4
   3  22  -1 479.936 154.662   6
   3 -22  -1 529.348 117.375   4
   3  22   0 35787.8 854.096   6
   3 -22   0 36608.7 661.231   4
   3  22   1 2430.30 241.953   6
   3 -22   1 2548.47 177.240   4
   3  22   2 192.430 122.129   6
   3 -22   2 90.4196 56.1893   4
   3  22   3 12055.8 544.531   6
   3 -23  -8 12143.6 576.292   4
   3 -23  -8 11318.7 498.813   5
   3  23  -8 12265.4 609.830   6
   3 -23  -7 928.972 171.494   4
   3 -23  -7 904.415 153.329   5
   3  23  -7 935.867 197.086   6
   3 -23  -6 6726.25 393.516   4
   3 -23  -6 6661.63 355.548   5
   3  23  -6 6497.65 417.636   6
   3 -23  -5 1297.23 183.805   4
   3 -23  -5 1209.82 157.260   5
   3  23  -5 1230.61 197.174   6
   3 -23  -4 31068.2 750.248   4
   3 -23  -4 31500.4 707.460   5
   3  23  -4 31258.7 850.578   6
   3 -23  -3 282.231 108.033   4
   3 -23  -3 246.499 92.8760   5
   3  23  -3 319.901 123.721   6
   3 -23  -2 1788.73 176.332   4
   3  23  -2 1705.50 218.100   6
   3  23  -1 9516.80 461.722   6
   3 -23  -1 9070.83 352.370   4
   3  23   0 7697.11 424.993   6
   3 -23   0 7399.86 310.114   4
   3  23   1 307.867 124.801   6
   3 -23   1 216.984 64.5332   4
   3  23   2 12529.6 546.318   6
   3 -23   2 11808.8 363.186   4
   3  23   3 777.666 177.433   6
   3 -24  -8 53.1391 121.570   4
   3 -24  -8 263.036 107.499   5
   3  24  -8 170.915 155.597   6
   3 -24  -7 3452.76 306.460   4
   3 -24  -7 3457.75 280.479   5
   3  24  -7 3533.84 339.628   6
   3 -24  -6 548.852 131.018   4
   3 -24  -6 348.042 112.350   5
   3  24  -6 408.416 144.033   6
   3 -24  -5 1913.59 217.086   4
   3 -24  -5 2212.15 210.355   5
   3  24  -5 2070.46 250.128   6
   3 -24  -4 15299.0 539.737   4
   3 -24  -4 15626.9 514.108   5
   3  24  -4 14905.6 600.791   6
   3 -24  -3 2753.77 219.597   5
   3  24  -3 2433.17 249.794   6
   3 -24  -3 2942.49 237.600   4
   3  24  -2 13172.2 551.576   6
   3 -24  -2 13159.2 451.115   4
   3  24  -1 3892.16 316.997   6
   3 -24  -1 4136.07 248.286   4
   3  24   0 10209.2 489.579   6
   3 -24   0 10840.4 376.619   4
   3  24   1 592.285 169.781   6
   3 -24   1 619.237 107.845   4
   3  24   2 18355.2 672.480   6
   3 -24   2 17784.4 450.520   4
   3  24   3 2576.75 286.049   6
   3 -25  -8 122.368 130.243   4
   3 -25  -7 490.391 145.923   4
   3 -25  -7 584.317 137.377   5
   3  25  -7 313.818 160.905   6
   3 -25  -6 787.277 156.187   4
   3 -25  -6 842.298 149.215   5
   3  25  -6 906.740 191.799   6
   3 -25  -5 6761.82 385.102   4
   3 -25  -5 6838.56 361.738   5
   3  25  -5 6982.26 436.688   6
   3 -25  -4 3561.95 261.138   5
   3  25  -4 4416.84 347.952   6
   3 -25  -4 3915.67 281.917   4
   3 -25  -3 1618.52 179.673   4
   3 -25  -3 1916.93 198.470   5
   3  25  -3 1528.74 214.943   6
   3  25  -2 3475.35 309.764   6
   3 -25  -2 3470.00 245.722   4
   3  25  -1 34736.2 913.275   6
   3 -25  -1 34748.5 707.843   4
   3  25   0 4314.06 340.346   6
   3 -25   0 4491.30 254.624   4
   3  25   1 36086.3 943.477   6
   3 -25   1 35674.4 662.084   4
   3  25   2-149.825 112.155   6
   3  25   3 10424.9 541.642   6
   3 -26  -7 2526.88 274.327   4
   3  26  -7 2393.63 289.582   6
   3 -26  -6 3205.09 289.196   4
   3 -26  -6 2800.31 254.097   5
   3  26  -6 2873.80 316.447   6
   3 -26  -5 859.543 169.749   4
   3  26  -5 860.741 187.151   6
   3 -26  -5 1040.01 164.648   5
   3 -26  -4 3878.90 276.319   5
   3  26  -4 4371.28 355.994   6
   3 -26  -4 3684.28 284.179   4
   3 -26  -3 4688.19 293.707   5
   3  26  -3 5576.85 398.118   6
   3 -26  -3 4940.91 316.372   4
   3  26  -2 9343.66 497.763   6
   3 -26  -2 9560.97 398.972   4
   3  26  -1 43.6240 116.528   6
   3 -26  -1 104.341 86.0126   4
   3  26   0 17326.0 674.875   6
   3 -26   0 17110.4 488.162   4
   3  26   1 1125.47 198.077   6
   3  26   2 3740.94 337.867   6
   3  26   3 4630.39 375.372   6
   3 -27  -7 3937.52 351.429   4
   3 -27  -6 5484.35 381.920   4
   3  27  -6 5641.30 420.650   6
   3 -27  -5 1520.25 211.085   4
   3 -27  -5 1356.79 181.706   5
   3  27  -5 1674.64 247.156   6
   3 -27  -4 1724.54 205.926   4
   3 -27  -4 1817.20 203.083   5
   3  27  -4 1692.82 238.687   6
   3 -27  -3 862.197 155.592   4
   3 -27  -3 770.535 143.587   5
   3  27  -3 1080.47 217.859   6
   3  27  -2 1628.42 243.579   6
   3 -27  -2 1704.31 184.369   4
   3  27  -1 517.595 155.602   6
   3 -27  -1 616.860 118.018   4
   3  27   0 264.101 141.876   6
   3 -27   0 58.7585 85.7456   4
   3  27   1 3201.39 306.452   6
   3  27   2 3668.97 341.618   6
   3  27   3 798.299 193.359   6
   3 -28  -6 6433.44 412.585   4
   3  28  -5 10360.1 567.515   6
   3 -28  -5 10116.3 495.730   4
   3 -28  -4 2087.46 226.329   4
   3 -28  -4 2196.55 217.462   5
   3  28  -4 2023.30 278.096   6
   3 -28  -3 15969.1 569.116   5
   3  28  -3 16321.7 693.793   6
   3 -28  -3 15313.3 550.371   4
   3  28  -2 640.476 176.533   6
   3 -28  -2 606.072 126.776   4
   3  28  -1 1922.21 251.839   6
   3 -28  -1 2227.40 200.041   4
   3  28   0 3588.91 339.632   6
   3  28   1 2003.35 272.562   6
   3  28   2 2082.29 285.932   6
   3  28   3 5159.64 413.331   6
   3 -29  -6 8796.71 494.053   4
   3 -29  -5 10348.9 507.024   4
   3 -29  -4 1090.74 182.690   4
   3  29  -4 1048.11 222.764   6
   3 -29  -3 4012.94 301.658   5
   3  29  -3 4115.22 367.912   6
   3 -29  -3 4007.27 294.854   4
   3  29  -2 2399.98 306.099   6
   3 -29  -2 2126.84 211.304   4
   3  29  -1 6340.55 450.054   6
   3  29   0 6221.38 439.975   6
   3  29   1 7565.29 487.312   6
   3  29   2 953.802 218.541   6
   3 -30  -5 214.049 131.720   4
   3 -30  -4 2002.15 228.761   4
   3 -30  -3 1712.97 205.798   4
   3  30  -2 2866.13 323.777   6
   3  30  -1 5309.85 418.482   6
   3  30   0 10699.5 578.470   6
   3  30   1 1393.50 227.678   6
   3 -31  -5 2131.41 250.738   4
   4   0 -13 160.905 129.635   5
   4   0 -12 2632.89 267.369   5
   4   0 -11 150.349 111.919   5
   4   0 -10 40520.7 859.987   5
   4   0  -9 103.644 83.3445   5
   4   0  -8 121684. 1265.64   5
   4   0  -7 121.106 80.6080   5
   4   0  -6 99215.5 940.332   4
   4   0  -6 98348.2 1007.47   1
   4   0  -6 97982.0 932.935   5
   4   0  -5 27.4889 48.1307   4
   4   0  -5 54.9810 47.9238   5
   4   0  -5 185.918 60.0634   1
   4   0  -4 15926.6 359.396   1
   4   0  -4 15552.5 323.408   4
   4   0  -3 71.5266 42.1361   1
   4   0  -3 22.6843 42.9842   4
   4   0  -2 9297.74 236.394   4
   4   0  -2 8909.58 178.281   6
   4   0  -1-41.7596 46.7388   4
   4   0  -1 71.1121 24.7771   6
   4   0   0 2591.30 74.8146   6
   4   0   1 15.5024 31.8178   5
   4   0   2 2381.62 138.501   5
   4   0   2 2582.29 158.309   2
   4   0   3-11.0205 43.1005   5
   4   0   3 53.3453 61.1075   2
   4   1 -13 310.357 150.840   5
   4  -1 -13 247.508 135.177   5
   4   1 -12 12540.2 560.072   5
   4  -1 -12 11897.8 540.962   5
   4   1 -11 1447.24 198.036   5
   4  -1 -11 1678.28 208.264   5
   4   1 -10 7616.26 382.913   5
   4  -1 -10 8002.77 387.114   5
   4   1  -9 24769.5 631.852   5
   4  -1  -9 25251.6 627.262   5
   4   1  -8 1324.22 152.331   5
   4  -1  -8 1287.56 152.107   5
   4   1  -7 76759.3 928.041   5
   4  -1  -7 75599.7 902.917   5
   4   1  -6 10185.7 296.267   4
   4  -1  -6 10441.2 316.785   4
   4   1  -6 10799.4 333.442   1
   4   1  -6 10689.4 319.164   5
   4  -1  -6 9794.93 292.930   5
   4   1  -5 50580.0 600.318   4
   4  -1  -5 52281.7 654.080   4
   4   1  -5 52057.9 679.383   1
   4  -1  -5 52138.6 695.151   1
   4   1  -5 50752.8 607.738   5
   4  -1  -5 50876.4 582.192   5
   4   1  -4 27398.4 463.522   1
   4  -1  -4 27624.7 479.996   1
   4  -1  -4 26782.7 359.389   5
   4   1  -4 27281.6 414.211   4
   4  -1  -4 27594.2 440.762   4
   4  -1  -3 100545. 854.965   1
   4   1  -3 99064.7 742.526   4
   4   1  -3 98638.3 731.126   6
   4  -1  -3 99444.9 789.211   4
   4   1  -2 34238.4 438.888   4
   4  -1  -2 32800.9 447.612   4
   4   1  -2 33630.1 367.829   6
   4   1  -1 22551.1 364.125   4
   4  -1  -1 22399.8 370.567   4
   4   1  -1 21979.7 250.728   6
   4  -1  -1 20910.4 185.741   6
   4   1   0 23435.9 254.745   6
   4  -1   1 66877.5 600.462   5
   4  -1   2 35905.4 510.592   5
   4   1   2 36094.3 525.867   5
   4  -1   2 35457.9 576.594   2
   4   1   2 34855.7 569.109   2
   4   1   3 54275.1 782.410   2
   4  -1   3 54806.4 710.510   5
   4   1   3 54144.0 722.788   5
   4  -1   3 54335.8 782.167   2
   4   1   4 54432.3 811.415   3
   4  -1   4 52973.3 772.859   5
   4   2 -13 12147.1 590.512   5
   4  -2 -13 12198.3 576.471   5
   4   2 -12 882.517 189.950   5
   4  -2 -12 507.678 146.684   5
   4   2 -11 23827.8 722.783   5
   4  -2 -11 23608.2 698.756   5
   4   2 -10 2956.60 250.714   5
   4  -2 -10 2948.81 243.205   5
   4   2  -9 14083.7 483.008   5
   4  -2  -9 14340.1 474.884   5
   4   2  -8 3284.12 222.445   5
   4  -2  -8 3237.87 209.947   5
   4   2  -7 12737.9 347.988   4
   4   2  -7 12349.3 382.146   5
   4  -2  -7 12174.0 361.088   5
   4   2  -6 61908.4 699.844   4
   4  -2  -6 62365.7 784.119   4
   4   2  -6 61443.7 776.372   1
   4   2  -6 60217.8 758.567   5
   4  -2  -6 60395.6 715.187   5
   4   2  -5 18697.3 358.215   4
   4   2  -5 19033.4 407.734   1
   4  -2  -5 19201.0 408.311   4
   4  -2  -5 19006.9 430.533   1
   4  -2  -5 18925.2 349.961   5
   4  -2  -4 183591. 1240.25   1
   4  -2  -4 179918. 903.150   5
   4   2  -4 178070. 1016.36   4
   4  -2  -3 85834.1 798.373   1
   4   2  -3 84754.2 672.917   4
   4   2  -3 85845.4 710.242   6
   4  -2  -3 85388.3 754.196   4
   4   2  -2 103072. 743.153   4
   4   2  -2 101066. 676.036   6
   4  -2  -2 104533. 809.749   4
   4  -2  -2 105601. 835.068   1
   4   2  -1 114338. 637.381   6
   4  -2  -1 113784. 853.906   4
   4  -2   0 7655.11 159.673   5
   4   2   0 7718.44 166.094   6
   4  -2   0 8117.94 237.096   4
   4  -2   1 32053.3 409.387   5
   4   2   1 32526.4 493.129   2
   4  -2   2 22835.2 402.785   5
   4   2   2 23140.2 430.916   5
   4  -2   2 22685.8 470.354   2
   4   2   2 22205.9 453.720   2
   4   2   3 118854. 1150.51   2
   4   2   3 116716. 1057.40   3
   4  -2   3 120571. 1041.92   5
   4   2   3 120325. 1083.37   5
   4  -2   3 119082. 1165.88   2
   4   2   4 4691.56 238.473   3
   4  -2   4 4985.65 242.531   5
   4   3 -13 365.679 168.108   5
   4  -3 -13 452.359 152.309   5
   4   3 -12 21892.9 742.710   5
   4  -3 -12 20831.6 703.363   5
   4   3 -11 1401.87 206.103   5
   4  -3 -11 1270.21 187.716   5
   4   3 -10 17621.8 584.863   5
   4  -3 -10 17372.5 556.079   5
   4   3  -9 7645.12 362.880   5
   4  -3  -9 8018.70 354.477   5
   4   3  -8 23839.8 581.670   5
   4  -3  -8 23583.7 549.173   5
   4   3  -7 25485.9 474.045   4
   4   3  -7 24749.4 546.682   5
   4  -3  -7 24332.0 506.068   5
   4   3  -6 31509.1 487.551   4
   4   3  -6 30292.1 541.127   1
   4  -3  -6 32527.9 581.701   4
   4  -3  -6 30716.9 508.332   5
   4  -3  -5 28442.3 506.359   4
   4  -3  -5 28412.6 532.016   1
   4   3  -5 27884.1 487.248   1
   4  -3  -5 27218.9 414.638   5
   4   3  -5 27372.1 415.514   4
   4  -3  -4 140250. 1053.36   4
   4  -3  -4 141667. 1109.92   1
   4   3  -4 138996. 1043.13   6
   4   3  -4 137126. 863.644   4
   4  -3  -4 138645. 771.670   5
   4  -3  -3 46434.6 598.079   1
   4   3  -3 45721.5 483.092   4
   4   3  -3 45630.1 534.745   6
   4  -3  -3 46900.8 577.819   4
   4  -3  -2 187597. 1114.48   1
   4   3  -2 182304. 978.576   4
   4   3  -2 180526. 956.608   6
   4  -3  -2 187041. 1105.90   4
   4   3  -1 1649.66 89.0638   6
   4  -3  -1 1604.07 117.873   4
   4  -3   0 3855.88 110.017   5
   4   3   0 3946.38 134.628   6
   4  -3   0 3960.00 167.022   4
   4  -3   1 4047.91 144.304   5
   4   3   1 4077.31 149.086   6
   4   3   1 3957.97 173.529   2
   4  -3   2 77520.7 733.841   5
   4   3   2 75700.5 789.332   5
   4  -3   2 76723.3 872.262   2
   4   3   2 76117.5 826.340   2
   4   3   3 9556.05 329.464   2
   4   3   3 9541.94 304.492   3
   4  -3   3 9665.15 295.080   5
   4   3   3 9715.69 315.970   5
   4  -3   3 9021.24 325.882   2
   4   3   4 46642.9 734.960   3
   4  -3   4 46915.6 721.125   5
   4  -4 -13 10054.2 523.881   5
   4   4 -12 121.591 135.461   5
   4  -4 -12 350.231 138.432   5
   4   4 -11 15569.4 593.228   5
   4  -4 -11 14955.7 561.725   5
   4  -4 -10 2008.29 202.864   5
   4   4 -10 1969.94 215.425   5
   4  -4  -9 728.428 127.323   5
   4   4  -9 692.709 137.020   5
   4   4  -8 57242.2 748.849   4
   4   4  -8 55799.3 896.931   5
   4  -4  -8 55338.9 837.815   5
   4   4  -7 6157.79 259.478   1
   4   4  -7 6413.87 236.641   4
   4  -4  -7 6365.29 262.460   5
   4   4  -6 81675.8 749.374   4
   4   4  -6 81434.2 869.498   1
   4  -4  -6 82547.6 823.946   5
   4  -4  -5 10155.8 319.538   4
   4  -4  -5 10793.6 340.040   1
   4   4  -5 9936.15 318.582   6
   4   4  -5 10300.9 247.429   4
   4  -4  -5 9947.77 250.620   5
   4  -4  -4 32642.8 521.114   4
   4  -4  -4 32767.4 541.977   1
   4   4  -4 32457.0 514.991   6
   4   4  -4 31215.7 397.623   4
   4  -4  -4 31672.4 361.288   5
   4  -4  -3 23324.9 425.638   1
   4   4  -3 23123.5 334.376   4
   4   4  -3 22584.2 395.649   6
   4  -4  -3 22291.2 219.112   5
   4  -4  -3 22950.4 415.721   4
   4  -4  -2 76371.6 723.265   1
   4   4  -2 74457.0 611.906   4
   4   4  -2 70568.2 633.596   6
   4  -4  -2 73904.5 712.431   4
   4   4  -1 98292.9 699.460   6
   4  -4  -1 99293.1 830.533   4
   4  -4   0 786.180 51.7959   5
   4   4   0 674.044 65.8405   6
   4  -4   0 641.590 80.6690   4
   4  -4   1 924.800 72.0931   5
   4   4   1 1165.94 98.1703   6
   4   4   1 1003.30 89.8157   2
   4   4   2 44396.0 629.581   2
   4  -4   2 46960.8 568.245   5
   4   4   3 36640.1 637.342   2
   4  -4   3 37466.0 578.435   5
   4   4   3 37712.6 592.338   3
   4   4   3 37361.5 623.512   5
   4  -4   3 36530.3 652.615   2
   4  -4   4 5986.64 257.901   5
   4   4   4 6142.37 268.770   3
   4  -5 -13 301.142 139.464   5
   4  -5 -12-257.764 132.451   5
   4   5 -12-102.107 123.902   6
   4   5 -11 17399.0 507.164   4
   4  -5 -11 16371.8 580.613   5
   4  -5 -10 1347.25 172.578   5
   4   5 -10 1391.00 146.918   4
   4   5  -9 27206.6 543.661   4
   4  -5  -9 25858.5 623.850   5
   4   5  -8 6453.40 248.909   4
   4  -5  -8 6477.84 294.058   5
   4  -5  -7 77738.8 892.460   5
   4   5  -7 78894.8 785.082   4
   4   5  -7 77669.0 1047.43   6
   4   5  -7 75870.4 879.837   1
   4  -5  -6 23794.3 443.489   5
   4   5  -6 23501.8 541.029   6
   4   5  -6 24016.0 395.929   4
   4  -5  -5 200341. 1103.73   5
   4  -5  -5 203390. 1414.17   4
   4   5  -5 200143. 1029.58   4
   4  -5  -4 22871.4 306.513   5
   4  -5  -4 22592.2 443.841   4
   4   5  -4 22454.7 325.710   4
   4  -5  -4 22722.4 460.436   1
   4   5  -4 22370.9 441.419   6
   4  -5  -3 118648. 978.401   1
   4   5  -3 115636. 720.905   4
   4   5  -3 115622. 916.184   6
   4  -5  -3 116853. 956.427   4
   4  -5  -3 109839. 483.535   5
   4  -5  -2 7153.43 226.507   1
   4  -5  -2 6937.82 160.733   6
   4   5  -2 6588.58 209.566   6
   4  -5  -2 7190.90 229.157   4
   4  -5  -1 27358.0 222.835   6
   4   5  -1 28124.7 403.447   6
   4  -5  -1 29192.2 456.950   4
   4  -5  -1 28901.1 421.301   1
   4  -5   0 4534.31 116.444   5
   4   5   0 4384.67 173.125   6
   4  -5   0 4369.76 186.681   4
   4  -5   1 9012.82 216.544   5
   4   5   1 9256.61 247.312   6
   4   5   1 9172.22 252.472   2
   4   5   2 23629.3 461.839   2
   4  -5   2 24824.0 416.907   5
   4   5   3 6873.26 280.855   2
   4  -5   3 6377.99 242.397   5
   4   5   3 6188.79 237.115   3
   4  -5   3 6217.65 273.120   2
   4  -5   4 50634.9 748.819   5
   4   5   4 51629.5 757.848   3
   4  -6 -13 5118.60 378.587   5
   4  -6 -12 172.805 121.223   5
   4   6 -12 227.002 155.737   6
   4   6 -11 7536.04 327.112   4
   4   6 -11 7098.19 432.177   6
   4  -6 -11 6945.32 386.203   5
   4   6 -10 14101.7 413.720   4
   4   6 -10 14385.4 569.704   6
   4  -6 -10 13667.2 497.810   5
   4  -6  -9 40321.2 782.121   5
   4   6  -9 43112.2 663.011   4
   4   6  -9 41439.6 897.810   6
   4  -6  -8 32832.7 645.636   5
   4   6  -8 33442.6 535.180   4
   4   6  -8 32145.0 737.126   6
   4  -6  -7 172.423 65.0639   5
   4   6  -7 183.524 63.2789   4
   4   6  -7 331.446 105.388   6
   4  -6  -6 73687.8 783.026   5
   4   6  -6 73504.9 959.338   6
   4   6  -6 74118.5 658.482   4
   4  -6  -5 22413.3 374.880   5
   4  -6  -5 23185.5 495.055   4
   4   6  -5 22721.7 494.952   6
   4   6  -5 22024.5 328.601   4
   4  -6  -4 62219.5 759.740   4
   4  -6  -4 61729.5 508.193   5
   4   6  -4 61858.2 517.960   4
   4   6  -4 62491.3 759.171   6
   4  -6  -4 64371.9 791.209   1
   4  -6  -3 2181.39 72.1763   5
   4   6  -3 2376.11 103.925   4
   4  -6  -3 2419.97 148.539   1
   4   6  -3 2248.94 138.929   6
   4  -6  -3 2493.99 153.919   4
   4  -6  -2 93301.8 818.552   1
   4  -6  -2 91706.2 603.945   6
   4   6  -2 91386.4 794.997   6
   4  -6  -2 93352.9 840.770   4
   4  -6  -1 29372.6 429.395   1
   4  -6  -1 28907.2 262.837   6
   4   6  -1 29195.9 432.414   6
   4  -6  -1 29391.3 462.722   4
   4  -6   0 55800.0 414.625   5
   4   6   0 54007.6 593.935   6
   4  -6   0 54740.1 635.491   4
   4  -6   0 52500.0 311.332   6
   4  -6   1 7546.16 196.259   5
   4   6   1 7848.88 241.986   6
   4   6   1 7195.27 223.539   2
   4   6   2 14186.4 353.672   2
   4  -6   2 15123.0 327.355   5
   4   6   2 14195.4 301.411   3
   4   6   3 5492.58 248.890   2
   4  -6   3 5330.01 221.950   5
   4   6   3 5469.17 218.872   3
   4   6   4 359.156 79.2573   3
   4  -7 -13 221.389 126.160   5
   4   7 -12 16500.9 699.345   6
   4  -7 -12 15585.3 616.216   5
   4  -7 -11 724.308 151.280   5
   4   7 -11 933.003 191.642   6
   4   7 -10 22938.0 507.534   4
   4   7 -10 22510.5 714.891   6
   4  -7 -10 21454.8 618.927   5
   4  -7  -9 2562.09 210.145   5
   4   7  -9 2705.69 171.549   4
   4   7  -9 2795.10 253.289   6
   4  -7  -8 6700.13 296.548   5
   4   7  -8 6850.76 236.130   4
   4   7  -8 6937.06 358.282   6
   4  -7  -7 7288.43 281.355   5
   4   7  -7 7600.49 345.069   6
   4   7  -7 7261.83 219.683   4
   4   7  -6 171.863 45.7657   4
   4  -7  -6 270.100 63.3979   5
   4   7  -6 71.8801 69.7591   6
   4  -7  -5 13050.4 287.300   5
   4  -7  -5 13706.2 389.444   4
   4   7  -5 13085.2 238.630   4
   4   7  -5 13235.0 389.750   6
   4  -7  -4 12274.1 347.011   4
   4  -7  -4 11384.4 224.719   5
   4   7  -4 11782.8 215.796   4
   4   7  -4 11874.3 341.006   6
   4  -7  -4 11756.5 345.233   1
   4  -7  -3 25073.5 255.151   5
   4  -7  -3 26120.9 415.260   6
   4   7  -3 26018.9 469.658   6
   4  -7  -3 26251.5 476.606   1
   4  -7  -3 26319.2 480.208   4
   4  -7  -2 199.247 59.1140   1
   4  -7  -2 319.335 49.9429   6
   4   7  -2 278.153 76.4549   6
   4  -7  -2 279.622 73.5192   4
   4  -7  -1 1492.95 52.7367   5
   4  -7  -1 1519.82 105.567   1
   4   7  -1 1678.61 122.805   6
   4  -7  -1 1731.87 79.0899   6
   4  -7  -1 1561.60 116.680   4
   4  -7   0 52791.8 420.648   5
   4   7   0 51843.7 616.929   6
   4  -7   0 51042.6 623.140   4
   4  -7   0 50648.6 362.431   6
   4  -7   1 41249.1 466.143   5
   4   7   1 39562.7 561.847   6
   4  -7   1 40451.7 572.129   4
   4   7   1 39769.5 515.133   2
   4   7   2 143609. 1109.77   2
   4  -7   2 147236. 1021.10   5
   4   7   2 140048. 933.652   3
   4   7   2 143211. 1132.00   6
   4   7   3 9374.28 323.864   2
   4  -7   3 9764.37 299.421   5
   4   7   3 9262.26 280.370   3
   4   7   4 33324.6 596.866   3
   4  -8 -13 6250.25 418.317   5
   4  -8 -12 234.053 123.478   5
   4   8 -12 285.972 158.869   6
   4   8 -11 16989.1 669.276   6
   4  -8 -11 15272.9 564.186   5
   4  -8 -10 2426.56 222.992   5
   4   8 -10 2531.11 173.003   4
   4   8 -10 2429.45 257.427   6
   4  -8  -9 58813.8 947.582   5
   4   8  -9 62450.9 735.124   4
   4   8  -9 61155.9 1111.95   6
   4  -8  -8 72.7582 59.7257   5
   4   8  -8 76.1270 44.8706   4
   4   8  -8 82.9022 89.3832   6
   4  -8  -7 4009.62 212.107   5
   4   8  -7 3794.84 258.912   6
   4   8  -7 4126.87 158.101   4
   4  -8  -6-8.94249 44.8746   5
   4   8  -6 32.9900 78.4419   6
   4   8  -6 57.3603 37.1359   4
   4  -8  -5 13865.1 304.336   5
   4  -8  -5 13942.1 401.354   4
   4   8  -5 13559.1 228.794   4
   4   8  -5 13592.1 403.775   6
   4  -8  -4 8641.03 301.515   4
   4  -8  -4 8570.53 304.248   1
   4  -8  -4 8136.34 195.924   5
   4  -8  -4 7926.80 266.656   6
   4   8  -4 8206.08 170.129   4
   4   8  -4 7870.35 287.575   6
   4  -8  -3 35774.2 330.179   5
   4  -8  -3 35176.3 486.481   6
   4   8  -3 36147.8 572.072   6
   4  -8  -3 37011.7 577.779   1
   4  -8  -3 36168.9 575.692   4
   4  -8  -2 16337.9 182.491   5
   4  -8  -2 17375.9 296.455   6
   4  -8  -2 17352.9 368.855   1
   4   8  -2 17239.4 378.171   6
   4  -8  -2 17183.6 381.816   4
   4  -8  -1 32894.0 471.023   1
   4   8  -1 33139.0 512.287   6
   4  -8  -1 32318.3 351.594   6
   4  -8  -1 33147.0 513.696   4
   4  -8  -1 32461.8 273.704   5
   4  -8   0 32976.6 352.602   5
   4   8   0 32193.9 511.684   6
   4  -8   0 32265.5 506.848   4
   4  -8   0 31623.0 323.376   6
   4  -8   1 112480. 784.219   5
   4   8   1 111673. 981.644   6
   4  -8   1 111273. 958.787   4
   4   8   1 110755. 853.632   2
   4  -8   2 489.630 67.0417   5
   4   8   2 446.225 92.1041   6
   4   8   2 510.751 59.9210   3
   4   8   2 410.387 68.4316   2
   4  -8   3 37521.1 590.518   5
   4   8   3 39000.0 662.051   2
   4   8   3 37414.4 553.900   3
   4   8   4 9891.95 325.442   3
   4  -9 -13-64.0173 109.814   5
   4   9 -12 6350.59 441.198   6
   4  -9 -12 5523.75 374.908   5
   4  -9 -11 3949.96 297.047   5
   4   9 -11 4458.45 356.686   6
   4  -9 -10 18774.6 582.944   5
   4   9 -10 19374.5 675.361   6
   4   9  -9 12488.9 314.213   4
   4  -9  -9 12530.4 446.507   5
   4   9  -9 13010.0 525.819   6
   4   9  -8 83.1065 47.8760   4
   4  -9  -8 43.4372 67.7317   5
   4   9  -8-31.0587 82.8136   6
   4  -9  -7 82857.8 942.921   5
   4   9  -7 84094.1 1160.82   6
   4   9  -7 83792.0 646.138   4
   4  -9  -6 6065.03 234.644   5
   4   9  -6 5943.00 153.936   4
   4   9  -6 5959.08 303.710   6
   4  -9  -5 120480. 1192.92   4
   4  -9  -5 117808. 895.508   5
   4  -9  -5 115758. 1147.77   6
   4   9  -5 117863. 611.361   4
   4   9  -5 118914. 1209.63   6
   4  -9  -4 5196.85 239.327   4
   4  -9  -4 4945.16 160.543   5
   4  -9  -4 5104.20 218.032   6
   4   9  -4 5250.89 248.369   6
   4  -9  -3 342.423 78.4121   4
   4  -9  -3 324.553 39.5437   5
   4  -9  -3 425.510 68.4865   6
   4   9  -3 355.694 77.7080   6
   4  -9  -3 340.924 61.2330   1
   4  -9  -2 18181.9 323.713   6
   4  -9  -2 18283.4 223.627   5
   4   9  -2 18628.0 415.906   6
   4  -9  -2 18998.2 394.843   1
   4  -9  -2 18604.5 404.471   4
   4  -9  -1 51409.1 595.346   1
   4   9  -1 48936.8 654.753   6
   4  -9  -1 50639.0 476.449   6
   4  -9  -1 50710.6 644.417   4
   4  -9  -1 50658.9 384.628   5
   4  -9   0 108330. 673.814   5
   4  -9   0 106411. 790.363   1
   4   9   0 108014. 979.640   6
   4  -9   0 107841. 942.553   4
   4  -9   0 106239. 654.773   6
   4  -9   1 23639.8 370.951   5
   4   9   1 22974.6 469.439   6
   4  -9   1 22892.6 442.335   4
   4   9   1 22950.9 384.976   2
   4  -9   2 22316.5 411.383   5
   4   9   2 21352.1 428.992   2
   4   9   2 21121.7 346.134   3
   4   9   2 21175.4 481.421   6
   4  -9   3 995.273 104.688   5
   4   9   3 1051.33 96.9259   3
   4   9   3 1204.36 120.453   2
   4   9   4 14817.4 393.297   3
   4 -10 -13 388.221 142.063   5
   4 -10 -12 620.973 142.592   5
   4  10 -12 378.878 148.807   6
   4 -10 -11 382.628 117.521   5
   4  10 -11 599.867 171.089   6
   4 -10 -10 10781.3 446.839   5
   4  10 -10 10952.6 515.096   6
   4  10  -9 750.569 84.6977   4
   4 -10  -9 652.853 130.950   5
   4  10  -9 888.271 170.308   6
   4 -10  -8 27479.8 601.531   5
   4  10  -8 28195.1 729.434   6
   4  10  -8 27947.5 386.757   4
   4 -10  -7 5137.07 242.351   5
   4  10  -7 4792.56 291.928   6
   4  10  -7 4739.47 142.342   4
   4 -10  -6 63505.0 761.060   5
   4 -10  -6 65451.6 949.744   4
   4  10  -6 60486.1 428.661   4
   4  10  -6 62565.4 953.715   6
   4 -10  -5 1609.48 163.216   4
   4 -10  -5 1495.59 113.936   5
   4 -10  -5 1461.15 145.687   6
   4  10  -5 1552.95 164.852   6
   4 -10  -4 54273.1 778.206   4
   4 -10  -4 52481.2 535.320   5
   4 -10  -4 53010.5 710.112   6
   4  10  -4 52829.1 780.447   6
   4 -10  -3 1651.72 131.849   1
   4 -10  -3 1373.09 128.661   4
   4 -10  -3 1366.97 78.2060   5
   4 -10  -3 1456.37 112.753   6
   4  10  -3 1304.26 133.595   6
   4 -10  -2 31535.3 449.815   6
   4  10  -2 31926.5 562.297   6
   4 -10  -2 32132.2 522.067   1
   4 -10  -2 32132.8 541.694   4
   4 -10  -1 420.594 65.4831   1
   4  10  -1 418.538 89.6795   6
   4 -10  -1 344.986 53.3168   6
   4 -10  -1 303.505 68.0009   4
   4 -10  -1 317.273 38.7052   5
   4 -10   0 34319.8 458.095   1
   4  10   0 36275.2 596.686   6
   4 -10   0 35458.7 547.869   4
   4 -10   0 34602.6 407.579   6
   4 -10   0 34947.4 405.310   5
   4 -10   1 15587.2 312.393   5
   4  10   1 15008.2 397.354   6
   4 -10   1 15644.9 370.723   4
   4 -10   1 15364.1 282.278   6
   4  10   1 14659.7 306.285   2
   4 -10   2 257.538 65.4736   5
   4  10   2 203.753 98.3709   6
   4  10   2 176.669 40.2587   3
   4  10   2 252.335 58.8309   2
   4 -10   3 4412.52 211.024   5
   4  10   3 4430.70 224.874   2
   4  10   3 4247.51 184.495   3
   4  10   4 1079.12 112.022   3
   4 -11 -13 1306.01 212.748   5
   4 -11 -12 6535.83 408.524   5
   4  11 -12 6969.36 472.682   6
   4 -11 -11 3929.48 294.199   5
   4  11 -11 4394.78 365.938   6
   4 -11 -10 13579.2 503.288   5
   4  11 -10 13654.8 581.100   6
   4 -11  -9 19402.3 558.765   5
   4  11  -9 19863.6 661.020   6
   4 -11  -8 9784.85 365.101   5
   4  11  -8 9536.72 436.268   6
   4  11  -8 9721.77 204.025   4
   4 -11  -7 74550.8 921.486   5
   4  11  -7 69286.3 449.511   4
   4  11  -7 75502.6 1135.69   6
   4 -11  -6 1252.91 148.426   4
   4 -11  -6 1117.37 114.721   5
   4  11  -6 1297.41 166.230   6
   4 -11  -5 50938.3 808.432   4
   4 -11  -5 49259.7 619.661   5
   4  11  -5 49931.2 825.059   6
   4 -11  -4 24115.0 530.706   4
   4 -11  -4 23745.7 377.383   5
   4 -11  -4 23720.0 493.585   6
   4  11  -4 23376.5 540.234   6
   4 -11  -3 40778.5 648.455   1
   4 -11  -3 38671.4 430.276   5
   4 -11  -3 38858.7 568.614   6
   4  11  -3 38784.5 664.719   6
   4 -11  -3 39118.9 639.820   4
   4 -11  -2 9061.57 253.459   6
   4  11  -2 9386.55 318.185   6
   4 -11  -2 8793.58 294.707   4
   4 -11  -2 9041.11 285.564   1
   4  11  -1 2607.75 176.048   6
   4 -11  -1 2533.14 141.461   1
   4 -11  -1 2512.45 124.889   6
   4 -11  -1 2576.57 157.456   4
   4 -11  -1 2549.31 105.593   5
   4 -11   0 44999.1 533.098   1
   4  11   0 45171.3 694.105   6
   4 -11   0 45512.1 632.980   4
   4 -11   0 45503.2 500.999   6
   4 -11   0 45785.8 488.215   5
   4 -11   1 8790.55 245.149   5
   4  11   1 8891.14 320.505   6
   4 -11   1 8944.68 286.630   4
   4 -11   1 8878.97 232.650   6
   4  11   1 8564.03 231.835   2
   4 -11   2 19038.2 399.212   5
   4  11   2 18872.5 403.125   2
   4  11   2 18605.5 309.664   3
   4  11   2 17954.0 470.669   6
   4 -11   3 918.582 107.835   5
   4  11   3 901.304 90.2810   3
   4  11   3 820.763 100.761   2
   4  11   4 7675.75 279.770   3
   4 -12 -13 7217.04 454.864   5
   4 -12 -12 2941.07 278.956   5
   4 -12 -11 9424.56 454.278   5
   4  12 -11 9859.67 531.430   6
   4 -12 -10 889.172 151.610   5
   4  12 -10 835.131 172.666   6
   4 -12  -9 19742.7 563.425   5
   4  12  -9 20844.7 684.376   6
   4 -12  -8 612.024 109.107   5
   4  12  -8 601.352 135.747   6
   4 -12  -7 11466.5 371.093   5
   4  12  -7 11748.4 460.321   6
   4 -12  -6 349.790 109.932   4
   4 -12  -6 304.454 73.7238   5
   4  12  -6 400.911 110.356   6
   4 -12  -5 3477.90 224.540   4
   4 -12  -5 3471.60 173.064   5
   4  12  -5 3541.09 234.384   6
   4 -12  -4 2634.05 187.483   4
   4 -12  -4 2554.64 134.099   5
   4 -12  -4 2648.28 171.134   6
   4  12  -4 2628.28 199.231   6
   4 -12  -3 1179.99 129.687   4
   4 -12  -3 1170.99 85.3994   5
   4 -12  -3 1346.65 119.010   6
   4  12  -3 1043.84 126.618   6
   4 -12  -2 11221.9 295.229   6
   4  12  -2 11219.5 361.036   6
   4 -12  -2 11250.5 337.077   4
   4 -12  -2 11473.7 326.087   1
   4  12  -1 9238.71 326.817   6
   4 -12  -1 8248.57 238.395   6
   4 -12  -1 8821.56 264.644   1
   4 -12  -1 8752.74 287.944   4
   4 -12   0 3356.18 151.892   1
   4  12   0 4102.15 233.047   6
   4 -12   0 3709.93 191.620   4
   4 -12   0 3752.44 163.182   6
   4 -12   0 3939.52 157.334   5
   4  12   1 44548.9 728.631   6
   4 -12   1 44214.5 637.939   4
   4 -12   1 43757.9 536.903   6
   4  12   1 43459.8 513.760   2
   4 -12   1 44262.4 563.595   5
   4 -12   2 751.250 96.0568   5
   4  12   2 1058.86 151.319   6
   4  12   2 720.903 63.1526   3
   4  12   2 716.531 89.4004   2
   4 -12   3 6729.64 272.141   5
   4  12   3 6617.98 275.177   2
   4  12   3 6844.62 227.621   3
   4  12   4 5.33191 48.2030   3
   4 -13 -12 3116.69 287.627   5
   4 -13 -11 5873.22 365.843   5
   4  13 -11 6598.67 444.771   6
   4 -13 -10 5157.77 322.454   5
   4  13 -10 5683.49 393.427   6
   4 -13  -9 1194.58 156.962   5
   4  13  -9 1447.69 214.623   6
   4 -13  -8 716.963 121.239   5
   4  13  -8 821.982 154.002   6
   4 -13  -7 904.088 118.465   5
   4  13  -7 655.472 135.945   6
   4 -13  -6 10211.2 410.034   4
   4 -13  -6 10509.6 332.972   5
   4  13  -6 10752.2 428.274   6
   4 -13  -5 8595.97 351.001   4
   4 -13  -5 8048.23 265.229   5
   4  13  -5 8085.66 352.530   6
   4 -13  -4 38102.8 692.380   4
   4 -13  -4 37287.6 517.374   5
   4 -13  -4 37192.4 642.550   6
   4  13  -4 38197.8 727.884   6
   4 -13  -3 116.907 69.6861   4
   4 -13  -3 153.957 50.5353   5
   4 -13  -3 49.9206 51.8096   6
   4  13  -3-25.0486 68.0618   6
   4 -13  -2 1572.67 136.694   4
   4 -13  -2 1590.55 129.516   1
   4 -13  -2 1563.04 124.437   6
   4  13  -2 1684.53 157.809   6
   4  13  -1 16796.1 451.964   6
   4 -13  -1 16849.9 357.111   6
   4 -13  -1 17112.4 376.048   1
   4 -13  -1 17329.7 412.853   4
   4 -13   0 81498.9 751.339   1
   4  13   0 82417.4 1000.52   6
   4 -13   0 82163.3 883.089   4
   4 -13   0 81072.8 757.026   6
   4 -13   0 81608.3 722.994   5
   4  13   1 4959.57 263.482   6
   4 -13   1 4630.14 214.355   4
   4 -13   1 4699.84 191.083   6
   4  13   1 4630.06 168.602   2
   4 -13   1 4763.30 194.502   5
   4 -13   2 44358.6 639.282   5
   4  13   2 44776.3 616.354   2
   4  13   2 43812.7 454.117   3
   4  13   2 42895.0 767.614   6
   4  13   3 11890.4 366.648   2
   4  13   3 11421.9 289.490   3
   4  13   4 14663.1 383.512   3
   4 -14 -12 927.251 174.279   5
   4 -14 -11 7638.64 416.710   5
   4  14 -11 8012.61 491.550   6
   4 -14 -10 2331.24 224.289   5
   4  14 -10 2546.69 277.794   6
   4 -14  -9 14080.8 491.338   5
   4  14  -9 13153.4 561.186   6
   4 -14  -8 37076.5 735.020   5
   4  14  -8 36595.8 880.862   6
   4 -14  -7 1244.31 138.239   5
   4  14  -7 1287.39 176.389   6
   4 -14  -6 42341.3 828.613   4
   4 -14  -6 42197.5 677.340   5
   4  14  -6 41742.0 846.264   6
   4 -14  -5 3212.35 226.791   4
   4 -14  -5 3085.39 172.048   5
   4  14  -5 3007.90 231.519   6
   4 -14  -4 21130.3 527.089   4
   4 -14  -4 21074.6 407.713   5
   4  14  -4 21423.9 565.580   6
   4 -14  -3 1203.80 136.582   4
   4 -14  -3 1190.28 98.1019   5
   4 -14  -3 1153.85 117.116   6
   4  14  -3 1016.72 134.080   6
   4 -14  -2 6150.78 250.422   1
   4  14  -2 6113.18 290.563   6
   4 -14  -2 6030.94 238.610   6
   4 -14  -2 5644.69 252.304   4
   4  14  -1 47756.7 786.082   6
   4 -14  -1 47914.4 633.101   6
   4 -14  -1 48348.1 648.979   1
   4 -14  -1 48211.6 700.006   4
   4 -14   0 281.301 57.1978   1
   4  14   0 267.003 92.4390   6
   4 -14   0 284.669 60.6740   6
   4 -14   0 188.120 72.7798   4
   4 -14   0 339.104 60.3318   5
   4  14   1 63364.1 925.221   6
   4 -14   1 63316.7 783.330   4
   4 -14   1 62409.9 710.387   6
   4  14   1 61207.1 592.187   2
   4 -14   1 61832.3 596.742   1
   4 -14   1 62413.2 716.789   5
   4 -14   2 3975.90 199.795   5
   4  14   2 3757.32 182.634   2
   4  14   2 3651.59 129.234   3
   4  14   2 3573.22 242.990   6
   4  14   3 1689.17 143.143   2
   4  14   3 1546.86 108.598   3
   4  14   3 1685.22 184.766   6
   4  14   4 33997.1 581.747   3
   4 -15 -12 2212.60 251.026   5
   4 -15 -11 11698.8 516.683   5
   4  15 -11 12314.3 613.014   6
   4 -15 -10 2830.45 246.035   5
   4  15 -10 3381.80 318.704   6
   4 -15  -9 8693.16 390.882   5
   4  15  -9 8672.17 468.956   6
   4 -15  -8 767.472 125.872   5
   4  15  -8 928.902 168.058   6
   4 -15  -7 8853.65 411.184   4
   4 -15  -7 8748.69 339.980   5
   4  15  -7 9022.52 435.429   6
   4 -15  -6 6294.48 335.715   4
   4 -15  -6 6049.89 266.872   5
   4  15  -6 6341.44 352.805   6
   4 -15  -5 48861.1 861.572   4
   4 -15  -5 47812.2 682.669   5
   4  15  -5 49139.9 909.596   6
   4 -15  -4 5192.87 271.532   4
   4 -15  -4 5209.08 213.978   5
   4  15  -4 5173.39 293.531   6
   4 -15  -3 50000.0 611.576   5
   4 -15  -3 48956.7 740.156   6
   4  15  -3 51657.9 871.146   6
   4 -15  -3 50494.2 793.543   4
   4 -15  -2-55.9737 62.9001   4
   4  15  -2 3.97924 70.5037   6
   4 -15  -2 172.626 61.0564   6
   4  15  -1 8063.45 347.991   6
   4 -15  -1 8120.33 280.696   6
   4 -15  -1 7838.69 293.673   4
   4 -15  -1 7857.98 269.517   1
   4 -15   0 1799.66 121.174   1
   4  15   0 2076.69 194.251   6
   4 -15   0 1961.27 150.536   4
   4 -15   0 1915.36 135.733   6
   4 -15   0 1878.27 126.049   5
   4 -15   1 893.798 78.2016   1
   4  15   1 1853.15 190.008   6
   4 -15   1 940.242 108.519   4
   4 -15   1 1248.05 122.910   6
   4  15   1 1125.69 84.3601   2
   4 -15   1 1184.20 115.064   5
   4 -15   2 1005.06 109.875   5
   4  15   2 1161.10 104.960   2
   4  15   2 1044.17 70.7267   3
   4  15   2 1231.60 174.889   6
   4 -15   2 1051.39 105.998   6
   4  15   3 341.743 110.709   6
   4  15   3 294.014 51.1798   3
   4  15   3 320.877 71.4092   2
   4  15   4 919.824 102.147   3
   4 -16 -11 2473.71 250.671   5
   4  16 -11 2697.81 303.193   6
   4 -16 -10 3773.18 282.039   5
   4  16 -10 4357.27 365.195   6
   4 -16  -9 2054.21 206.552   5
   4  16  -9 2409.86 267.902   6
   4 -16  -8 21408.1 574.975   5
   4  16  -8 22101.7 707.845   6
   4 -16  -7 249.134 107.644   4
   4 -16  -7 224.221 86.8554   5
   4  16  -7 177.111 119.700   6
   4 -16  -6 30318.7 728.467   4
   4 -16  -6 29084.5 587.976   5
   4  16  -6 30308.0 762.522   6
   4 -16  -5 178.075 95.7376   4
   4 -16  -5 25.9071 46.4509   5
   4  16  -5 158.383 112.594   6
   4 -16  -4 5452.85 284.116   4
   4 -16  -4 5161.72 220.509   5
   4  16  -4 5172.24 295.874   6
   4 -16  -3 19532.1 402.823   5
   4  16  -3 19713.2 556.685   6
   4 -16  -3 19809.4 507.623   4
   4  16  -2 4474.72 268.116   6
   4 -16  -2 5021.63 234.486   6
   4 -16  -2 4764.21 244.599   4
   4  16  -1 87156.9 1137.87   6
   4 -16  -1 85007.6 925.635   6
   4 -16  -1 85370.3 969.190   4
   4 -16  -1 86953.0 908.443   1
   4 -16   0 111.130 47.7852   1
   4  16   0 464.255 124.263   6
   4 -16   0 244.351 81.5841   6
   4 -16   0 119.665 74.4693   4
   4 -16   0 234.770 68.1912   5
   4 -16   1 1864.81 109.918   1
   4  16   1 2314.21 199.932   6
   4 -16   1 1930.73 149.017   4
   4 -16   1 2062.79 147.024   6
   4  16   1 1865.56 100.854   2
   4 -16   1 1838.46 138.342   5
   4  16   2 9762.67 283.904   2
   4  16   2 9032.94 189.755   3
   4  16   2 9198.23 399.496   6
   4 -16   2 9514.21 319.915   4
   4 -16   2 9423.51 314.190   6
   4  16   3 3628.75 204.626   2
   4  16   3 3335.54 154.517   3
   4  16   3 3136.11 255.212   6
   4  16   4 387.159 70.9744   3
   4 -17 -11 722.650 159.472   5
   4 -17 -10 4915.23 324.602   5
   4  17 -10 5603.68 410.004   6
   4 -17  -9 950.305 148.851   5
   4  17  -9 1325.23 220.947   6
   4 -17  -8 8420.42 439.195   4
   4 -17  -8 7672.68 354.132   5
   4  17  -8 8259.52 449.371   6
   4 -17  -7 888.212 147.147   4
   4 -17  -7 1009.35 135.104   5
   4  17  -7 905.934 176.895   6
   4 -17  -6 2918.99 236.273   4
   4 -17  -6 2761.47 193.392   5
   4  17  -6 2985.55 252.015   6
   4 -17  -5 180.980 88.2753   4
   4 -17  -5 74.4903 50.3318   5
   4  17  -5 70.0395 85.0821   6
   4 -17  -4 9572.86 382.035   4
   4 -17  -4 9645.93 310.792   5
   4  17  -4 9536.15 411.080   6
   4 -17  -3 784.061 121.017   4
   4 -17  -3 789.844 97.5151   5
   4  17  -3 778.720 140.145   6
   4  17  -2 29044.8 683.950   6
   4 -17  -2 28266.9 591.702   4
   4  17  -1 17731.9 532.266   6
   4 -17  -1 17841.9 441.178   6
   4 -17  -1 17249.4 450.422   4
   4 -17  -1 17497.7 418.444   1
   4  17   0 32921.7 727.391   6
   4 -17   0 31649.1 514.098   1
   4 -17   0 33758.6 610.983   4
   4 -17   0 32158.2 578.194   6
   4 -17   0 32325.6 542.774   5
   4  17   1 183.120 37.6532   2
   4  17   1 244.084 112.355   6
   4 -17   1 150.548 44.5488   1
   4 -17   1 218.332 65.9164   4
   4 -17   1 320.666 84.5826   6
   4 -17   1 263.749 73.1762   5
   4  17   2 8632.86 264.887   2
   4  17   2 8035.19 170.962   3
   4  17   2 8501.07 389.256   6
   4 -17   2 8691.09 311.290   4
   4  17   3 4489.41 227.586   2
   4  17   3 4476.55 175.976   3
   4  17   3 4813.61 325.366   6
   4 -18 -10 1938.20 212.699   5
   4 -18 -10 2198.27 267.047   4
   4  18 -10 2142.35 271.049   6
   4 -18  -9 7352.00 376.416   5
   4 -18  -9 7862.32 453.758   4
   4  18  -9 8229.92 480.230   6
   4 -18  -8 2701.27 220.077   5
   4 -18  -8 2498.79 268.462   4
   4  18  -8 2507.90 259.871   6
   4 -18  -7 1093.21 179.397   4
   4 -18  -7 1227.78 146.918   5
   4  18  -7 1013.11 184.531   6
   4 -18  -6 449.315 136.008   4
   4 -18  -6 342.634 86.4056   5
   4  18  -6 263.294 116.022   6
   4 -18  -5 130.495 103.562   4
   4 -18  -5 132.889 60.9162   5
   4  18  -5 200.539 114.787   6
   4 -18  -4 11719.1 430.631   4
   4 -18  -4 11926.0 357.082   5
   4  18  -4 11959.8 472.491   6
   4 -18  -3 10201.2 317.750   5
   4  18  -3 11170.7 447.289   6
   4 -18  -3 10835.3 397.065   4
   4 -18  -2 519.037 100.535   4
   4  18  -2 564.390 131.183   6
   4  18  -1 2981.92 236.308   6
   4 -18  -1 2789.02 189.117   4
   4  18   0 7937.45 372.196   6
   4 -18   0 7796.14 262.628   1
   4 -18   0 8279.22 312.288   4
   4 -18   0 7850.14 279.332   5
   4 -18   1 9747.65 260.486   1
   4  18   1 10075.6 427.156   6
   4 -18   1 10368.4 341.728   4
   4  18   1 9507.47 206.179   2
   4  18   2 8663.27 260.839   2
   4  18   2 7939.16 158.918   3
   4  18   2 8512.31 398.522   6
   4 -18   2 9415.17 325.792   4
   4  18   3 61618.5 820.985   2
   4  18   3 59079.8 1082.03   6
   4 -19 -10 1403.83 217.435   4
   4  19 -10 1301.94 223.884   6
   4 -19  -9 6186.51 353.715   5
   4 -19  -9 6420.50 426.104   4
   4  19  -9 5976.26 416.870   6
   4 -19  -8 173.603 133.377   4
   4 -19  -8 126.452 94.7722   5
   4  19  -8 109.742 128.002   6
   4 -19  -7 25717.2 740.920   4
   4 -19  -7 24100.7 607.225   5
   4  19  -7 24553.1 763.083   6
   4 -19  -6 9.67053 98.9251   4
   4 -19  -6 170.375 83.6115   5
   4  19  -6 49.3888 104.006   6
   4 -19  -5 32160.4 753.976   4
   4 -19  -5 31486.5 626.970   5
   4  19  -5 32854.2 813.887   6
   4 -19  -4 515.654 118.655   4
   4 -19  -4 396.372 83.5840   5
   4  19  -4 400.473 124.679   6
   4 -19  -3 2817.87 177.891   5
   4  19  -3 2655.23 235.929   6
   4 -19  -3 2786.71 213.480   4
   4  19  -2 6133.07 342.256   6
   4 -19  -2 6214.76 293.617   4
   4  19  -1 15448.1 532.734   6
   4 -19  -1 14689.2 433.128   4
   4  19   0 7951.70 383.788   6
   4 -19   0 7952.68 270.699   1
   4 -19   0 8461.94 320.542   4
   4 -19   1 19538.1 375.028   1
   4  19   1 19570.3 605.984   6
   4 -19   1 20060.0 480.618   4
   4  19   2 3100.26 260.671   6
   4 -19   2 3029.88 191.548   4
   4  19   3 1193.05 204.364   6
   4 -20  -9 3796.60 331.482   4
   4 -20  -9 3317.21 270.437   5
   4  20  -9 3630.43 339.975   6
   4 -20  -8 18521.1 675.668   4
   4 -20  -8 17667.6 564.129   5
   4  20  -8 18392.7 703.038   6
   4 -20  -7 4718.87 339.216   4
   4 -20  -7 4079.72 261.376   5
   4  20  -7 4110.49 332.266   6
   4 -20  -6 11485.5 488.600   4
   4 -20  -6 10618.0 394.192   5
   4  20  -6 11169.1 511.463   6
   4 -20  -5 1135.46 169.701   4
   4 -20  -5 1445.86 147.031   5
   4  20  -5 1391.89 198.668   6
   4 -20  -4 19199.5 478.995   5
   4  20  -4 18966.0 621.902   6
   4 -20  -4 20084.2 581.745   4
   4 -20  -3 6259.96 269.877   5
   4  20  -3 6511.26 365.303   6
   4 -20  -3 6350.84 319.790   4
   4  20  -2 23060.8 664.302   6
   4 -20  -2 22823.4 563.105   4
   4  20  -1 7509.52 386.754   6
   4 -20  -1 7003.42 307.657   4
   4  20   0 4425.42 304.097   6
   4 -20   0 4049.32 202.712   1
   4 -20   0 4407.78 238.285   4
   4  20   1 229.345 129.287   6
   4 -20   1 71.4431 56.0743   4
   4  20   2 47.6784 93.6946   6
   4 -20   2 22.1575 60.3248   4
   4  20   3 1370.32 202.445   6
   4 -21  -9 4794.04 380.436   4
   4  21  -9 4315.64 369.443   6
   4 -21  -8-43.5573 121.882   4
   4 -21  -8 259.180 101.954   5
   4  21  -8 201.929 134.151   6
   4 -21  -7 8393.34 447.830   4
   4 -21  -7 8045.63 370.248   5
   4  21  -7 8250.24 468.750   6
   4 -21  -6 1125.82 182.437   4
   4 -21  -6 1208.03 148.202   5
   4  21  -6 1046.24 180.768   6
   4 -21  -5 6085.82 346.178   4
   4 -21  -5 5760.36 289.812   5
   4  21  -5 6397.11 389.040   6
   4 -21  -4-44.8579 78.1813   4
   4 -21  -4 58.8686 63.3314   5
   4  21  -4 180.456 120.606   6
   4 -21  -3 1977.90 189.218   4
   4 -21  -3 2101.72 170.436   5
   4  21  -3 2237.75 238.077   6
   4  21  -2 4917.11 328.103   6
   4 -21  -2 4509.06 268.015   4
   4  21  -1 2146.39 231.113   6
   4 -21  -1 1854.55 170.290   4
   4  21   0 2065.29 231.199   6
   4 -21   0 2067.25 170.740   4
   4  21   1 305.258 140.029   6
   4 -21   1-32.7845 70.5407   4
   4  21   2 5962.29 364.819   6
   4 -21   2 5708.49 267.342   4
   4  21   3 221.869 116.363   6
   4 -22  -9 4709.67 381.292   4
   4  22  -9 5237.69 418.091   6
   4 -22  -8 352.619 127.993   4
   4  22  -8 431.210 142.189   6
   4 -22  -7 4583.99 348.938   4
   4 -22  -7 4420.68 285.877   5
   4  22  -7 4295.01 350.069   6
   4 -22  -6 554.324 139.219   4
   4 -22  -6 438.825 109.025   5
   4  22  -6 381.412 141.543   6
   4 -22  -5 2611.56 237.990   4
   4 -22  -5 2542.50 203.351   5
   4  22  -5 2329.74 254.106   6
   4 -22  -4 1466.67 182.315   4
   4 -22  -4 1266.44 145.630   5
   4  22  -4 1337.39 204.463   6
   4 -22  -3 15396.2 449.577   5
   4  22  -3 16081.6 601.949   6
   4 -22  -3 15354.5 510.085   4
   4  22  -2 191.315 113.979   6
   4 -22  -2 237.842 87.7253   4
   4  22  -1 25560.8 740.103   6
   4 -22  -1 24462.3 588.967   4
   4  22   0 220.307 134.496   6
   4 -22   0 97.8524 71.8460   4
   4  22   1 10980.2 497.131   6
   4 -22   1 11031.2 375.485   4
   4  22   2 839.873 180.245   6
   4 -22   2 719.866 111.988   4
   4  22   3 19939.2 699.907   6
   4 -23  -8 702.631 168.160   4
   4  23  -8 631.607 185.596   6
   4 -23  -7 10045.2 507.788   4
   4 -23  -7 9253.41 415.704   5
   4  23  -7 9863.12 529.590   6
   4 -23  -6 615.678 141.234   4
   4 -23  -6 509.008 116.024   5
   4  23  -6 588.362 161.427   6
   4 -23  -5 14210.1 545.474   4
   4 -23  -5 13619.9 462.228   5
   4  23  -5 14051.1 596.037   6
   4 -23  -4 11626.8 413.656   5
   4  23  -4 11159.7 517.192   6
   4 -23  -4 11917.0 476.778   4
   4 -23  -3 13929.6 442.798   5
   4  23  -3 13802.2 568.303   6
   4 -23  -3 13491.1 485.207   4
   4  23  -2 12132.3 531.241   6
   4 -23  -2 12393.5 443.747   4
   4  23  -1 4820.16 340.817   6
   4 -23  -1 4574.79 268.613   4
   4  23   0 9533.40 475.397   6
   4 -23   0 8864.50 353.603   4
   4  23   1 259.383 126.379   6
   4 -23   1 182.567 81.6163   4
   4  23   2 10728.2 511.860   6
   4  23   3 4423.14 352.336   6
   4 -24  -8 8749.79 499.100   4
   4  24  -8 8544.57 522.626   6
   4 -24  -7 868.548 181.092   4
   4  24  -7 564.151 182.540   6
   4 -24  -6 8561.83 458.404   4
   4 -24  -6 7811.73 374.744   5
   4  24  -6 8092.71 477.834   6
   4 -24  -5 248.247 129.599   4
   4 -24  -5 73.0166 68.2140   5
   4  24  -5 41.9306 109.222   6
   4 -24  -4 5526.00 296.871   5
   4  24  -4 6203.75 404.821   6
   4 -24  -4 5566.91 338.337   4
   4 -24  -3 15297.5 476.439   5
   4  24  -3 15342.1 615.741   6
   4 -24  -3 15524.8 526.946   4
   4  24  -2 5907.09 387.202   6
   4 -24  -2 5608.31 308.459   4
   4  24  -1 2825.65 273.187   6
   4 -24  -1 2934.82 220.983   4
   4  24   0 336.612 129.241   6
   4 -24   0 54.9232 76.8705   4
   4  24   1 4994.42 363.832   6
   4 -24   1 4730.43 262.218   4
   4  24   2 6999.58 428.067   6
   4  24   3 11629.2 567.488   6
   4 -25  -8 3461.38 329.762   4
   4 -25  -7 12889.1 585.609   4
   4  25  -7 11898.7 605.966   6
   4 -25  -6 299.023 124.443   4
   4  25  -6 330.712 148.072   6
   4 -25  -5 5538.24 315.751   5
   4  25  -5 5987.20 413.092   6
   4 -25  -5 5548.42 358.289   4
   4 -25  -4 158.481 117.064   4
   4 -25  -4 27.3432 75.0458   5
   4  25  -4 134.082 119.338   6
   4 -25  -3 11634.2 428.434   5
   4  25  -3 11378.2 545.431   6
   4 -25  -3 12024.6 474.131   4
   4  25  -2 1029.63 186.365   6
   4 -25  -2 778.664 134.695   4
   4  25  -1 4255.82 339.854   6
   4 -25  -1 4451.52 271.745   4
   4  25   0 3280.16 307.154   6
   4 -25   0 3529.96 237.898   4
   4  25   1 2000.76 264.198   6
   4 -25   1 1945.28 177.923   4
   4  25   2 3181.13 317.644   6
   4  25   3 1915.91 255.220   6
   4 -26  -7 23.8005 110.172   4
   4 -26  -6 1351.54 203.814   4
   4  26  -6 1290.63 232.003   6
   4 -26  -5 171.864 100.851   4
   4  26  -5-142.190 120.363   6
   4 -26  -4 4603.49 286.903   5
   4  26  -4 5173.06 390.374   6
   4 -26  -4 4857.30 328.582   4
   4 -26  -3 42.9101 75.3851   5
   4  26  -3 38.0672 121.139   6
   4 -26  -3-14.5179 99.0480   4
   4  26  -2 718.764 172.591   6
   4 -26  -2 612.679 119.410   4
   4  26  -1 16115.6 649.257   6
   4 -26  -1 15870.4 513.690   4
   4  26   0 2523.21 282.026   6
   4 -26   0 2792.35 224.538   4
   4  26   1 10394.1 528.378   6
   4  26   2 232.723 136.999   6
   4  26   3 1227.22 216.886   6
   4 -27  -7 1910.21 261.399   4
   4 -27  -6 492.542 154.181   4
   4  27  -6 453.177 178.280   6
   4 -27  -5 1739.19 224.225   4
   4  27  -5 1847.20 250.376   6
   4  27  -4 8460.79 508.003   6
   4 -27  -4 7641.62 416.912   4
   4  27  -3 357.232 164.921   6
   4 -27  -3 37.3479 85.3903   4
   4  27  -2 8666.08 501.301   6
   4 -27  -2 8182.18 394.551   4
   4  27  -1 629.199 171.500   6
   4 -27  -1 432.309 111.531   4
   4  27   0 15667.7 660.709   6
   4 -27   0 15285.5 491.646   4
   4  27   1 2216.27 266.711   6
   4  27   2 28748.4 917.801   6
   4  27   3 191.773 132.244   6
   4 -28  -6 4653.24 370.711   4
   4 -28  -5 1948.44 243.661   4
   4  28  -5 2034.21 279.266   6
   4 -28  -4 2567.62 253.670   4
   4  28  -4 3271.79 334.897   6
   4  28  -3 3024.75 316.814   6
   4 -28  -3 2867.66 252.752   4
   4  28  -2 6468.56 446.041   6
   4 -28  -2 6885.10 363.504   4
   4  28  -1 2103.02 267.235   6
   4 -28  -1 1946.00 190.928   4
   4  28   0 677.414 186.304   6
   4  28   1 7191.33 476.120   6
   4  28   2 354.880 161.746   6
   4  28   3 16146.9 717.958   6
   4 -29  -6 2375.05 276.965   4
   4 -29  -5 12273.1 562.630   4
   4 -29  -4 83.4171 99.5748   4
   4  29  -3 10197.4 562.898   6
   4 -29  -3 9978.44 462.393   4
   4  29  -2 694.925 197.375   6
   4 -29  -2 708.064 141.912   4
   4  29  -1 2556.56 296.351   6
   4  29   0 804.824 198.524   6
   4  29   1 169.626 153.313   6
   4 -30  -5 341.492 142.293   4
   4 -30  -4 3573.98 306.367   4
   4 -30  -3 955.111 169.333   4
   4 -31  -5 2409.76 273.505   4
   4 -31  -4-57.8374 127.131   4
   5   0 -13 29.6979 107.835   4
   5   0 -13 66.0103 101.632   5
   5   0 -12 9381.03 442.982   4
   5   0 -12 9375.74 474.830   5
   5   0 -11-72.9676 78.9976   4
   5   0 -11-82.3564 110.010   5
   5   0 -10 7920.88 360.246   4
   5   0 -10 7215.41 364.799   5
   5   0  -9 99.3340 78.0787   4
   5   0  -9 148.568 83.4241   5
   5   0  -8 27364.2 581.927   4
   5   0  -8 27154.2 585.903   5
   5   0  -7 102.617 72.0038   4
   5   0  -7-20.3524 57.9742   5
   5   0  -6 108556. 1019.85   4
   5   0  -5 19.6348 46.0358   4
   5   0  -5-18.0654 54.4271   1
   5   0  -4 2896.08 158.059   4
   5   0  -4 2901.01 175.707   1
   5   0  -3-10.5741 48.1428   4
   5   0  -3 123.078 42.4878   6
   5   0  -2 11925.3 299.320   4
   5   0  -2 12913.4 217.599   6
   5   0  -1 138.718 31.2963   6
   5   0  -1 149.692 54.1079   4
   5   0   2 238807. 1423.67   5
   5   0   2 240726. 1634.98   2
   5   0   3 72.3217 58.8996   5
   5   1 -13 140.945 116.346   4
   5  -1 -13 232.826 129.791   4
   5   1 -13 407.717 139.855   5
   5  -1 -13 263.720 122.306   5
   5   1 -12 220.568 106.418   4
   5  -1 -12 289.910 126.643   4
   5   1 -12 251.421 120.120   5
   5  -1 -12 263.488 137.191   5
   5   1 -11 4383.07 286.011   4
   5  -1 -11 4155.20 285.822   4
   5   1 -11 4078.60 296.736   5
   5  -1 -11 3766.39 282.507   5
   5   1 -10 1280.08 154.889   4
   5  -1 -10 1217.65 159.134   4
   5   1 -10 1100.80 153.488   5
   5  -1 -10 985.590 143.896   5
   5   1  -9 8564.91 343.147   4
   5  -1  -9 8633.94 358.374   4
   5   1  -9 8318.70 361.070   5
   5  -1  -9 8541.78 360.246   5
   5   1  -8 3226.05 207.170   4
   5  -1  -8 3008.21 210.395   4
   5   1  -8 3119.70 207.876   5
   5  -1  -8 2890.32 197.557   5
   5   1  -7 17267.0 423.182   4
   5  -1  -7 17237.9 447.989   4
   5  -1  -7 16639.9 412.685   5
   5  -1  -6 17786.3 426.374   4
   5  -1  -6 16996.0 374.881   5
   5   1  -6 17851.0 405.210   4
   5   1  -5 382.173 68.9753   4
   5  -1  -5 323.280 75.3214   4
   5   1  -5 331.428 76.2687   1
   5  -1  -4 63162.3 770.279   1
   5   1  -4 60415.7 667.588   4
   5   1  -4 60873.1 666.164   6
   5  -1  -4 60797.9 697.439   4
   5   1  -3 5654.84 202.695   4
   5  -1  -3 5658.29 210.634   4
   5   1  -3 5695.81 183.439   6
   5   1  -2 110222. 885.579   4
   5  -1  -2 110862. 912.598   4
   5   1  -2 109877. 670.334   6
   5  -1  -2 108365. 587.268   6
   5  -1  -1 27661.1 220.359   6
   5  -1  -1 27855.3 466.144   4
   5   1  -1 28995.5 306.038   6
   5   1   0 9722.64 179.433   6
   5  -1   1 15471.7 314.825   5
   5  -1   2 24665.1 450.310   5
   5   1   2 24854.1 468.331   5
   5  -1   2 24674.8 528.006   2
   5   1   2 24492.7 518.005   2
   5  -1   3 38793.9 630.779   5
   5   1   3 38496.1 641.042   5
   5  -2 -14 5343.12 389.888   4
   5  -2 -13 1261.01 204.975   4
   5  -2 -13 1136.25 190.573   5
   5   2 -12 2887.74 247.426   4
   5  -2 -12 3276.48 270.757   4
   5   2 -12 2875.10 277.582   5
   5  -2 -12 2880.61 274.678   5
   5   2 -11 218.068 88.2044   4
   5  -2 -11 154.717 85.5335   4
   5   2 -11 162.959 99.5644   5
   5  -2 -11 130.442 95.6046   5
   5   2 -10 81.3869 84.6090   4
   5  -2 -10 7.76625 76.1808   4
   5   2 -10 109.296 88.0360   5
   5  -2 -10-56.8680 81.3087   5
   5   2  -9 14.5227 63.7201   4
   5  -2  -9 184.145 93.3985   4
   5   2  -9 109.790 69.7821   5
   5  -2  -9 120.343 83.6915   5
   5   2  -8 11883.3 369.635   4
   5  -2  -8 11825.2 403.055   4
   5  -2  -8 11544.2 376.652   5
   5   2  -7 23271.4 480.723   4
   5  -2  -7 23035.8 525.288   4
   5  -2  -7 22532.8 474.222   5
   5  -2  -6 15268.4 403.124   4
   5  -2  -6 15067.3 344.585   5
   5   2  -6 15118.3 363.821   4
   5   2  -5 18816.1 420.735   6
   5   2  -5 18416.7 377.852   4
   5  -2  -5 18972.8 422.997   4
   5  -2  -4 840.910 100.487   4
   5  -2  -4 815.701 97.8332   1
   5   2  -4 924.069 96.9333   4
   5   2  -4 771.163 91.3035   6
   5   2  -3 64353.6 663.768   4
   5   2  -3 64078.7 625.496   6
   5  -2  -3 65567.3 720.047   4
   5  -2  -3 65401.3 754.239   1
   5   2  -2 28010.8 445.116   4
   5  -2  -2 27947.9 470.380   4
   5   2  -2 27996.2 363.492   6
   5  -2  -2 27625.3 280.591   6
   5   2  -1 139520. 739.383   6
   5  -2  -1 145611. 1081.34   4
   5   2   0 16139.9 256.393   6
   5  -2   1 49275.2 549.689   5
   5  -2   2 205.229 49.3608   5
   5   2   2 258.931 76.4619   2
   5   2   2 200.063 50.2558   5
   5  -2   3 11182.7 338.519   5
   5   2   3 11523.6 359.729   5
   5  -3 -14 735.829 184.212   4
   5  -3 -13 624.901 155.952   4
   5  -3 -13 547.872 153.759   5
   5   3 -12 1345.88 175.196   4
   5  -3 -12 1455.16 205.448   4
   5  -3 -12 1523.65 206.863   5
   5   3 -11 2083.31 194.135   4
   5  -3 -11 2015.07 210.467   4
   5  -3 -11 2020.64 212.252   5
   5   3 -10 168.610 78.3685   4
   5  -3 -10 246.124 106.475   4
   5  -3 -10 165.806 85.4990   5
   5   3  -9 4869.18 248.708   4
   5  -3  -9 4994.48 288.007   4
   5  -3  -9 4742.67 265.242   5
   5   3  -8 9603.59 323.175   4
   5  -3  -8 9560.91 372.651   4
   5  -3  -8 9315.47 335.449   5
   5  -3  -7 3401.71 217.879   4
   5  -3  -7 3246.91 183.871   5
   5   3  -7 3326.95 182.144   4
   5  -3  -6 78399.5 926.149   4
   5   3  -6 78665.7 959.865   6
   5  -3  -6 80252.3 776.897   5
   5   3  -6 80843.7 811.599   4
   5  -3  -5 384.398 86.8279   4
   5   3  -5 226.148 70.2224   6
   5  -3  -5 285.915 52.1707   5
   5   3  -5 323.450 68.5265   4
   5  -3  -4 167484. 1281.09   1
   5   3  -4 161883. 1044.18   4
   5   3  -4 163525. 1142.47   6
   5  -3  -4 165452. 1208.22   4
   5  -3  -3 187.826 67.9556   1
   5   3  -3 62.1337 54.2575   4
   5   3  -3 266.804 65.4024   6
   5  -3  -3 268.133 80.1737   4
   5   3  -2 134799. 963.431   4
   5   3  -2 133279. 848.905   6
   5  -3  -2 135886. 1046.46   4
   5   3  -1 61190.8 536.485   6
   5  -3  -1 59602.6 700.236   4
   5   3   0 42156.9 448.200   6
   5  -3   0 41004.5 401.103   5
   5  -3   0 41907.3 602.947   4
   5  -3   1 70199.6 646.517   5
   5  -3   2 1657.52 120.650   5
   5   3   2 1605.49 134.776   2
   5  -3   3 296.280 64.1344   5
   5  -4 -14 67.1210 118.985   5
   5  -4 -13 3668.42 324.610   4
   5  -4 -13 3520.82 313.615   5
   5   4 -12 2972.96 236.494   4
   5  -4 -12 2837.69 267.644   4
   5   4 -12 3214.07 321.008   6
   5  -4 -12 2686.53 257.651   5
   5   4 -11-102.111 91.9353   4
   5  -4 -11-49.2146 106.838   4
   5  -4 -11-98.9849 94.6184   5
   5   4 -10 24430.3 576.539   4
   5  -4 -10 24029.3 664.801   4
   5  -4 -10 23534.3 630.757   5
   5   4  -9 1407.79 140.188   4
   5  -4  -9 1473.56 168.638   4
   5  -4  -9 1414.21 156.475   5
   5   4  -8 12191.0 354.739   4
   5  -4  -8 11428.1 410.903   4
   5   4  -8 11616.0 440.265   6
   5  -4  -8 11495.9 371.262   5
   5  -4  -7 3570.10 223.758   4
   5   4  -7 3655.94 233.938   6
   5  -4  -7 3577.64 191.639   5
   5   4  -7 3669.74 186.497   4
   5  -4  -6 15420.4 422.891   4
   5   4  -6 15451.6 432.951   6
   5   4  -6 15553.7 345.288   4
   5  -4  -6 14963.2 334.730   5
   5   4  -5 51565.1 593.246   4
   5   4  -5 50480.8 711.000   6
   5  -4  -5 51903.9 523.965   5
   5  -4  -5 52246.9 736.182   4
   5  -4  -4 891.991 112.463   4
   5   4  -4 996.131 93.4876   4
   5   4  -4 1035.43 116.045   6
   5  -4  -4 1005.83 120.678   1
   5  -4  -3 194788. 1321.84   1
   5   4  -3 187921. 1097.68   4
   5   4  -3 192273. 1153.53   6
   5  -4  -3 193813. 1286.30   4
   5   4  -2 5983.50 206.771   6
   5  -4  -2 5710.46 222.589   4
   5   4  -1 11165.3 251.162   6
   5  -4  -1 10808.5 303.636   4
   5  -4   0 120893. 670.092   5
   5   4   0 123189. 834.005   6
   5  -4   0 124999. 1045.71   4
   5  -4   1 35306.8 453.704   5
   5   4   1 36814.3 484.312   6
   5  -4   2 35088.0 527.289   5
   5   4   2 34425.6 600.549   2
   5  -4   3 478.618 77.9084   5
   5  -5 -13 6003.74 408.559   4
   5  -5 -13 6009.92 404.868   5
   5  -5 -12 339.118 125.149   4
   5   5 -12 598.488 182.828   6
   5  -5 -12 266.831 121.555   5
   5   5 -11 4604.35 263.686   4
   5  -5 -11 4325.30 311.616   4
   5   5 -11 4812.45 357.393   6
   5  -5 -11 4251.70 295.739   5
   5   5 -10 2561.89 191.915   4
   5  -5 -10 2694.33 241.269   4
   5   5 -10 2494.84 252.257   6
   5  -5 -10 2766.70 227.154   5
   5   5  -9 19686.2 467.086   4
   5  -5  -9 20089.2 586.528   4
   5   5  -9 19402.4 612.931   6
   5  -5  -9 19295.6 524.794   5
   5  -5  -8 4471.80 268.379   4
   5   5  -8 4763.74 296.925   6
   5  -5  -8 4319.78 229.904   5
   5   5  -8 4510.94 212.197   4
   5  -5  -7 41242.8 747.180   4
   5   5  -7 42207.8 782.276   6
   5   5  -7 42333.1 591.009   4
   5  -5  -7 41553.8 623.587   5
   5  -5  -6 6105.25 279.016   4
   5   5  -6 5458.47 268.367   6
   5   5  -6 5712.30 208.030   4
   5  -5  -6 5662.99 205.000   5
   5   5  -5 44478.5 534.762   4
   5   5  -5 43956.8 679.965   6
   5  -5  -5 43649.0 472.851   5
   5  -5  -5 45721.1 702.017   4
   5  -5  -4 248.410 71.5284   4
   5  -5  -4 267.217 70.8355   1
   5   5  -4 282.305 55.1813   4
   5   5  -4 309.158 70.6289   6
   5  -5  -4 252.515 33.1996   5
   5  -5  -3 4364.96 205.902   1
   5   5  -3 3968.53 162.606   4
   5   5  -3 4102.92 189.265   6
   5  -5  -3 4286.52 205.630   4
   5  -5  -2 51723.7 396.604   6
   5   5  -2 52357.6 591.367   6
   5  -5  -2 53543.9 678.548   4
   5  -5  -2 53145.5 663.448   1
   5   5  -1 85065.8 730.769   6
   5  -5  -1 85481.9 856.996   4
   5  -5   0 4753.54 132.409   5
   5   5   0 4727.68 173.946   6
   5  -5   0 4603.23 207.671   4
   5  -5   1 44106.7 505.423   5
   5   5   1 43849.6 555.888   6
   5  -5   2 3009.26 155.787   5
   5   5   2 2961.43 180.413   2
   5  -5   3 53446.4 727.900   5
   5   5   4 491.572 91.5914   3
   5  -6 -13-159.703 137.327   4
   5  -6 -13-125.317 128.257   5
   5  -6 -12 3982.04 324.086   4
   5   6 -12 3876.44 343.420   6
   5  -6 -12 3874.13 303.284   5
   5  -6 -11-201.730 100.298   5
   5   6 -11 36.6722 66.6443   4
   5  -6 -11 137.264 120.097   4
   5   6 -11-64.6153 118.187   6
   5   6 -10 5189.33 253.503   4
   5  -6 -10 5558.41 336.031   4
   5   6 -10 5665.84 361.851   6
   5  -6 -10 5476.48 308.739   5
   5  -6  -9 3103.80 253.379   4
   5   6  -9 2496.96 242.199   6
   5  -6  -9 2584.55 198.904   5
   5   6  -9 2538.92 170.489   4
   5  -6  -8 30690.8 691.978   4
   5   6  -8 29452.6 710.502   6
   5   6  -8 31141.4 525.269   4
   5  -6  -8 30149.9 591.402   5
   5  -6  -7 16321.6 479.737   4
   5   6  -7 15655.8 489.498   6
   5   6  -7 16574.6 356.621   4
   5  -6  -7 15778.6 388.039   5
   5  -6  -6 44484.7 742.978   4
   5   6  -6 43944.0 752.826   6
   5   6  -6 44095.3 541.246   4
   5  -6  -6 43564.9 558.087   5
   5  -6  -5 156653. 1326.53   4
   5   6  -5 152852. 955.192   4
   5   6  -5 150509. 1286.90   6
   5  -6  -5 153417. 876.724   5
   5   6  -4 11905.9 265.201   4
   5   6  -4 11882.1 340.958   6
   5  -6  -4 11397.4 181.965   5
   5  -6  -4 12610.2 358.781   4
   5  -6  -3 86547.0 904.481   1
   5   6  -3 81636.0 819.399   6
   5  -6  -3 84632.8 885.645   4
   5  -6  -2 2803.84 130.684   6
   5   6  -2 2775.35 183.529   6
   5   6  -1 2191.33 135.686   6
   5  -6  -1 2216.46 151.960   4
   5  -6   0 1645.24 79.0638   5
   5  -6   0 1775.95 141.231   4
   5  -6   1 24465.3 375.250   5
   5   6   1 23952.3 432.729   6
   5  -6   2 58419.9 673.558   5
   5   6   2 56589.9 759.788   2
   5  -6   3 505.370 79.1441   5
   5   6   4 34878.1 642.707   3
   5  -7 -13-144.867 139.067   4
   5  -7 -13 27.4649 102.168   5
   5  -7 -12 2354.45 253.207   4
   5   7 -12 2151.74 267.396   6
   5  -7 -12 2093.56 229.080   5
   5  -7 -11 1994.22 208.760   5
   5  -7 -11 1587.38 216.435   4
   5   7 -11 1517.51 226.608   6
   5  -7 -10 387.936 102.681   5
   5   7 -10 201.017 71.0252   4
   5  -7 -10 555.555 132.795   4
   5   7 -10 443.143 145.588   6
   5  -7  -9 346.153 92.3165   5
   5   7  -9 37.6598 51.6278   4
   5  -7  -9 270.756 105.246   4
   5   7  -9 125.316 108.629   6
   5  -7  -8 10554.0 422.064   4
   5   7  -8 10753.5 437.256   6
   5   7  -8 10937.4 302.967   4
   5  -7  -8 10796.3 357.899   5
   5  -7  -7 13851.9 452.706   4
   5   7  -7 13287.8 457.247   6
   5   7  -7 13057.4 304.862   4
   5  -7  -7 13005.6 350.544   5
   5  -7  -6 11985.0 401.176   4
   5   7  -6 11544.2 267.720   4
   5   7  -6 11325.4 395.396   6
   5  -7  -6 11369.7 287.397   5
   5  -7  -5 1845.74 173.053   4
   5   7  -5 1610.32 105.485   4
   5   7  -5 1697.90 155.127   6
   5  -7  -5 1484.36 93.7449   5
   5   7  -4 56999.9 559.726   4
   5   7  -4 56384.0 751.025   6
   5  -7  -4 57889.7 784.405   4
   5  -7  -4 55830.1 402.700   5
   5  -7  -3 19618.6 438.925   1
   5  -7  -3 19284.9 336.314   6
   5   7  -3 19598.8 422.670   6
   5  -7  -3 19542.0 439.347   4
   5  -7  -2 409582. 1871.60   1
   5  -7  -2 395740. 1218.58   6
   5   7  -2 404534. 1794.92   6
   5  -7  -2 401667. 1926.31   4
   5   7  -1 4752.91 195.662   6
   5  -7  -1 4172.81 98.8407   6
   5  -7  -1 4764.85 212.989   4
   5  -7   0 242753. 950.701   5
   5   7   0 242090. 1372.60   6
   5  -7   0 241222. 1504.70   4
   5  -7   1 6584.09 199.251   5
   5   7   1 8099.27 279.724   6
   5   7   1 6354.73 233.285   2
   5  -7   2 10631.6 294.022   5
   5   7   2 10253.6 327.692   2
   5  -7   3 19430.9 442.656   5
   5   7   4 6410.63 278.157   3
   5  -8 -13 789.244 175.798   4
   5  -8 -13 1046.17 180.638   5
   5  -8 -12 562.803 148.196   5
   5  -8 -12 505.655 147.896   4
   5   8 -12 600.762 154.524   6
   5  -8 -11 578.240 128.923   5
   5  -8 -11 607.297 151.278   4
   5   8 -11 893.385 185.487   6
   5  -8 -10 2965.31 262.970   4
   5   8 -10 2699.12 261.992   6
   5   8 -10 2568.54 169.718   4
   5  -8 -10 2366.18 206.177   5
   5   8  -9 231.587 67.8377   4
   5  -8  -9 226.235 91.4235   5
   5  -8  -9 335.122 123.386   4
   5   8  -9 324.689 148.436   6
   5  -8  -8 2725.10 185.008   5
   5  -8  -8 2576.87 220.294   4
   5   8  -8 2880.40 243.208   6
   5   8  -8 2835.34 150.922   4
   5  -8  -7 30198.9 531.216   5
   5  -8  -7 30221.1 677.481   4
   5   8  -7 29543.3 682.893   6
   5   8  -7 29761.3 434.369   4
   5  -8  -6 15734.6 337.618   5
   5  -8  -6 16305.6 474.347   4
   5   8  -6 15584.7 296.436   4
   5   8  -6 15563.5 472.093   6
   5  -8  -5 88414.4 1035.34   4
   5  -8  -5 88577.1 671.786   5
   5   8  -5 86975.5 665.887   4
   5   8  -5 87050.9 1019.09   6
   5  -8  -4 9414.55 171.607   5
   5  -8  -4 9550.34 285.284   6
   5   8  -4 9728.37 326.303   6
   5  -8  -4 10016.8 339.427   4
   5  -8  -3 93555.1 751.144   6
   5  -8  -3 98329.3 991.715   1
   5   8  -3 95176.5 952.456   6
   5  -8  -3 94920.0 978.738   4
   5  -8  -2 445.186 55.8578   6
   5   8  -2 562.675 96.4034   6
   5  -8  -2 520.246 100.261   1
   5  -8  -2 577.345 111.530   4
   5   8  -1 36850.2 569.063   6
   5  -8  -1 35129.9 320.916   6
   5  -8  -1 37169.2 597.470   4
   5  -8  -1 36033.6 534.492   1
   5  -8   0 106117. 650.971   5
   5   8   0 109319. 976.957   6
   5  -8   0 104228. 1000.28   4
   5  -8   1 80372.5 699.168   5
   5   8   1 74697.6 832.424   6
   5  -8   1 78607.1 884.687   4
   5   8   1 78635.8 803.037   2
   5  -8   2 19846.1 404.794   5
   5   8   2 19840.8 454.751   6
   5   8   2 19082.9 439.953   2
   5  -8   3 6358.77 257.979   5
   5   8   4 20569.6 490.908   3
   5  -9 -13 3694.57 323.894   5
   5  -9 -12 2724.13 260.788   5
   5  -9 -12 3097.05 303.863   4
   5   9 -12 3224.05 322.879   6
   5  -9 -11 13439.5 572.386   4
   5   9 -11 14001.4 612.666   6
   5  -9 -11 13352.4 512.903   5
   5  -9 -10 4205.34 316.676   4
   5   9 -10 4277.07 330.634   6
   5  -9 -10 3730.03 256.115   5
   5  -9  -9 61307.7 929.126   5
   5  -9  -9 62560.1 1099.07   4
   5   9  -9 60797.6 1124.99   6
   5   9  -9 60484.7 689.601   4
   5  -9  -8 2013.00 162.187   5
   5  -9  -8 2217.07 213.501   4
   5   9  -8 2108.96 123.930   4
   5   9  -8 2142.51 214.978   6
   5  -9  -7 3259.27 182.102   5
   5  -9  -7 3278.32 236.771   4
   5   9  -7 3270.59 137.308   4
   5   9  -7 3045.22 230.971   6
   5  -9  -6 1000.75 90.3805   5
   5  -9  -6 1338.24 151.546   4
   5   9  -6 1000.16 73.5105   4
   5   9  -6 872.112 129.700   6
   5  -9  -5 26511.1 578.681   4
   5  -9  -5 25624.6 371.742   5
   5  -9  -5 24394.8 519.024   6
   5   9  -5 26204.9 349.040   4
   5   9  -5 25381.3 571.184   6
   5  -9  -4 10058.4 184.151   5
   5  -9  -4 10371.6 301.455   6
   5   9  -4 10681.7 351.574   6
   5  -9  -4 10596.1 352.096   4
   5  -9  -3 6493.27 215.517   6
   5  -9  -3 6684.50 266.004   1
   5   9  -3 6734.85 278.946   6
   5  -9  -3 6707.23 275.985   4
   5  -9  -2 67483.3 786.915   1
   5  -9  -2 64908.8 563.475   6
   5   9  -2 66040.2 795.101   6
   5  -9  -2 65338.8 808.414   4
   5  -9  -1 170383. 1170.18   1
   5   9  -1 176723. 1281.69   6
   5  -9  -1 173205. 1300.55   4
   5  -9   0 2834.89 113.338   5
   5   9   0 3497.05 193.977   6
   5  -9   0 2909.07 175.648   4
   5  -9   0 2949.13 101.305   6
   5  -9   1 111905. 832.527   5
   5   9   1 110644. 1054.02   6
   5  -9   1 111370. 1064.11   4
   5   9   1 108103. 928.273   2
   5  -9   2 2279.19 141.560   5
   5   9   2 2275.13 183.553   6
   5   9   2 2313.46 158.269   2
   5   9   3 38797.7 692.904   2
   5  -9   3 40173.9 647.462   5
   5   9   4 2.97413 44.6265   3
   5 -10 -12 5082.79 384.059   4
   5  10 -12 4662.57 390.234   6
   5 -10 -12 4409.17 322.394   5
   5 -10 -11 91.1922 96.2244   5
   5 -10 -11 279.981 133.030   4
   5  10 -11 396.356 162.170   6
   5 -10 -10 16781.2 533.199   5
   5 -10 -10 16780.1 615.812   4
   5  10 -10 17839.6 657.516   6
   5 -10  -9 1946.40 182.038   5
   5 -10  -9 2152.83 228.116   4
   5  10  -9 2030.65 126.209   4
   5  10  -9 1854.62 219.802   6
   5 -10  -8 8974.33 330.850   5
   5 -10  -8 9825.05 426.722   4
   5  10  -8 9602.93 234.089   4
   5  10  -8 9593.97 432.056   6
   5 -10  -7 1000.17 112.516   5
   5 -10  -7 1071.69 155.100   4
   5  10  -7 967.951 72.0883   4
   5  10  -7 1184.40 164.542   6
   5 -10  -6 14677.5 470.450   4
   5 -10  -6 13823.8 324.378   5
   5  10  -6 13662.0 240.538   4
   5  10  -6 13723.7 457.040   6
   5 -10  -5 3211.52 216.317   4
   5 -10  -5 3038.05 133.105   5
   5 -10  -5 2943.34 185.379   6
   5  10  -5 3004.10 210.010   6
   5 -10  -4 4101.74 127.919   5
   5 -10  -4 4578.02 213.037   6
   5  10  -4 4593.07 247.990   6
   5 -10  -4 4113.11 235.593   4
   5 -10  -3 7265.88 134.282   5
   5 -10  -3 7544.98 234.440   6
   5  10  -3 7667.90 297.519   6
   5 -10  -3 7968.71 302.603   4
   5 -10  -2 121.720 23.8626   5
   5 -10  -2 177.338 71.1997   1
   5 -10  -2 137.362 21.6914   5
   5 -10  -2 573.533 87.6536   6
   5  10  -2 635.218 119.115   6
   5 -10  -2 243.918 89.2342   4
   5 -10  -1 50585.2 388.204   5
   5 -10  -1 51678.7 655.399   1
   5  10  -1 51479.7 724.779   6
   5 -10  -1 50397.1 469.635   6
   5 -10  -1 50904.9 718.464   4
   5 -10   0 59439.6 521.972   5
   5  10   0 58701.4 778.744   6
   5 -10   0 57202.0 760.783   4
   5 -10   0 56957.4 475.153   6
   5 -10   1 41261.0 520.089   5
   5  10   1 39919.8 659.950   6
   5 -10   1 40778.2 655.428   4
   5  10   1 39947.2 559.393   2
   5 -10   2 77561.4 807.055   5
   5  10   2 78645.0 985.589   6
   5  10   2 75114.1 861.210   2
   5  10   3 46.6770 36.3624   3
   5 -10   3 51.8208 43.0598   5
   5  10   3 142.606 73.5552   2
   5  10   4 21834.9 489.736   3
   5 -11 -12 206.883 115.794   5
   5 -11 -12-55.0645 132.899   4
   5  11 -12 28.4250 132.891   6
   5 -11 -11 7782.76 447.980   4
   5  11 -11 7336.38 455.147   6
   5 -11 -11 7175.39 380.053   5
   5 -11 -10 135.413 84.2226   5
   5 -11 -10 166.260 139.159   4
   5  11 -10 262.495 141.242   6
   5 -11  -9 10688.4 397.061   5
   5 -11  -9 11431.5 490.472   4
   5  11  -9 11471.7 513.983   6
   5 -11  -8 12160.0 386.311   5
   5 -11  -8 12792.2 493.014   4
   5  11  -8 11956.8 234.818   4
   5  11  -8 11872.8 485.758   6
   5 -11  -7 4558.42 215.023   5
   5 -11  -7 4728.81 291.264   4
   5  11  -7 4264.13 127.457   4
   5  11  -7 4389.43 286.014   6
   5 -11  -6 34749.2 730.631   4
   5 -11  -6 34509.6 519.311   5
   5  11  -6 34308.8 736.317   6
   5 -11  -5 20166.2 525.775   4
   5 -11  -5 20446.6 350.657   5
   5 -11  -5 19812.7 478.396   6
   5  11  -5 20176.5 531.761   6
   5 -11  -4 84941.6 606.900   5
   5 -11  -4 82360.2 885.512   6
   5  11  -4 86890.3 1055.78   6
   5 -11  -4 84921.2 1030.35   4
   5 -11  -3 1109.79 61.9362   5
   5 -11  -3 1589.01 135.936   6
   5  11  -3 1473.74 161.213   6
   5 -11  -3 1632.61 155.501   4
   5 -11  -2 48286.8 682.863   1
   5 -11  -2 45556.9 360.394   5
   5 -11  -2 47824.8 542.762   6
   5  11  -2 47382.0 725.383   6
   5 -11  -2 47714.1 715.952   4
   5 -11  -2 44498.3 349.831   5
   5 -11  -1 7419.59 256.801   1
   5  11  -1 7901.57 303.094   6
   5 -11  -1 7702.23 204.462   6
   5 -11  -1 7179.71 279.759   4
   5 -11  -1 7120.33 161.974   5
   5 -11   0 953.565 75.7414   5
   5  11   0 1323.47 139.907   6
   5 -11   0 925.269 111.689   4
   5 -11   0 1048.90 77.1581   6
   5 -11   1 86390.4 767.353   5
   5  11   1 86164.9 1002.87   6
   5 -11   1 86225.3 958.811   4
   5  11   1 84915.0 803.567   2
   5 -11   2 45417.0 636.575   5
   5  11   2 44297.4 759.165   6
   5  11   2 44635.7 664.514   2
   5  11   3 11358.7 374.432   2
   5 -11   3 11509.8 354.610   5
   5  11   3 11217.7 303.131   3
   5  11   4 2002.79 152.131   3
   5 -12 -12 808.024 157.697   5
   5 -12 -12 788.645 180.864   4
   5 -12 -11 329.813 118.944   5
   5 -12 -11 371.192 135.714   4
   5  12 -11 198.236 113.952   6
   5 -12 -10 1330.39 161.158   5
   5 -12 -10 1606.09 213.672   4
   5  12 -10 1679.45 242.673   6
   5 -12  -9 3156.06 225.204   5
   5 -12  -9 3424.21 282.668   4
   5  12  -9 3134.37 278.828   6
   5 -12  -8 864.461 114.752   5
   5 -12  -8 850.091 155.429   4
   5  12  -8 790.030 149.315   6
   5 -12  -7 18858.7 437.710   5
   5 -12  -7 19402.3 581.709   4
   5  12  -7 18919.8 588.645   6
   5 -12  -6 350.507 122.566   4
   5 -12  -6 122.423 61.5699   5
   5  12  -6 202.035 121.713   6
   5 -12  -5 28911.9 643.080   4
   5 -12  -5 28574.8 427.541   5
   5  12  -5 28178.1 642.030   6
   5 -12  -4 4502.24 150.461   5
   5 -12  -4 4747.51 225.804   6
   5  12  -4 4779.59 263.552   6
   5 -12  -4 5010.85 264.175   4
   5 -12  -3 87728.4 581.901   5
   5 -12  -3 88532.7 855.832   6
   5  12  -3 87319.4 1044.22   6
   5 -12  -3 88178.6 1027.38   4
   5 -12  -2 3056.27 186.740   1
   5 -12  -2 3296.43 160.599   6
   5  12  -2 3371.65 215.141   6
   5 -12  -2 3712.67 217.840   4
   5 -12  -2 3115.80 107.273   5
   5 -12  -1 149724. 1147.08   1
   5  12  -1 150895. 1337.17   6
   5 -12  -1 150199. 941.414   6
   5 -12  -1 149470. 1270.32   4
   5 -12  -1 149997. 791.960   5
   5 -12   0 7862.32 209.298   5
   5  12   0 7878.65 315.454   6
   5 -12   0 7525.33 285.219   4
   5 -12   0 7835.93 210.082   6
   5 -12   0 7509.65 241.343   1
   5 -12   1 16500.0 348.000   5
   5  12   1 16158.0 454.982   6
   5 -12   1 15883.5 419.912   4
   5  12   1 15824.4 343.928   2
   5 -12   2 8442.72 279.935   5
   5  12   2 8800.58 360.323   6
   5  12   2 8346.24 287.921   2
   5  12   3 18586.4 476.194   2
   5  12   3 19107.5 388.777   3
   5  12   4 1010.55 106.492   3
   5 -13 -11 26.5819 88.4373   5
   5 -13 -11-243.424 151.360   4
   5  13 -11 8.12067 112.275   6
   5 -13 -10 1499.22 176.535   5
   5 -13 -10 1411.52 214.254   4
   5  13 -10 1370.74 209.052   6
   5 -13  -9 4204.37 257.049   5
   5 -13  -9 4654.25 329.736   4
   5  13  -9 4363.46 329.761   6
   5 -13  -8 1905.99 164.127   5
   5 -13  -8 2243.99 225.395   4
   5  13  -8 1828.37 215.569   6
   5 -13  -7 1412.15 131.262   5
   5 -13  -7 1621.34 189.456   4
   5  13  -7 1077.32 162.691   6
   5 -13  -6 54518.6 942.083   4
   5 -13  -6 54421.8 684.268   5
   5  13  -6 53867.2 956.363   6
   5 -13  -5 2352.91 206.110   4
   5 -13  -5 2219.68 130.407   5
   5  13  -5 2196.92 200.642   6
   5 -13  -4 76996.8 652.410   5
   5 -13  -4 75433.8 896.856   6
   5  13  -4 76609.7 1046.05   6
   5 -13  -4 77685.5 1027.18   4
   5 -13  -3 1328.25 151.648   4
   5 -13  -3 1123.96 76.0449   5
   5 -13  -3 1275.67 116.920   6
   5  13  -3 987.933 135.378   6
   5  13  -2 118315. 1230.14   6
   5 -13  -2 115918. 942.960   6
   5 -13  -2 119499. 1175.03   4
   5 -13  -2 117294. 694.314   5
   5 -13  -1 5229.70 222.283   1
   5  13  -1 5999.67 291.405   6
   5 -13  -1 5847.70 204.455   6
   5 -13  -1 5178.80 250.263   4
   5 -13  -1 5075.55 159.523   5
   5 -13   0 16397.1 317.116   5
   5  13   0 16053.4 457.067   6
   5 -13   0 16046.8 423.469   4
   5 -13   0 16149.3 321.447   6
   5 -13   0 15876.0 356.072   1
   5 -13   1 6805.47 233.474   5
   5  13   1 6991.73 319.925   6
   5 -13   1 6307.03 270.131   4
   5  13   1 6282.68 214.772   2
   5 -13   1 6797.09 218.778   6
   5 -13   2 39451.9 612.808   5
   5  13   2 39876.7 756.015   6
   5  13   2 39385.6 615.628   2
   5  13   3 76801.8 960.859   2
   5  13   3 78022.4 767.860   3
   5  13   4 57.7359 52.8281   3
   5 -14 -11 134.678 102.394   5
   5 -14 -11 160.061 135.043   4
   5  14 -11 283.826 157.885   6
   5 -14 -10 4418.78 288.361   5
   5 -14 -10 4929.02 369.296   4
   5  14 -10 4190.71 348.326   6
   5 -14  -9 3.18667 63.8343   5
   5 -14  -9 319.562 122.067   4
   5  14  -9 291.438 130.894   6
   5 -14  -8 4491.42 247.536   5
   5 -14  -8 4737.47 321.087   4
   5  14  -8 4942.76 335.299   6
   5 -14  -7 1824.85 146.648   5
   5 -14  -7 2074.56 214.252   4
   5  14  -7 1762.30 199.375   6
   5 -14  -6 39300.8 815.910   4
   5 -14  -6 38927.4 593.051   5
   5  14  -6 38376.6 824.547   6
   5 -14  -5 3300.31 234.945   4
   5 -14  -5 2944.23 153.778   5
   5  14  -5 3210.96 241.036   6
   5 -14  -4 2414.38 128.248   5
   5 -14  -4 2392.45 178.517   6
   5  14  -4 2422.47 208.940   6
   5 -14  -4 2809.80 210.073   4
   5 -14  -3 19650.7 323.117   5
   5 -14  -3 19586.1 433.452   6
   5  14  -3 19766.2 535.157   6
   5 -14  -3 19870.7 510.416   4
   5  14  -2 4859.53 280.212   6
   5 -14  -2 4336.20 197.493   6
   5 -14  -2 4081.08 234.114   4
   5 -14  -1 13715.6 362.483   1
   5  14  -1 13605.5 434.585   6
   5 -14  -1 13900.7 326.058   6
   5 -14  -1 14762.0 415.993   4
   5 -14  -1 14284.9 281.868   5
   5 -14   0 62709.5 712.150   1
   5  14   0 66639.0 959.365   6
   5 -14   0 63773.7 856.299   4
   5 -14   0 64289.7 679.389   6
   5 -14   0 65400.7 662.399   5
   5 -14   1 317.273 68.2741   5
   5 -14   1 237.233 85.7654   4
   5 -14   1 585.212 84.6697   6
   5 -14   2 74420.4 860.685   5
   5  14   2 73951.0 1059.59   6
   5  14   2 72011.3 824.639   2
   5  14   3 252.803 60.4103   3
   5  14   3 219.827 67.3124   2
   5  14   4 31656.8 563.629   3
   5 -15 -11 1528.55 228.224   4
   5  15 -11 1446.68 236.808   6
   5 -15 -10 2210.82 211.664   5
   5 -15 -10 2246.02 276.498   4
   5  15 -10 2182.13 270.896   6
   5 -15  -9 20185.5 560.776   5
   5 -15  -9 21694.7 718.283   4
   5  15  -9 21085.5 724.981   6
   5 -15  -8 2964.86 261.875   4
   5 -15  -8 3288.15 215.349   5
   5  15  -8 3060.23 276.830   6
   5 -15  -7 12383.9 498.914   4
   5 -15  -7 11779.3 369.657   5
   5  15  -7 12283.5 501.041   6
   5 -15  -6 2366.23 226.823   4
   5 -15  -6 2048.76 152.134   5
   5  15  -6 2138.42 217.473   6
   5 -15  -5 4270.51 273.219   4
   5 -15  -5 3874.40 181.842   5
   5  15  -5 3862.97 272.458   6
   5 -15  -4 2678.54 139.250   5
   5  15  -4 2408.64 208.267   6
   5 -15  -4 2626.03 209.078   4
   5 -15  -3 9838.14 246.638   5
   5 -15  -3 10810.5 345.124   6
   5  15  -3 10857.5 416.685   6
   5 -15  -3 9886.52 369.453   4
   5  15  -2 9799.20 389.062   6
   5 -15  -2 9468.73 295.245   6
   5 -15  -2 9478.47 348.897   4
   5 -15  -1 15465.1 388.435   1
   5  15  -1 16645.3 495.013   6
   5 -15  -1 15740.3 366.069   6
   5 -15  -1 15306.1 434.317   4
   5 -15  -1 15366.2 310.392   5
   5 -15   0 1026.19 100.137   1
   5  15   0 1432.02 167.351   6
   5 -15   0 1129.80 107.104   6
   5 -15   0 1175.05 136.411   4
   5 -15   0 1073.94 96.9132   5
   5 -15   1 26822.4 486.205   5
   5  15   1 28094.3 656.020   6
   5 -15   1 27624.3 574.912   4
   5 -15   1 26810.9 468.363   6
   5 -15   2 4440.68 219.651   5
   5  15   2 4313.69 271.714   6
   5  15   2 4412.41 205.810   2
   5  15   3 37879.4 674.264   2
   5  15   3 38201.2 507.713   3
   5 -16 -11 1550.99 231.248   4
   5  16 -11 1829.88 264.595   6
   5 -16 -10 14068.1 624.127   4
   5  16 -10 14217.8 633.874   6
   5 -16  -9 188.965 89.3706   5
   5 -16  -9 266.046 141.748   4
   5  16  -9 327.192 148.583   6
   5 -16  -8 17121.9 616.596   4
   5 -16  -8 16515.5 478.633   5
   5  16  -8 16894.5 635.400   6
   5 -16  -7 1230.98 187.073   4
   5 -16  -7 1160.84 134.848   5
   5  16  -7 1280.78 188.443   6
   5 -16  -6 27352.3 706.976   4
   5 -16  -6 26941.7 525.532   5
   5  16  -6 26795.1 734.203   6
   5 -16  -5 61984.8 733.476   5
   5  16  -5 62068.6 1059.61   6
   5 -16  -5 63500.0 1027.23   4
   5 -16  -4 2478.31 142.013   5
   5  16  -4 2767.36 231.352   6
   5 -16  -4 2611.72 216.515   4
   5 -16  -3 52123.6 596.694   5
   5  16  -3 51881.1 910.741   6
   5 -16  -3 52828.5 860.182   4
   5  16  -2 2478.20 229.919   6
   5 -16  -2 1844.75 164.919   6
   5 -16  -2 1658.53 166.073   4
   5 -16  -1 8133.91 288.904   1
   5  16  -1 8851.76 378.385   6
   5 -16  -1 8761.15 286.503   6
   5 -16  -1 8543.49 335.261   4
   5 -16  -1 8336.89 242.732   5
   5 -16   0 62913.2 737.919   1
   5  16   0 65527.9 1010.34   6
   5 -16   0 66085.0 896.853   4
   5 -16   0 64582.0 749.011   6
   5 -16   0 65265.2 719.940   5
   5 -16   1 16274.2 391.772   5
   5  16   1 16397.7 519.427   6
   5 -16   1 15458.9 438.019   4
   5 -16   1 16015.2 377.800   6
   5  16   2 16683.2 538.251   6
   5  16   2 16814.4 392.602   2
   5  16   3 5419.63 259.131   2
   5  16   3 5170.99 320.130   6
   5 -17 -10 1665.18 230.887   4
   5  17 -10 1712.61 250.117   6
   5 -17  -9 8916.74 386.287   5
   5 -17  -9 9062.33 482.475   4
   5  17  -9 8736.37 487.729   6
   5 -17  -8 15263.2 599.065   4
   5 -17  -8 14605.5 457.111   5
   5  17  -8 14704.2 597.524   6
   5 -17  -7 548.775 137.353   4
   5 -17  -7 369.045 91.9536   5
   5  17  -7 321.098 132.366   6
   5 -17  -6 22450.6 651.691   4
   5 -17  -6 22061.9 490.714   5
   5  17  -6 22309.6 684.257   6
   5 -17  -5 7584.50 268.529   5
   5  17  -5 7012.56 370.205   6
   5 -17  -5 8099.39 381.137   4
   5 -17  -4 60625.0 712.359   5
   5  17  -4 62324.2 1058.68   6
   5 -17  -4 62197.0 990.304   4
   5 -17  -3 13460.6 321.659   5
   5  17  -3 13334.3 482.639   6
   5 -17  -3 13322.7 443.565   4
   5  17  -2 86235.2 1196.80   6
   5 -17  -2 81150.8 927.355   6
   5 -17  -2 83533.4 1063.37   4
   5  17  -1 4815.65 295.240   6
   5 -17  -1 3954.77 205.193   6
   5 -17  -1 4262.61 242.421   4
   5 -17  -1 4275.96 185.597   5
   5 -17   0 35721.8 566.913   1
   5  17   0 35078.2 758.324   6
   5 -17   0 36824.2 683.081   4
   5 -17   0 36697.0 591.908   6
   5 -17   0 36074.3 557.376   5
   5  17   1 5220.06 312.459   6
   5 -17   1 4958.57 257.805   4
   5 -17   1 5153.73 228.599   6
   5 -17   1 5048.97 229.448   5
   5  17   2 5070.11 315.043   6
   5  17   2 4422.54 200.552   2
   5  17   3 3550.89 287.468   6
   5 -18 -10 467.251 154.827   4
   5  18 -10 359.332 135.079   6
   5 -18  -9 98.5617 118.701   4
   5  18  -9-124.700 136.056   6
   5 -18  -8 15429.0 618.818   4
   5 -18  -8 15150.3 473.276   5
   5  18  -8 15450.2 625.790   6
   5 -18  -7 3751.66 298.760   4
   5 -18  -7 3370.22 215.342   5
   5  18  -7 3112.31 283.878   6
   5 -18  -6 9467.11 432.738   4
   5 -18  -6 8884.65 323.029   5
   5  18  -6 9559.23 459.909   6
   5 -18  -5 34274.0 585.284   5
   5  18  -5 34200.4 823.714   6
   5 -18  -5 34591.7 786.707   4
   5 -18  -4 11009.2 320.075   5
   5  18  -4 11026.6 459.572   6
   5 -18  -4 11902.8 448.171   4
   5 -18  -3 23555.9 444.402   5
   5  18  -3 23503.1 654.204   6
   5 -18  -3 24312.9 605.835   4
   5  18  -2 5254.25 313.450   6
   5 -18  -2 5699.69 289.818   4
   5  18  -1 53744.8 971.177   6
   5 -18  -1 54772.5 857.173   4
   5 -18  -1 52778.6 665.525   5
   5 -18   0 616.284 86.4243   5
   5  18   0 921.808 154.424   6
   5 -18   0 526.293 79.1680   1
   5 -18   0 742.600 120.245   4
   5 -18   0 671.487 95.9392   6
   5  18   1 47918.9 936.696   6
   5 -18   1 48418.9 791.812   4
   5  18   2 25709.0 700.664   6
   5  18   3 861.185 186.075   6
   5 -19 -10 266.123 137.445   4
   5  19 -10 338.446 162.117   6
   5 -19  -9 7195.67 450.085   4
   5  19  -9 7089.47 463.998   6
   5 -19  -8 2297.54 257.594   4
   5  19  -8 2282.00 267.729   6
   5 -19  -7 10464.3 487.734   4
   5 -19  -7 10324.1 375.784   5
   5  19  -7 10149.5 506.715   6
   5 -19  -6 9497.32 447.177   4
   5 -19  -6 8733.09 325.342   5
   5  19  -6 8289.92 440.135   6
   5 -19  -5 2244.31 161.015   5
   5  19  -5 2213.62 236.386   6
   5 -19  -5 2519.21 234.588   4
   5 -19  -4 13698.9 371.273   5
   5  19  -4 14436.0 539.479   6
   5 -19  -4 14581.0 505.870   4
   5 -19  -3 1253.09 116.405   5
   5  19  -3 1159.44 180.522   6
   5 -19  -3 1026.77 140.394   4
   5  19  -2 19693.8 612.594   6
   5 -19  -2 19909.4 544.188   4
   5  19  -1 16328.2 555.827   6
   5 -19  -1 15734.2 473.192   4
   5 -19  -1 16076.9 386.293   5
   5 -19   0 8830.44 295.878   1
   5  19   0 9102.13 423.782   6
   5 -19   0 8910.72 350.441   4
   5  19   1 25575.8 706.412   6
   5 -19   1 24772.3 577.250   4
   5  19   2 5216.47 337.644   6
   5  19   3 52166.8 1062.86   6
   5 -20  -9 3442.08 324.822   4
   5  20  -9 3273.46 328.426   6
   5 -20  -8 20179.6 716.288   4
   5  20  -8 20024.0 735.087   6
   5 -20  -7 14.5207 100.981   4
   5 -20  -7 161.891 76.6197   5
   5  20  -7 66.1921 111.896   6
   5 -20  -6 14858.0 567.451   4
   5 -20  -6 13685.6 418.816   5
   5  20  -6 13903.4 575.181   6
   5 -20  -5 467.277 121.661   4
   5 -20  -5 478.732 96.0885   5
   5  20  -5 315.067 121.352   6
   5 -20  -4 285.714 121.045   4
   5 -20  -4 127.003 67.3069   5
   5  20  -4 250.665 139.661   6
   5 -20  -3 131.341 59.6102   5
   5  20  -3 11.9834 88.7982   6
   5 -20  -3-10.6249 75.2286   4
   5  20  -2 610.162 151.184   6
   5 -20  -2 272.266 96.9751   4
   5  20  -1 250.659 104.854   6
   5 -20  -1-10.7264 73.7156   4
   5  20   0 7104.69 388.761   6
   5 -20   0 6703.01 314.853   4
   5  20   1 668.105 149.734   6
   5 -20   1 438.243 99.7060   4
   5  20   2 34830.7 861.268   6
   5  20   3 1725.07 219.741   6
   5 -21  -9 3855.27 345.590   4
   5  21  -9 3731.00 357.215   6
   5 -21  -8 1006.90 188.040   4
   5  21  -8 1007.42 204.326   6
   5 -21  -7 3517.19 308.845   4
   5  21  -7 3059.90 298.561   6
   5 -21  -6 5982.43 287.385   5
   5  21  -6 6057.77 393.896   6
   5 -21  -6 6308.70 379.064   4
   5 -21  -5 5628.84 266.543   5
   5  21  -5 5617.38 374.059   6
   5 -21  -5 5761.05 354.155   4
   5 -21  -4 35396.6 635.048   5
   5  21  -4 35306.6 885.860   6
   5 -21  -4 36435.1 815.153   4
   5 -21  -3 5841.98 257.113   5
   5  21  -3 6028.04 368.772   6
   5 -21  -3 6001.14 327.499   4
   5  21  -2 32671.6 825.516   6
   5 -21  -2 32655.4 719.632   4
   5  21  -1 11915.2 505.518   6
   5 -21  -1 11305.7 416.029   4
   5  21   0 45655.4 985.794   6
   5 -21   0 44915.6 806.825   4
   5  21   1 11536.4 501.519   6
   5 -21   1 11226.8 401.240   4
   5  21   2 3412.75 296.329   6
   5  21   3 20573.4 700.706   6
   5 -22  -8 1285.96 209.949   4
   5  22  -8 1117.43 215.585   6
   5 -22  -7 14706.9 605.595   4
   5  22  -7 13587.7 606.067   6
   5  22  -6 3851.90 331.282   6
   5 -22  -6 3978.76 316.803   4
   5 -22  -5 32664.1 647.752   5
   5  22  -5 33593.8 900.884   6
   5 -22  -5 33757.3 831.602   4
   5 -22  -4 269.968 120.779   4
   5 -22  -4 12.3690 53.6006   5
   5  22  -4 16.7813 108.692   6
   5 -22  -3 23295.4 519.025   5
   5  22  -3 22797.8 721.813   6
   5 -22  -3 23034.0 637.125   4
   5  22  -2 1468.41 207.905   6
   5 -22  -2 1676.35 182.457   4
   5  22  -1 22046.9 702.061   6
   5 -22  -1 21621.4 581.084   4
   5  22   0 937.409 180.063   6
   5 -22   0 955.539 142.164   4
   5  22   1 7787.18 425.567   6
   5 -22   1 8386.45 353.105   4
   5  22   2 811.259 168.772   6
   5  22   3 337.560 142.074   6
   5 -23  -8 1156.93 207.910   4
   5  23  -8 1408.46 228.946   6
   5 -23  -7 1453.26 214.101   4
   5  23  -7 1441.56 235.080   6
   5  23  -6 8802.75 490.516   6
   5 -23  -6 8898.97 462.587   4
   5 -23  -5 2084.92 236.070   4
   5  23  -5 2291.59 261.600   6
   5 -23  -4 11529.9 389.152   5
   5  23  -4 12095.1 548.918   6
   5 -23  -4 11966.4 488.460   4
   5 -23  -3-28.6708 60.7779   5
   5  23  -3 206.233 123.774   6
   5 -23  -3 94.5231 88.9311   4
   5  23  -2 12610.6 548.389   6
   5 -23  -2 12066.9 457.248   4
   5  23  -1 2353.13 253.766   6
   5 -23  -1 2025.98 193.074   4
   5  23   0 10054.8 494.719   6
   5 -23   0 9259.15 381.837   4
   5  23   1 1184.75 202.899   6
   5 -23   1 1155.57 149.616   4
   5  23   2 2403.04 275.675   6
   5  23   3 2752.13 298.209   6
   5 -24  -8 4807.33 384.088   4
   5 -24  -7 1834.83 235.201   4
   5  24  -7 1604.24 251.455   6
   5 -24  -6 487.319 144.935   4
   5  24  -6 430.921 169.022   6
   5  24  -5 4864.41 375.359   6
   5 -24  -5 5484.98 361.841   4
   5 -24  -4 1103.79 167.545   4
   5  24  -4 1119.74 208.446   6
   5 -24  -3 13202.4 420.331   5
   5  24  -3 13175.7 582.355   6
   5 -24  -3 13133.4 497.768   4
   5  24  -2 1308.67 193.181   6
   5 -24  -2 1579.99 182.561   4
   5  24  -1 4736.02 355.018   6
   5 -24  -1 4869.53 294.374   4
   5  24   0 15143.0 619.362   6
   5 -24   0 14639.6 485.601   4
   5  24   1 300.534 117.015   6
   5 -24   1 170.658 82.9436   4
   5  24   2 16335.7 666.563   6
   5  24   3 2963.72 304.476   6
   5  25  -7 7624.28 498.820   6
   5 -25  -7 7759.54 466.374   4
   5 -25  -6 1722.99 223.829   4
   5  25  -6 1772.56 246.643   6
   5 -25  -5 2452.38 253.189   4
   5  25  -5 2208.23 266.634   6
   5  25  -4-13.7185 112.211   6
   5 -25  -4 121.003 113.189   4
   5  25  -3 3036.35 308.783   6
   5 -25  -3 3214.76 257.365   4
   5  25  -2 254.754 142.499   6
   5 -25  -2 82.3771 81.4117   4
   5  25  -1 13293.8 590.210   6
   5 -25  -1 13354.1 485.789   4
   5  25   0 551.572 159.530   6
   5 -25   0 89.7809 82.8601   4
   5  25   1 15955.3 649.854   6
   5 -25   1 15377.1 494.767   4
   5  25   2 971.407 202.742   6
   5  25   3 15331.1 662.320   6
   5 -26  -7 1936.67 254.752   4
   5 -26  -6 611.435 155.922   4
   5  26  -6 630.076 181.294   6
   5  26  -5 4663.54 371.430   6
   5 -26  -5 4393.61 328.369   4
   5  26  -4 1881.72 256.605   6
   5 -26  -4 1651.82 213.366   4
   5  26  -3 8446.42 496.767   6
   5 -26  -3 8478.38 417.729   4
   5  26  -2 2495.26 287.946   6
   5 -26  -2 2248.88 224.262   4
   5  26  -1 5619.68 408.725   6
   5 -26  -1 5963.95 339.513   4
   5  26   0 3743.13 333.210   6
   5 -26   0 3284.94 244.792   4
   5  26   1 3772.35 337.121   6
   5 -26   1 3415.22 239.725   4
   5  26   2 4928.74 387.183   6
   5  26   3 102.531 140.687   6
   5 -27  -6 9354.80 506.070   4
   5 -27  -5 250.889 124.865   4
   5  27  -5 240.634 142.341   6
   5  27  -4 12586.1 621.445   6
   5 -27  -4 11146.3 504.543   4
   5  27  -3 269.807 130.716   6
   5 -27  -3 366.070 117.568   4
   5  27  -2 13929.1 634.532   6
   5 -27  -2 13159.9 515.480   4
   5  27  -1 191.999 136.861   6
   5 -27  -1 134.956 86.0247   4
   5  27   0 7489.18 472.039   6
   5 -27   0 7317.04 361.229   4
   5  27   1 232.467 152.819   6
   5  27   2 3510.19 345.740   6
   5  27   3 6886.59 481.123   6
   5 -28  -6 379.771 164.910   4
   5 -28  -5 4022.82 333.000   4
   5  28  -4 579.597 179.199   6
   5 -28  -4 468.735 143.175   4
   5  28  -3 6648.58 461.597   6
   5 -28  -3 6657.79 389.421   4
   5  28  -2 4197.33 374.543   6
   5 -28  -2 4459.33 312.761   4
   5  28  -1 5553.84 428.088   6
   5 -28  -1 5130.39 317.960   4
   5  28   0 2015.10 266.074   6
   5  28   1 1468.35 247.301   6
   5  28   2 1264.01 237.871   6
   5 -29  -5 261.194 131.103   4
   5 -29  -4 6667.55 404.418   4
   5 -29  -3 3238.93 281.758   4
   5 -29  -2 2917.68 260.940   4
   5  29  -1 2444.01 305.776   6
   5 -30  -5 201.006 129.726   4
   5 -30  -4 2869.05 281.816   4
   5 -30  -3 88.5471 113.406   4
   6   0 -13 206.029 127.039   4
   6   0 -12 510.059 143.621   4
   6   0 -11 105.688 95.3431   4
   6   0 -10 244.032 97.8509   4
   6   0  -9 34.8784 72.1080   4
   6   0  -8 9699.91 359.887   4
   6   0  -7-118.638 76.5347   4
   6   0  -6 51.1882 59.4817   4
   6   0  -5 126.042 59.8004   4
   6   0  -4 778.561 94.1137   4
   6   0  -4 842.717 84.7953   6
   6   0  -3 92.2875 59.9922   4
   6   0  -3 13.3804 31.1624   6
   6   0  -2 17432.0 397.524   4
   6   0  -2 16617.5 248.995   6
   6   0  -1 231.148 35.0990   6
   6   0   2 8474.71 291.780   5
   6   1 -13 9082.85 451.338   4
   6  -1 -13 8992.04 463.899   4
   6   1 -12 1845.38 204.118   4
   6  -1 -12 2263.09 227.976   4
   6  -1 -12 1885.13 227.403   5
   6   1 -11 2725.07 232.743   4
   6  -1 -11 3216.42 261.808   4
   6  -1 -11 2993.49 252.648   5
   6   1 -10 880.332 133.470   4
   6  -1 -10 934.416 144.324   4
   6  -1 -10 696.632 118.733   5
   6   1  -9 49.0898 69.3803   4
   6  -1  -9 97.1604 70.3627   4
   6  -1  -9 35.2285 65.6318   5
   6   1  -8 8890.19 335.958   4
   6  -1  -8 9035.70 355.727   4
   6   1  -7 806.642 111.347   4
   6  -1  -7 978.289 132.492   4
   6   1  -6 14479.4 381.342   4
   6  -1  -6 14897.5 407.282   4
   6   1  -5 35101.8 571.545   4
   6   1  -5 35426.8 572.125   6
   6  -1  -5 35392.8 595.669   4
   6   1  -4 197.437 65.5623   4
   6   1  -4 83.9360 41.4816   6
   6  -1  -4 68.0786 39.2669   6
   6  -1  -4 42.2062 48.6328   4
   6   1  -3 81518.5 840.608   4
   6  -1  -3 81715.1 867.425   4
   6   1  -3 79346.7 672.649   6
   6  -1  -3 79637.4 622.358   6
   6   1  -2 4582.95 208.711   4
   6  -1  -2 4812.22 219.385   4
   6   1  -2 4492.80 141.118   6
   6  -1  -2 4511.83 119.871   6
   6   1  -1 85860.1 549.765   6
   6  -1  -1 87224.7 915.411   4
   6   1   0 1384.58 76.7517   6
   6  -1   2 107127. 998.570   5
   6  -2 -13 1327.17 208.147   4
   6  -2 -13 1389.06 220.370   5
   6   2 -12 1615.08 193.008   4
   6  -2 -12 1731.51 220.604   4
   6  -2 -12 1492.35 202.793   5
   6   2 -11 7210.73 356.395   4
   6  -2 -11 6682.40 373.058   4
   6  -2 -11 6433.49 360.476   5
   6   2 -10 1073.66 147.453   4
   6  -2 -10 1139.51 155.037   4
   6  -2 -10 731.675 126.440   5
   6  -2  -9 28685.3 666.868   4
   6  -2  -9 29098.0 634.012   5
   6   2  -9 29935.8 634.247   4
   6   2  -8-10.5111 58.2688   4
   6  -2  -8 91.1659 79.9898   4
   6  -2  -8 24.7825 56.1140   5
   6   2  -7 19011.0 450.481   4
   6  -2  -7 18900.1 491.990   4
   6   2  -6 4676.73 218.939   4
   6   2  -6 4794.78 244.914   6
   6  -2  -6 4833.14 242.154   4
   6   2  -5 12516.5 335.905   4
   6   2  -5 12092.1 343.051   6
   6  -2  -5 12004.0 357.261   4
   6   2  -4 23796.4 454.132   4
   6   2  -4 23173.7 427.377   6
   6  -2  -4 23529.2 479.869   4
   6   2  -3 19853.9 411.625   4
   6  -2  -3 20169.2 441.265   4
   6   2  -3 19595.9 352.031   6
   6  -2  -3 19727.2 302.062   6
   6   2  -2 544.370 87.8115   4
   6   2  -2 830.854 76.7254   6
   6  -2  -2 691.359 48.7233   6
   6  -2  -2 584.129 86.0777   4
   6   2  -1 10522.0 215.048   6
   6  -2  -1 10164.9 319.361   4
   6   2   0 1789.71 94.6988   6
   6  -2   1 52647.5 612.282   5
   6  -2   2 8247.47 276.559   5
   6  -2   3 93336.9 1020.53   5
   6  -3 -13 1248.72 193.493   4
   6  -3 -13 1122.83 192.231   5
   6   3 -12 10321.0 436.080   4
   6  -3 -12 10683.9 499.107   4
   6   3 -12 10680.7 549.744   6
   6  -3 -12 9678.63 465.788   5
   6   3 -11-27.5584 76.2474   4
   6  -3 -11-121.132 86.5839   4
   6   3 -11 172.326 114.027   6
   6  -3 -11 92.7467 92.3278   5
   6  -3 -10 4524.44 296.506   4
   6  -3 -10 4382.71 273.433   5
   6   3 -10 4452.20 259.526   4
   6   3  -9 250.209 87.9270   4
   6  -3  -9 184.119 96.1391   4
   6   3  -9 246.544 112.515   6
   6  -3  -9 317.370 96.4030   5
   6  -3  -8 16161.0 490.042   4
   6   3  -8 15101.3 497.165   6
   6  -3  -8 15207.2 412.534   5
   6   3  -8 15966.2 428.550   4
   6  -3  -7 954.638 131.364   4
   6   3  -7 815.749 134.359   6
   6  -3  -7 695.002 89.4106   5
   6   3  -7 908.591 110.382   4
   6   3  -6 12247.9 335.613   4
   6   3  -6 12902.2 393.198   6
   6  -3  -6 12780.0 392.013   4
   6   3  -5 6147.17 233.299   4
   6   3  -5 6048.30 250.545   6
   6  -3  -5 6041.05 260.283   4
   6   3  -4 1622.92 124.234   4
   6   3  -4 2031.66 139.080   6
   6  -3  -4 1989.70 153.537   4
   6   3  -3 201.858 60.4366   4
   6   3  -3 238.815 54.5161   6
   6  -3  -3 249.005 73.9930   4
   6   3  -2 19689.2 332.592   6
   6  -3  -2 20045.4 444.160   4
   6  -3  -2 18791.0 205.999   6
   6   3  -1 4651.50 158.346   6
   6  -3  -1 4124.43 210.448   4
   6   3   0 7984.98 206.197   6
   6  -3   1 13659.8 307.610   5
   6  -3   2 62446.6 747.274   5
   6  -3   3 2989.05 188.181   5
   6  -4 -13-111.998 128.271   4
   6  -4 -13 184.646 122.785   5
   6  -4 -12 3488.26 300.984   4
   6   4 -12 2947.57 307.902   6
   6  -4 -12 2962.46 270.447   5
   6   4 -11 1493.26 165.963   4
   6  -4 -11 1289.72 179.911   4
   6   4 -11 1220.16 197.499   6
   6  -4 -11 1283.44 166.935   5
   6   4 -10-2.45043 67.3541   4
   6  -4 -10 55.0178 85.2057   4
   6   4 -10-56.2076 100.381   6
   6  -4 -10 21.1156 74.8433   5
   6  -4  -9 12033.7 455.620   4
   6   4  -9 11426.8 468.500   6
   6  -4  -9 11542.5 395.602   5
   6   4  -9 11890.4 383.039   4
   6   4  -8 140.948 69.2211   4
   6  -4  -8 68.7155 79.6280   4
   6   4  -8-15.5682 81.9428   6
   6  -4  -8 64.0291 54.8348   5
   6   4  -7 52650.4 864.348   6
   6   4  -7 53111.8 711.565   4
   6  -4  -7 53230.8 677.016   5
   6  -4  -7 55165.6 868.129   4
   6  -4  -6 1345.29 144.458   4
   6   4  -6 1447.93 120.640   4
   6   4  -6 1013.34 123.027   6
   6   4  -5 7300.10 249.071   4
   6   4  -5 7072.19 274.251   6
   6  -4  -5 7500.49 296.438   4
   6   4  -4 12872.4 322.262   4
   6   4  -4 13189.2 343.128   6
   6  -4  -4 13364.2 375.579   4
   6   4  -3 2319.47 144.571   4
   6   4  -3 2458.04 140.479   6
   6  -4  -3 2421.89 168.878   4
   6   4  -2 53327.1 584.879   6
   6  -4  -2 52247.5 723.836   4
   6   4  -1 47034.8 530.844   6
   6  -4  -1 48231.9 703.933   4
   6   4   0 31351.9 437.663   6
   6  -4   1 265.967 52.0584   5
   6  -4   2 70004.3 785.601   5
   6  -4   3 44447.7 700.637   5
   6  -5 -13 1725.54 238.344   4
   6  -5 -13 1538.88 218.803   5
   6  -5 -12 480.368 143.373   4
   6   5 -12 706.218 185.424   6
   6  -5 -12 555.801 137.557   5
   6  -5 -11 3551.68 287.992   4
   6   5 -11 3450.06 315.152   6
   6  -5 -11 3475.85 263.361   5
   6   5 -11 3559.61 239.470   4
   6   5 -10 309.095 83.5055   4
   6  -5 -10 415.280 124.433   4
   6   5 -10 462.984 139.763   6
   6  -5 -10 192.441 86.7108   5
   6  -5  -9 5408.40 320.309   4
   6   5  -9 5520.19 337.224   6
   6   5  -9 5718.38 261.517   4
   6  -5  -9 5529.18 275.123   5
   6  -5  -8 1979.06 187.241   4
   6   5  -8 1723.22 183.448   6
   6   5  -8 1940.87 147.076   4
   6  -5  -8 1839.88 151.115   5
   6  -5  -7 6041.69 304.777   4
   6   5  -7 5739.54 299.540   6
   6   5  -7 5900.78 234.654   4
   6  -5  -7 5916.54 227.842   5
   6  -5  -6 710.295 115.019   4
   6   5  -6 657.343 113.342   6
   6   5  -6 782.880 93.3437   4
   6  -5  -6 710.811 75.9620   5
   6   5  -5 16265.7 358.006   4
   6   5  -5 16157.8 426.113   6
   6  -5  -5 15993.6 434.710   4
   6   5  -4 13935.6 331.125   4
   6   5  -4 14320.3 367.025   6
   6  -5  -4 14789.4 403.789   4
   6   5  -3 25330.5 450.283   4
   6   5  -3 25410.4 451.515   6
   6  -5  -3 25114.4 512.202   4
   6  -5  -2 6411.58 119.402   6
   6   5  -2 7586.50 234.920   6
   6  -5  -2 6793.28 271.753   4
   6   5  -1 47917.1 569.375   6
   6  -5  -1 46450.7 693.850   4
   6  -5   0 450.794 48.3301   5
   6  -5   0 517.448 88.5674   4
   6  -5   1 142747. 968.389   5
   6   5   1 141649. 1041.46   6
   6  -5   2 5743.49 227.483   5
   6  -5   3 26521.5 538.744   5
   6  -6 -13 6942.52 447.879   4
   6  -6 -13 6704.20 413.193   5
   6  -6 -12 2480.55 262.973   4
   6   6 -12 2998.96 312.906   6
   6  -6 -12 2753.28 252.059   5
   6  -6 -11 1947.75 227.835   4
   6   6 -11 2266.81 261.444   6
   6  -6 -11 2222.25 216.720   5
   6   6 -10 564.262 105.968   4
   6  -6 -10 531.776 131.390   4
   6   6 -10 394.868 127.187   6
   6  -6 -10 312.323 89.6105   5
   6  -6  -9 5398.29 321.970   4
   6   6  -9 5458.75 339.114   6
   6   6  -9 5770.05 250.995   4
   6  -6  -9 5400.00 271.570   5
   6  -6  -8 841.234 140.487   4
   6   6  -8 870.417 151.630   6
   6   6  -8 766.298 98.5303   4
   6  -6  -8 552.318 90.4480   5
   6  -6  -7 11205.6 411.823   4
   6   6  -7 11330.8 311.577   4
   6   6  -7 11188.7 415.886   6
   6  -6  -7 11099.0 304.166   5
   6  -6  -6 685.644 125.868   4
   6   6  -6 471.609 78.0409   4
   6   6  -6 572.674 119.111   6
   6  -6  -6 371.010 55.7205   5
   6   6  -5 27038.7 452.570   4
   6   6  -5 27146.9 555.763   6
   6  -6  -5 27439.8 580.681   4
   6   6  -4 40958.6 555.323   4
   6   6  -4 42315.0 645.071   6
   6  -6  -4 42935.8 695.512   4
   6  -6  -3 39346.4 437.737   6
   6   6  -3 39353.1 583.035   6
   6  -6  -3 40542.1 658.921   4
   6   6  -2 95574.6 858.383   6
   6  -6  -2 97035.0 1014.19   4
   6   6  -1 4550.59 192.056   6
   6  -6  -1 4299.09 219.351   4
   6  -6   0 62221.7 511.043   5
   6   6   0 62408.0 691.300   6
   6  -6   0 62836.6 832.930   4
   6  -6   1 7276.03 220.441   5
   6   6   1 8602.98 277.823   6
   6  -6   2 64018.9 746.085   5
   6  -6   3 12585.3 374.343   5
   6  -7 -13 422.390 162.349   4
   6  -7 -12 2696.25 288.151   4
   6   7 -12 1967.68 256.009   6
   6  -7 -12 2660.66 248.079   5
   6  -7 -11 959.948 177.234   4
   6   7 -11 878.040 191.869   6
   6  -7 -11 765.872 139.730   5
   6  -7 -10 20324.2 656.066   4
   6   7 -10 21045.7 693.700   6
   6   7 -10 20594.1 483.950   4
   6  -7 -10 20290.8 560.978   5
   6  -7  -9 1435.27 181.028   4
   6   7  -9 1795.69 144.821   4
   6   7  -9 1397.80 191.146   6
   6  -7  -9 1687.15 155.854   5
   6  -7  -8 27354.2 676.767   4
   6   7  -8 26963.9 697.844   6
   6   7  -8 27787.5 496.706   4
   6  -7  -8 27634.0 538.107   5
   6  -7  -7 3108.18 228.189   4
   6   7  -7 3092.08 160.380   4
   6   7  -7 3165.19 236.244   6
   6  -7  -7 3107.42 162.851   5
   6   7  -6 71637.6 731.112   4
   6   7  -6 70850.8 979.643   6
   6  -7  -6 70915.8 641.078   5
   6  -7  -6 73132.5 1008.95   4
   6   7  -5 1582.05 114.226   4
   6   7  -5 1436.30 147.676   6
   6  -7  -5 1527.51 76.2274   5
   6  -7  -5 1765.60 164.780   4
   6   7  -4 26162.2 521.637   6
   6  -7  -4 27341.1 565.933   4
   6  -7  -3 6461.34 185.780   6
   6   7  -3 6511.35 255.931   6
   6  -7  -3 5901.12 263.646   4
   6  -7  -2 40586.6 338.505   6
   6   7  -2 42721.6 607.620   6
   6  -7  -2 44007.5 692.256   4
   6   7  -1 32512.1 520.095   6
   6  -7  -1 32635.7 592.806   4
   6  -7   0 15859.4 258.931   5
   6   7   0 17741.7 395.250   6
   6  -7   0 16563.2 432.499   4
   6  -7   1 15359.6 317.729   5
   6   7   1 14811.6 368.212   6
   6  -7   2 25035.0 471.802   5
   6   7   2 24963.7 546.738   2
   6  -7   3 14660.0 402.402   5
   6  -8 -13 7726.50 486.323   4
   6  -8 -12 763.854 182.547   4
   6   8 -12 530.413 172.696   6
   6  -8 -12 302.972 102.480   5
   6  -8 -11 16526.0 631.230   4
   6   8 -11 16295.9 652.653   6
   6  -8 -11 15469.1 532.075   5
   6  -8 -10 8325.59 429.711   4
   6   8 -10 8370.81 448.860   6
   6  -8 -10 7708.10 348.774   5
   6  -8  -9 7457.14 389.890   4
   6   8  -9 6858.20 381.270   6
   6   8  -9 6928.62 257.328   4
   6  -8  -9 6719.10 297.784   5
   6  -8  -8 1921.14 203.243   4
   6   8  -8 1727.38 126.624   4
   6   8  -8 1573.39 197.130   6
   6  -8  -8 1589.66 136.163   5
   6  -8  -7 391.261 68.2912   5
   6  -8  -7 85.4358 80.9617   4
   6   8  -7 253.858 57.5927   4
   6   8  -7 268.295 96.8612   6
   6  -8  -6 454.267 119.150   4
   6   8  -6 315.421 58.2957   4
   6   8  -6 452.671 114.980   6
   6  -8  -6 314.625 53.6157   5
   6   8  -5 25133.5 410.860   4
   6   8  -5 24969.7 562.199   6
   6  -8  -5 23882.1 287.273   5
   6  -8  -5 26143.9 587.137   4
   6  -8  -4 6375.34 227.978   6
   6   8  -4 6443.50 273.036   6
   6  -8  -4 6236.42 276.895   4
   6  -8  -3 39451.6 460.360   6
   6   8  -3 40026.8 636.381   6
   6  -8  -3 41397.7 688.573   4
   6  -8  -2 18229.4 252.019   6
   6   8  -2 19553.1 430.589   6
   6  -8  -2 18747.4 459.752   4
   6  -8  -2 18568.9 432.593   1
   6   8  -1 7404.68 268.592   6
   6  -8  -1 6064.31 264.101   4
   6  -8   0 25200.5 328.844   5
   6   8   0 25821.1 492.916   6
   6  -8   0 25793.0 543.042   4
   6  -8   1 6613.37 210.886   5
   6   8   1 7326.74 279.601   6
   6  -8   2 23771.1 457.373   5
   6   8   2 23004.5 518.663   2
   6  -8   3 553.545 92.1115   5
   6  -9 -12 1088.61 207.027   4
   6   9 -12 1007.45 207.578   6
   6  -9 -11 1146.68 190.677   4
   6   9 -11 1278.69 211.565   6
   6  -9 -11 1125.92 158.599   5
   6  -9 -10 10777.5 496.574   4
   6   9 -10 10529.8 509.578   6
   6  -9 -10 9973.66 396.936   5
   6  -9  -9 85.9253 58.1542   5
   6  -9  -9 213.655 112.979   4
   6   9  -9 110.598 111.040   6
   6   9  -9 200.850 62.9281   4
   6  -9  -8 6551.95 354.102   4
   6   9  -8 6719.81 226.676   4
   6   9  -8 6636.04 366.165   6
   6  -9  -8 6463.33 263.961   5
   6  -9  -7 75.8390 45.1148   5
   6  -9  -7 82.3394 75.3801   4
   6   9  -7 148.044 46.6831   4
   6   9  -7 141.955 90.9255   6
   6  -9  -6 1217.26 155.850   4
   6   9  -6 1012.18 86.5883   4
   6   9  -6 1150.65 152.626   6
   6  -9  -6 960.118 80.6603   5
   6  -9  -5 250.230 92.0933   4
   6  -9  -5 343.026 97.2043   6
   6   9  -5 406.018 122.037   6
   6  -9  -5 165.655 33.7609   5
   6  -9  -4 2485.59 145.615   6
   6   9  -4 2358.66 171.644   6
   6  -9  -4 2538.46 183.816   4
   6  -9  -3 27336.3 400.595   6
   6   9  -3 27938.0 554.225   6
   6  -9  -3 26609.8 561.238   4
   6  -9  -2 1280.83 77.5179   6
   6   9  -2 1476.46 138.204   6
   6  -9  -2 1451.17 146.991   4
   6   9  -1 38890.5 624.108   6
   6  -9  -1 39599.5 672.281   4
   6  -9  -1 35646.1 290.085   6
   6  -9   0 3207.83 122.375   5
   6   9   0 3514.32 205.597   6
   6  -9   0 3197.33 198.622   4
   6  -9   1 65333.6 661.861   5
   6   9   1 64304.1 826.231   6
   6  -9   2 7068.02 252.438   5
   6   9   2 6828.82 286.543   2
   6  -9   3 25516.8 531.613   5
   6 -10 -12 5160.62 403.966   4
   6  10 -12 5170.03 416.017   6
   6 -10 -11-42.9687 74.3316   5
   6 -10 -11 109.650 128.178   4
   6  10 -11 71.5063 114.425   6
   6 -10 -10 4175.95 332.602   4
   6  10 -10 3967.51 328.305   6
   6 -10 -10 3679.92 243.155   5
   6 -10  -9 3897.52 292.948   4
   6  10  -9 3955.95 305.579   6
   6 -10  -9 3845.30 228.888   5
   6 -10  -8 19495.8 606.378   4
   6  10  -8 19995.8 362.348   4
   6  10  -8 19519.1 615.799   6
   6 -10  -8 20206.4 458.804   5
   6 -10  -7 2351.75 213.823   4
   6  10  -7 2235.46 119.411   4
   6  10  -7 1897.75 196.082   6
   6 -10  -7 2063.04 134.408   5
   6  10  -6 8868.68 373.893   6
   6 -10  -6 8741.98 374.474   4
   6 -10  -6 8706.99 227.462   5
   6 -10  -5 3056.34 183.452   6
   6  10  -5 3110.48 219.525   6
   6 -10  -5 3338.63 227.459   4
   6 -10  -5 3196.61 110.104   5
   6 -10  -4 1902.91 133.372   6
   6  10  -4 2116.34 170.811   6
   6 -10  -4 2142.12 176.639   4
   6 -10  -3 3774.46 160.659   6
   6  10  -3 3802.91 220.056   6
   6 -10  -3 3869.76 225.632   4
   6  10  -2 96933.2 1026.47   6
   6 -10  -2 95791.3 659.407   6
   6 -10  -2 98546.6 1084.59   4
   6 -10  -1 9.73287 13.1212   5
   6  10  -1 139.936 66.1887   6
   6 -10  -1 46.9058 62.5569   4
   6 -10  -1 130.040 29.3289   6
   6 -10   0 118217. 751.810   5
   6  10   0 115375. 1117.99   6
   6 -10   0 115183. 1169.74   4
   6 -10   1 3486.39 160.719   5
   6  10   1 3687.55 216.273   6
   6 -10   2 63896.8 769.566   5
   6  10   2 61655.7 882.994   6
   6  10   2 61359.6 843.265   2
   6 -11 -12 12349.0 600.898   4
   6 -11 -11 87.2078 117.798   4
   6  11 -11 195.120 121.329   6
   6 -11 -10 6914.88 416.049   4
   6  11 -10 6278.02 412.435   6
   6 -11 -10 6408.92 321.152   5
   6 -11  -9 47.9717 59.8667   5
   6 -11  -9 141.475 122.014   4
   6  11  -9 168.543 121.514   6
   6 -11  -8 227.619 70.2439   5
   6 -11  -8 39.9968 92.0115   4
   6  11  -8 133.564 42.8290   4
   6  11  -8 135.393 107.513   6
   6 -11  -7 4462.75 195.985   5
   6 -11  -7 4585.33 292.186   4
   6  11  -7 4281.05 285.214   6
   6 -11  -6 25831.3 394.162   5
   6  11  -6 25781.2 644.145   6
   6 -11  -6 25637.0 643.609   4
   6 -11  -5 2911.16 109.133   5
   6 -11  -5 3317.25 195.523   6
   6  11  -5 3124.40 224.225   6
   6 -11  -5 3230.78 232.319   4
   6 -11  -4 942.650 105.650   6
   6  11  -4 1288.24 151.745   6
   6 -11  -4 1095.87 136.684   4
   6 -11  -3 13658.8 311.519   6
   6  11  -3 14136.1 420.795   6
   6 -11  -3 13515.5 415.947   4
   6  11  -2 5032.37 251.533   6
   6 -11  -2 5111.29 166.124   6
   6 -11  -2 5209.41 261.082   4
   6 -11  -1 10432.1 177.414   5
   6  11  -1 10951.1 361.780   6
   6 -11  -1 11649.3 382.681   4
   6 -11  -1 11010.7 209.340   6
   6 -11   0 6705.87 185.493   5
   6  11   0 7723.63 313.309   6
   6 -11   0 6321.89 282.819   4
   6 -11   1 2765.87 145.360   5
   6  11   1 3370.96 218.706   6
   6 -11   1 2454.88 182.872   4
   6 -11   2 9757.31 304.545   5
   6  11   2 10573.6 384.851   6
   6  11   2 9579.30 331.865   2
   6 -12 -12 1163.77 219.787   4
   6 -12 -11 4772.49 377.283   4
   6  12 -11 4690.74 375.649   6
   6 -12 -10-12.9032 68.8269   5
   6 -12 -10 141.130 131.595   4
   6  12 -10 119.875 112.422   6
   6 -12  -9 25490.7 752.525   4
   6  12  -9 24221.8 745.493   6
   6 -12  -9 24948.7 568.823   5
   6 -12  -8 3287.30 194.151   5
   6 -12  -8 3500.78 273.031   4
   6  12  -8 3306.79 270.302   6
   6 -12  -7 1817.41 128.239   5
   6 -12  -7 2018.60 207.158   4
   6  12  -7 1880.77 197.714   6
   6 -12  -6 7184.20 214.757   5
   6  12  -6 7097.53 353.452   6
   6 -12  -6 7202.34 354.034   4
   6 -12  -5 39227.1 407.061   5
   6 -12  -5 37451.5 654.762   6
   6  12  -5 39941.9 789.653   6
   6 -12  -5 40220.1 787.773   4
   6 -12  -4 340.846 32.1524   5
   6 -12  -4 348.352 75.7710   6
   6  12  -4 267.337 100.365   6
   6 -12  -4 500.338 108.518   4
   6 -12  -3 43467.4 572.299   6
   6  12  -3 42988.5 752.906   6
   6 -12  -3 43673.4 758.626   4
   6  12  -2 15099.8 437.355   6
   6 -12  -2 15520.5 301.450   6
   6 -12  -2 15579.8 449.415   4
   6 -12  -1 2392.68 94.8871   5
   6  12  -1 3287.20 217.984   6
   6 -12  -1 2341.82 184.339   4
   6 -12  -1 3054.52 123.702   6
   6 -12  -1 2454.62 162.196   1
   6 -12   0 11230.1 248.577   5
   6  12   0 10324.0 369.628   6
   6 -12   0 11098.2 378.566   4
   6 -12   0 10679.5 219.583   6
   6 -12   1 222.812 57.0092   5
   6 -12   1 228.467 76.6311   4
   6 -12   2 3385.12 183.341   5
   6  12   2 3506.42 239.102   6
   6  12   2 3237.02 192.488   2
   6 -13 -11-145.561 125.026   4
   6  13 -11 295.232 140.843   6
   6 -13 -10 8012.29 457.984   4
   6  13 -10 7192.27 435.007   6
   6 -13  -9 68.1769 76.8857   5
   6 -13  -9 304.350 144.115   4
   6  13  -9 48.3899 103.915   6
   6 -13  -8 303.513 64.4909   5
   6 -13  -8 485.824 127.603   4
   6  13  -8 409.993 126.466   6
   6 -13  -7 18.7488 41.6165   5
   6 -13  -7 34.2767 93.4324   4
   6  13  -7 5.23877 89.9459   6
   6 -13  -6 22351.8 383.626   5
   6  13  -6 22092.5 625.266   6
   6 -13  -6 22665.3 629.699   4
   6 -13  -5 1629.55 177.437   4
   6 -13  -5 1336.79 83.1879   5
   6  13  -5 1194.71 154.650   6
   6 -13  -4 19344.6 244.874   5
   6 -13  -4 20000.8 448.217   6
   6  13  -4 20444.1 554.567   6
   6 -13  -4 20740.4 551.819   4
   6 -13  -3 158.497 25.3515   5
   6 -13  -3 456.003 89.2240   6
   6  13  -3 433.267 128.026   6
   6 -13  -3 337.455 107.535   4
   6 -13  -2 1697.26 69.6971   5
   6  13  -2 2439.34 200.420   6
   6 -13  -2 2265.43 132.365   6
   6 -13  -2 2153.07 191.717   4
   6 -13  -1 26013.5 322.625   5
   6  13  -1 26838.5 600.969   6
   6 -13  -1 26383.5 584.995   4
   6 -13  -1 26110.0 381.316   6
   6 -13  -1 25742.5 515.655   1
   6 -13   0 10943.6 254.307   5
   6  13   0 11027.2 391.553   6
   6 -13   0 10689.8 373.037   4
   6 -13   0 10968.4 242.104   6
   6 -13   1 19714.2 395.140   5
   6  13   1 18946.3 517.925   6
   6 -13   1 19295.8 505.892   4
   6 -13   2 759.417 94.9340   5
   6  13   2 754.425 135.252   6
   6  13   2 592.690 93.5358   2
   6 -14 -11 5040.63 394.384   4
   6  14 -11 5275.81 402.970   6
   6 -14 -10 1926.64 245.529   4
   6  14 -10 2487.22 276.897   6
   6 -14  -9 7893.40 327.994   5
   6 -14  -9 7823.68 433.888   4
   6  14  -9 7892.75 447.651   6
   6 -14  -8-30.4270 53.2830   5
   6 -14  -8-42.2873 88.9237   4
   6  14  -8 55.7983 93.7355   6
   6 -14  -7 4573.90 311.582   4
   6 -14  -7 4498.60 203.647   5
   6  14  -7 4066.99 298.540   6
   6 -14  -6 178.939 113.098   4
   6 -14  -6 70.3377 43.2132   5
   6  14  -6 217.186 119.146   6
   6 -14  -5 2102.06 195.798   4
   6 -14  -5 2213.07 110.125   5
   6  14  -5 2165.33 203.929   6
   6 -14  -4 7601.30 174.730   5
   6 -14  -4 7844.97 292.817   6
   6  14  -4 8063.33 362.310   6
   6 -14  -4 7820.12 348.229   4
   6 -14  -3 4609.12 123.955   5
   6 -14  -3 5158.78 216.032   6
   6  14  -3 5129.64 285.576   6
   6 -14  -3 5079.08 278.832   4
   6 -14  -2 43854.1 395.621   5
   6  14  -2 48402.9 841.315   6
   6 -14  -2 46261.9 585.121   6
   6 -14  -2 45573.7 786.622   4
   6 -14  -2 45624.2 397.002   5
   6 -14  -1 648.256 64.8402   5
   6  14  -1 1259.12 159.011   6
   6 -14  -1 923.239 92.5097   6
   6 -14  -1 470.964 129.585   4
   6 -14   0 379.346 56.0085   5
   6  14   0 348.223 97.9483   6
   6 -14   0 142.178 65.6113   4
   6 -14   0 376.201 55.7090   6
   6 -14   1 184.199 69.5627   5
   6 -14   1 307.804 94.0138   4
   6 -14   2 4279.23 215.714   5
   6  14   2 4410.23 276.731   6
   6  14   2 4219.65 217.989   2
   6 -15 -11 2894.99 318.803   4
   6  15 -11 2956.84 313.840   6
   6 -15 -10 615.956 174.671   4
   6  15 -10 522.910 168.888   6
   6 -15  -9 461.205 153.088   4
   6  15  -9 439.341 147.148   6
   6 -15  -8 77.7376 55.9298   5
   6 -15  -8-50.4137 100.899   4
   6  15  -8-115.711 120.676   6
   6 -15  -7 6695.26 376.493   4
   6 -15  -7 6918.14 255.458   5
   6  15  -7 7186.13 393.845   6
   6 -15  -6 624.591 141.241   4
   6 -15  -6 486.498 68.7512   5
   6  15  -6 552.652 135.216   6
   6 -15  -5 11801.4 262.112   5
   6  15  -5 11748.8 468.014   6
   6 -15  -5 11746.5 449.799   4
   6 -15  -4 66.7777 32.0736   5
   6 -15  -4 15.0842 64.0359   6
   6  15  -4 52.9865 85.0564   6
   6 -15  -4-19.8232 80.0580   4
   6 -15  -3 13164.8 233.256   5
   6 -15  -3 13619.4 361.486   6
   6  15  -3 14187.9 481.838   6
   6 -15  -3 13532.5 449.872   4
   6 -15  -3 13156.5 223.537   5
   6  15  -2 1089.99 141.920   6
   6 -15  -2 1005.33 99.9102   6
   6 -15  -2 1128.54 145.723   4
   6 -15  -2 1053.04 71.2736   5
   6 -15  -1 70153.3 610.697   5
   6  15  -1 70358.9 1036.57   6
   6 -15  -1 70140.0 978.662   4
   6 -15  -1 68208.8 704.113   6
   6 -15   0 2010.81 121.532   5
   6  15   0 1871.95 180.232   6
   6 -15   0 1864.78 164.970   4
   6 -15   0 1880.60 118.482   6
   6 -15   1 136466. 1086.92   5
   6  15   1 134735. 1462.02   6
   6 -15   1 135532. 1362.46   4
   6 -15   2 13363.6 382.962   5
   6  15   2 13244.5 479.294   6
   6  15   2 12792.4 370.081   2
   6 -16 -10 56.5361 127.360   4
   6  16 -10 167.706 143.540   6
   6 -16  -9 8590.14 468.094   4
   6  16  -9 8700.09 482.731   6
   6 -16  -8 721.308 152.045   4
   6  16  -8 714.973 162.226   6
   6 -16  -7 10355.2 472.455   4
   6 -16  -7 10313.5 317.688   5
   6  16  -7 10049.5 473.377   6
   6 -16  -6 1681.29 200.919   4
   6 -16  -6 1519.36 116.679   5
   6  16  -6 1379.00 188.592   6
   6 -16  -5 9766.62 253.489   5
   6  16  -5 9653.01 435.946   6
   6 -16  -5 9723.81 419.320   4
   6 -16  -4 8483.24 214.292   5
   6  16  -4 8472.24 392.212   6
   6 -16  -4 8458.95 379.363   4
   6 -16  -3 86.2280 34.2100   5
   6  16  -3 539.680 146.650   6
   6 -16  -3 332.829 103.579   6
   6 -16  -3 130.297 46.0385   5
   6 -16  -3-131.730 102.123   4
   6  16  -2 4454.53 278.141   6
   6 -16  -2 4324.70 202.077   6
   6 -16  -2 4757.41 272.631   4
   6 -16  -2 4387.79 148.294   5
   6  16  -1 2176.43 205.792   6
   6 -16  -1 2086.36 186.435   4
   6 -16  -1 2240.01 144.749   6
   6 -16  -1 1957.92 113.649   5
   6 -16   0 2050.41 130.185   5
   6  16   0 1822.76 185.593   6
   6 -16   0 1853.44 166.976   4
   6 -16   0 1901.24 123.401   6
   6 -16   1 3442.91 181.890   5
   6  16   1 3603.11 265.415   6
   6 -16   1 3211.14 230.243   4
   6  16   2 35996.1 804.273   6
   6  16   2 37052.3 617.686   2
   6 -17 -10 9278.19 512.181   4
   6  17 -10 9106.83 521.441   6
   6 -17  -9 2905.63 291.909   4
   6  17  -9 2940.42 294.260   6
   6 -17  -8 9097.56 472.620   4
   6  17  -8 9775.60 500.166   6
   6  17  -7 4441.79 327.780   6
   6 -17  -7 4326.37 324.738   4
   6 -17  -6 22066.1 428.953   5
   6  17  -6 21790.6 681.351   6
   6 -17  -6 22671.7 667.906   4
   6 -17  -5 596.108 138.974   4
   6 -17  -5 620.789 77.3511   5
   6  17  -5 504.513 138.528   6
   6 -17  -4 795.840 73.8729   5
   6  17  -4 799.672 156.576   6
   6 -17  -4 736.872 125.885   4
   6 -17  -3 5083.54 172.695   5
   6  17  -3 5036.72 312.125   6
   6 -17  -3 4953.99 286.094   4
   6 -17  -3 4801.74 161.811   5
   6  17  -2 9679.28 417.144   6
   6 -17  -2 9262.15 306.426   6
   6 -17  -2 9886.35 389.762   4
   6 -17  -2 9672.57 235.139   5
   6  17  -1 8205.50 385.207   6
   6 -17  -1 7516.67 335.261   4
   6 -17  -1 7996.19 271.258   6
   6 -17  -1 7982.15 232.491   5
   6 -17   0 2182.62 140.131   5
   6  17   0 2810.07 243.981   6
   6 -17   0 2031.22 180.823   4
   6 -17   0 2466.36 155.257   6
   6 -17   1 8474.38 291.830   5
   6  17   1 9172.90 413.285   6
   6 -17   1 8472.01 357.148   4
   6  17   2 2386.09 232.905   6
   6 -18 -10 1496.54 233.017   4
   6  18 -10 1565.90 255.020   6
   6 -18  -9 14825.2 625.235   4
   6  18  -9 14488.4 639.206   6
   6 -18  -8-57.0513 102.715   4
   6  18  -8-92.0340 120.657   6
   6  18  -7 22048.3 723.686   6
   6 -18  -7 22954.8 721.888   4
   6 -18  -6 1838.49 210.614   4
   6  18  -6 1991.94 223.044   6
   6 -18  -5 23989.1 429.259   5
   6  18  -5 23421.4 698.992   6
   6 -18  -5 23595.4 672.913   4
   6 -18  -4 517.668 68.3276   5
   6  18  -4 609.859 140.386   6
   6 -18  -4 436.487 116.934   4
   6 -18  -3 19809.5 360.651   5
   6  18  -3 20240.5 620.348   6
   6 -18  -3 20613.0 587.463   4
   6  18  -2 2332.38 229.972   6
   6 -18  -2 1982.92 188.935   4
   6  18  -1 4207.46 288.990   6
   6 -18  -1 3718.44 252.056   4
   6 -18  -1 3755.22 198.865   6
   6  18   0 9019.26 418.339   6
   6 -18   0 8172.37 351.798   4
   6  18   1 1228.43 191.860   6
   6 -18   1 960.277 143.065   4
   6  18   2 3901.08 295.340   6
   6 -19  -9 126.543 121.888   4
   6  19  -9 93.6241 117.088   6
   6 -19  -8 622.452 142.192   4
   6  19  -8 330.411 146.349   6
   6 -19  -7 434.668 157.467   4
   6  19  -7 199.510 110.346   6
   6  19  -6 3444.73 294.578   6
   6 -19  -6 3813.99 294.155   4
   6  19  -5 13975.8 556.235   6
   6 -19  -5 14345.3 534.789   4
   6 -19  -4 902.622 90.0210   5
   6  19  -4 843.052 154.565   6
   6 -19  -4 1040.91 160.542   4
   6 -19  -3 46476.1 585.051   5
   6  19  -3 48298.4 984.080   6
   6 -19  -3 47006.3 891.360   4
   6  19  -2 5428.46 335.090   6
   6 -19  -2 5315.00 305.496   4
   6  19  -1 34252.8 818.564   6
   6 -19  -1 34086.2 731.339   4
   6  19   0 314.472 122.661   6
   6 -19   0 62.8177 77.9211   4
   6  19   1 40340.6 894.535   6
   6 -19   1 40417.5 784.951   4
   6  19   2 2452.22 249.496   6
   6 -20  -9-196.126 158.595   4
   6  20  -9 101.455 136.726   6
   6 -20  -8-13.1184 111.321   4
   6  20  -8-54.7338 118.724   6
   6 -20  -7 936.113 173.165   4
   6  20  -7 972.302 178.546   6
   6 -20  -6 539.922 141.345   4
   6  20  -6 753.636 182.617   6
   6  20  -5 4676.65 342.061   6
   6 -20  -5 4547.16 322.413   4
   6  20  -4 10120.3 474.112   6
   6 -20  -4 9566.84 431.111   4
   6 -20  -3 5896.57 222.380   5
   6  20  -3 5942.58 363.987   6
   6 -20  -3 5808.97 330.443   4
   6  20  -2 13753.9 536.816   6
   6 -20  -2 13126.5 473.697   4
   6  20  -1 2025.18 222.044   6
   6 -20  -1 2285.83 203.467   4
   6  20   0 39408.6 907.781   6
   6 -20   0 38098.4 774.952   4
   6  20   1 962.162 176.176   6
   6 -20   1 1165.31 152.156   4
   6  20   2 34204.2 872.107   6
   6 -21  -9 407.252 166.920   4
   6  21  -9 455.233 170.147   6
   6  21  -8 12279.3 600.157   6
   6 -21  -8 12601.0 587.346   4
   6 -21  -7 1444.62 220.556   4
   6  21  -7 1347.02 208.781   6
   6  21  -6 13053.3 581.384   6
   6 -21  -6 13622.8 561.811   4
   6  21  -5 18370.2 669.248   6
   6 -21  -5 19071.6 631.580   4
   6  21  -4 5637.28 371.243   6
   6 -21  -4 5814.38 345.171   4
   6  21  -3 8474.11 438.903   6
   6 -21  -3 8863.26 408.749   4
   6  21  -2 4908.76 331.983   6
   6 -21  -2 4364.76 284.207   4
   6  21  -1 5725.08 360.695   6
   6 -21  -1 5941.74 317.514   4
   6  21   0 1231.36 190.390   6
   6 -21   0 855.101 139.147   4
   6  21   1 16773.3 614.348   6
   6 -21   1 17219.5 528.498   4
   6  21   2 18619.0 668.120   6
   6 -22  -8-7.65287 107.443   4
   6  22  -8 133.511 142.246   6
   6  22  -7 8256.91 490.525   6
   6 -22  -7 7556.20 446.006   4
   6 -22  -6 1914.85 234.568   4
   6  22  -6 1751.12 237.116   6
   6  22  -5 5827.11 390.966   6
   6 -22  -5 6329.10 379.317   4
   6  22  -4 159.350 131.922   6
   6 -22  -4 195.260 98.2340   4
   6  22  -3 12308.0 549.890   6
   6 -22  -3 12298.4 486.510   4
   6  22  -2 1008.14 182.968   6
   6 -22  -2 356.770 117.213   4
   6  22  -1 4375.72 329.252   6
   6 -22  -1 4643.07 291.021   4
   6  22   0 2227.94 241.114   6
   6 -22   0 1967.14 190.277   4
   6  22   1 694.228 160.555   6
   6 -22   1 425.921 107.582   4
   6  22   2 212.649 129.046   6
   6  23  -8 20051.3 794.822   6
   6 -23  -8 20131.6 760.330   4
   6 -23  -7 103.053 107.253   4
   6  23  -7-111.948 135.667   6
   6  23  -6 5267.91 396.620   6
   6 -23  -6 5216.87 372.030   4
   6 -23  -5 98.3910 106.726   4
   6  23  -5 174.736 133.959   6
   6  23  -4 1219.58 214.040   6
   6 -23  -4 1187.36 179.706   4
   6  23  -3 1566.70 213.882   6
   6 -23  -3 1581.74 202.968   4
   6  23  -2 2954.01 291.083   6
   6 -23  -2 2983.30 249.295   4
   6  23  -1 2987.41 282.569   6
   6 -23  -1 3173.97 246.173   4
   6  23   0 651.298 150.929   6
   6 -23   0 755.485 136.179   4
   6  23   1 5877.51 389.602   6
   6 -23   1 6182.41 329.808   4
   6  23   2 5342.28 387.439   6
   6 -24  -7 2590.19 276.880   4
   6  24  -7 3318.54 339.379   6
   6 -24  -6 1424.51 208.655   4
   6  24  -6 1457.30 233.011   6
   6  24  -5 821.370 183.105   6
   6 -24  -5 542.648 138.271   4
   6  24  -4 10798.2 543.854   6
   6 -24  -4 10488.9 478.814   4
   6  24  -3 692.808 174.271   6
   6 -24  -3 579.547 130.888   4
   6  24  -2 17396.2 670.501   6
   6 -24  -2 16193.2 560.167   4
   6  24  -1 1508.80 215.203   6
   6 -24  -1 1319.29 173.460   4
   6  24   0 18220.3 686.156   6
   6 -24   0 17873.7 565.164   4
   6  24   1 29.7873 111.698   6
   6 -24   1 7.79255 78.7557   4
   6  24   2 11352.8 562.641   6
   6 -25  -7 269.634 161.918   4
   6 -25  -6 1132.84 203.356   4
   6  25  -6 706.747 185.057   6
   6  25  -5 7779.71 488.029   6
   6 -25  -5 7657.96 438.080   4
   6  25  -4 2581.82 292.753   6
   6 -25  -4 2615.60 259.016   4
   6  25  -3 6651.29 435.009   6
   6 -25  -3 5596.60 349.957   4
   6  25  -2 523.260 158.550   6
   6 -25  -2 849.505 157.977   4
   6  25  -1 11747.0 568.223   6
   6 -25  -1 12396.5 489.502   4
   6  25   0 428.668 153.831   6
   6 -25   0 148.077 97.7816   4
   6  25   1 10369.1 541.071   6
   6 -25   1 10301.7 433.809   4
   6  25   2 1323.79 231.335   6
   6 -26  -6 4138.21 344.811   4
   6  26  -5 2712.07 299.501   6
   6 -26  -5 2504.75 260.008   4
   6  26  -4 5493.55 409.555   6
   6 -26  -4 5115.21 351.559   4
   6  26  -3 888.116 204.425   6
   6 -26  -3 627.828 147.396   4
   6  26  -2 6426.61 433.240   6
   6 -26  -2 6446.10 372.979   4
   6  26  -1 43.2536 115.658   6
   6 -26  -1 86.7549 98.1146   4
   6  26   0 17345.6 700.957   6
   6 -26   0 17601.5 579.149   4
   6  26   1 4061.87 366.141   6
   6  26   2 11702.0 602.860   6
   6 -27  -6 3536.42 328.653   4
   6 -27  -5 318.937 135.848   4
   6  27  -4 11005.5 586.760   6
   6 -27  -4 10665.3 512.022   4
   6  27  -3 1365.05 229.832   6
   6 -27  -3 1208.53 193.843   4
   6  27  -2 965.879 198.944   6
   6 -27  -2 500.453 129.403   4
   6  27  -1 568.746 176.398   6
   6 -27  -1 10.2618 84.9021   4
   6  27   0 1756.32 258.184   6
   6 -27   0 1335.33 174.543   4
   6  27   1 816.554 203.870   6
   6  27   2 6360.80 475.042   6
   6 -28  -5 2115.78 249.125   4
   6 -28  -4 2396.51 263.107   4
   6 -28  -3 9321.15 471.586   4
   6  28  -2 4533.45 390.406   6
   6 -28  -2 3957.89 301.951   4
   6  28  -1 4336.24 389.057   6
   6 -28  -1 5211.33 336.220   4
   6  28   0 501.137 180.276   6
   6 -29  -5 305.220 123.704   4
   6 -29  -4 7166.63 435.306   4
   6 -29  -3 4559.81 343.846   4
   6 -29  -2 1067.30 181.391   4
   6 -30  -4 7234.92 445.750   4
   6 -30  -3 287.969 125.831   4
   7   0 -13 246.030 133.256   4
   7   0 -12 6595.88 381.022   4
   7   0 -11 2.90539 99.6355   4
   7   0 -10 12454.4 462.167   4
   7   0  -9 198.898 104.021   4
   7   0  -8 25058.4 589.807   4
   7   0  -7 191.297 93.6349   4
   7   0  -6 37690.0 664.233   4
   7   0  -6 38577.0 653.590   6
   7   0  -5 5.55879 64.1100   4
   7   0  -5 13.9453 49.7404   6
   7   0  -4 70676.3 872.259   4
   7   0  -4 68660.5 694.415   6
   7   0  -3 17.9976 58.5684   4
   7   0  -3 38.7530 34.8021   6
   7   0  -2 11607.0 356.700   4
   7   0  -2 11108.1 204.780   6
   7   0  -1 136.256 32.8832   6
   7  -1 -13 1960.93 239.112   4
   7   1 -12 4045.58 296.508   4
   7  -1 -12 4345.51 316.990   4
   7   1 -11 3728.58 271.287   4
   7  -1 -11 3879.77 287.408   4
   7   1 -10 577.577 121.989   4
   7  -1 -10 424.622 121.445   4
   7   1  -9 26186.8 621.692   4
   7  -1  -9 25558.7 640.043   4
   7  -1  -8 265.132 88.5037   4
   7   1  -8 182.730 81.1545   4
   7   1  -7 32669.4 630.550   4
   7   1  -7 31821.0 657.844   6
   7  -1  -7 32409.0 651.590   4
   7   1  -6 483.462 93.0265   6
   7   1  -6 557.459 104.936   4
   7  -1  -6 411.012 101.069   4
   7   1  -5 38846.6 647.655   4
   7  -1  -5 38526.7 666.549   4
   7   1  -5 38733.9 598.126   6
   7  -1  -5 38159.6 576.430   6
   7   1  -4 15192.6 400.125   4
   7  -1  -4 15281.1 414.540   4
   7   1  -4 15428.4 342.713   6
   7  -1  -4 14794.0 317.928   6
   7   1  -3 4969.57 233.123   4
   7  -1  -3 4984.97 237.966   4
   7   1  -3 4551.86 164.109   6
   7  -1  -3 4816.09 151.705   6
   7   1  -2 23752.8 505.803   4
   7  -1  -2 24026.4 518.252   4
   7   1  -2 23616.3 325.278   6
   7  -1  -2 22550.2 261.034   6
   7   1  -1 24351.5 302.832   6
   7  -1   2 2362.67 163.622   5
   7  -2 -13 7482.91 438.289   4
   7   2 -12 2050.31 213.762   4
   7  -2 -12 2235.46 243.193   4
   7   2 -12 1432.49 222.505   6
   7   2 -11 2234.86 212.575   4
   7  -2 -11 2164.81 230.950   4
   7   2 -11 1938.22 232.812   6
   7   2 -10 544.213 122.372   4
   7  -2 -10 552.512 134.600   4
   7   2 -10 414.655 125.148   6
   7   2  -9 1486.22 166.373   4
   7  -2  -9 1615.50 182.817   4
   7   2  -9 1394.93 181.893   6
   7  -2  -8 1198.33 160.114   4
   7   2  -8 1219.66 155.348   6
   7   2  -8 1037.73 132.822   4
   7   2  -7 4040.27 223.564   4
   7   2  -7 4043.24 244.005   6
   7  -2  -7 4181.36 246.586   4
   7   2  -6 54.7738 58.5353   6
   7   2  -6 225.737 77.4886   4
   7  -2  -6 174.884 77.4631   4
   7   2  -5 4447.59 221.814   4
   7  -2  -5 4320.29 232.866   4
   7   2  -5 4301.87 211.975   6
   7   2  -4 196.615 70.4834   4
   7   2  -4 168.463 61.2572   6
   7  -2  -4 230.673 85.9340   4
   7  -2  -4 221.554 54.7394   6
   7   2  -3 24651.7 504.353   4
   7  -2  -3 25487.3 533.177   4
   7   2  -3 24912.7 401.847   6
   7  -2  -3 25136.9 329.262   6
   7  -2  -2 8352.88 311.721   4
   7   2  -2 7874.12 204.258   6
   7  -2  -2 6982.25 127.571   6
   7   2  -1 10821.7 224.438   6
   7  -2  -1 10585.1 354.564   4
   7  -2   2 660.378 91.0453   5
   7  -3 -13 604.389 161.020   4
   7   3 -12 9454.24 522.478   6
   7  -3 -12 9795.25 482.737   4
   7   3 -11 662.772 137.193   4
   7  -3 -11 926.200 161.452   4
   7   3 -11 584.559 144.276   6
   7   3 -10 3081.07 272.542   6
   7   3 -10 3382.03 236.776   4
   7  -3 -10 3480.68 268.774   4
   7  -3  -9 400.116 110.525   4
   7   3  -9 270.681 107.293   6
   7   3  -9 383.952 99.8181   4
   7   3  -8 3761.79 257.026   6
   7   3  -8 4126.89 232.598   4
   7  -3  -8 4036.67 262.016   4
   7   3  -7 2865.22 188.656   4
   7   3  -7 2666.09 199.385   6
   7  -3  -7 3143.01 221.866   4
   7   3  -6 120.503 69.1766   4
   7   3  -6 191.073 87.1513   6
   7  -3  -6 284.952 104.463   4
   7   3  -5 3034.32 184.543   4
   7   3  -5 2757.50 176.627   6
   7  -3  -5 2813.33 197.866   4
   7   3  -4 14241.9 379.590   4
   7   3  -4 14059.5 346.857   6
   7  -3  -4 13740.8 404.302   4
   7  -3  -4 14283.8 299.896   6
   7   3  -3 4106.88 208.240   4
   7  -3  -3 4131.61 228.113   4
   7   3  -3 4145.07 175.844   6
   7  -3  -3 4139.66 130.113   6
   7   3  -2 41807.7 499.911   6
   7  -3  -2 42530.4 702.646   4
   7   3  -1 6196.80 188.604   6
   7  -3  -1 6160.73 275.698   4
   7   3   0 17927.9 321.276   6
   7  -3   2 67679.6 819.357   5
   7  -4 -13 1135.50 207.370   4
   7  -4 -12 4259.47 336.884   4
   7   4 -12 4134.44 369.025   6
   7   4 -11 721.793 128.119   4
   7  -4 -11 894.512 168.584   4
   7   4 -11 1154.97 194.109   6
   7  -4 -11 837.147 141.273   5
   7   4 -10 10081.8 477.145   6
   7   4 -10 9716.24 374.416   4
   7  -4 -10 9478.42 438.449   4
   7   4  -9 12813.2 499.500   6
   7   4  -9 13542.0 417.085   4
   7  -4  -9 13225.3 490.928   4
   7   4  -8 17036.1 445.514   4
   7   4  -8 16298.2 524.084   6
   7  -4  -8 17685.6 536.256   4
   7   4  -7 14997.6 401.939   4
   7   4  -7 14940.1 465.738   6
   7  -4  -7 15079.0 474.316   4
   7   4  -6 73970.5 862.964   4
   7   4  -6 74797.0 962.778   6
   7  -4  -6 73071.5 990.111   4
   7   4  -5 56251.6 738.977   4
   7   4  -5 54930.0 760.944   6
   7  -4  -5 55254.7 832.722   4
   7   4  -4 20553.2 448.622   4
   7   4  -4 20258.6 426.642   6
   7  -4  -4 21033.8 505.541   4
   7   4  -3 8587.99 258.690   6
   7  -4  -3 8655.20 327.672   4
   7  -4  -3 8661.86 181.987   6
   7   4  -2 9845.23 259.053   6
   7  -4  -2 10347.8 352.553   4
   7   4  -1 5873.53 199.090   6
   7  -4  -1 5978.69 275.157   4
   7   4   0 41298.8 520.784   6
   7  -4   1 61124.2 682.990   5
   7  -4   2 205.126 62.7513   5
   7  -5 -13 204.672 121.061   4
   7  -5 -12 593.966 169.537   4
   7   5 -12 718.243 192.467   6
   7  -5 -12 577.504 144.452   5
   7  -5 -11 7591.39 418.345   4
   7   5 -11 7621.01 441.357   6
   7   5 -11 7930.73 347.037   4
   7  -5 -11 7375.57 363.864   5
   7  -5 -10 305.747 146.616   4
   7   5 -10 70.0283 110.424   6
   7  -5 -10 186.335 80.8356   5
   7   5 -10 34.2299 77.1650   4
   7   5  -9 34301.2 817.258   6
   7   5  -9 34316.5 646.147   4
   7  -5  -9 32983.2 630.435   5
   7  -5  -9 33707.2 789.196   4
   7   5  -8 13847.0 396.294   4
   7   5  -8 13631.4 486.135   6
   7  -5  -8 14337.6 492.354   4
   7   5  -7 33934.7 592.543   4
   7   5  -7 33932.8 712.866   6
   7  -5  -7 34688.8 729.775   4
   7   5  -6 632.906 102.584   4
   7   5  -6 524.020 116.077   6
   7  -5  -6 804.491 140.973   4
   7   5  -5 69358.7 805.905   4
   7   5  -5 67549.0 861.875   6
   7  -5  -5 68000.6 945.282   4
   7   5  -4 541.522 81.2159   4
   7   5  -4 531.364 82.4271   6
   7  -5  -4 668.172 112.387   4
   7   5  -3 71386.8 771.246   6
   7  -5  -3 74210.4 951.582   4
   7  -5  -3 69499.2 507.745   6
   7   5  -2 346.869 77.9621   6
   7  -5  -2 103.268 74.0567   4
   7   5  -1 36922.0 518.383   6
   7  -5  -1 38513.9 684.962   4
   7   5   0 389.293 84.9202   6
   7  -5   1 3638.48 167.456   5
   7  -5   2 4984.84 223.150   5
   7  -6 -13 6898.28 446.961   4
   7  -6 -12 996.198 187.017   4
   7   6 -12 1516.63 233.274   6
   7  -6 -11 9139.95 467.581   4
   7   6 -11 8582.06 475.566   6
   7  -6 -11 8729.54 392.310   5
   7  -6 -10 8471.84 428.634   4
   7   6 -10 8894.82 451.365   6
   7   6 -10 8255.32 330.370   4
   7  -6 -10 8815.51 356.460   5
   7  -6  -9 982.161 169.444   4
   7   6  -9 1160.27 180.966   6
   7   6  -9 937.275 121.344   4
   7  -6  -9 985.983 126.591   5
   7   6  -8 47894.2 711.080   4
   7   6  -8 47330.4 910.141   6
   7  -6  -8 47335.8 666.007   5
   7  -6  -8 48941.7 920.204   4
   7  -6  -7 888.442 149.644   4
   7   6  -7 742.107 103.263   4
   7   6  -7 735.108 132.929   6
   7   6  -6 50926.6 689.059   4
   7   6  -6 49533.3 812.966   6
   7  -6  -6 51259.1 859.813   4
   7   6  -5 2949.31 171.997   4
   7   6  -5 2558.18 184.655   6
   7  -6  -5 2514.99 197.443   4
   7   6  -4 19739.7 427.429   4
   7   6  -4 19186.4 445.770   6
   7  -6  -4 19752.4 504.962   4
   7  -6  -3 5266.15 148.010   6
   7   6  -3 5373.12 227.188   6
   7  -6  -3 5059.33 257.388   4
   7   6  -2 31052.8 507.396   6
   7  -6  -2 32580.6 631.647   4
   7   6  -1 7950.70 260.572   6
   7  -6  -1 6985.89 299.119   4
   7   6   0 5873.96 224.684   6
   7  -6   1 8637.11 251.885   5
   7   6   1 8815.02 287.884   6
   7  -6   2 1701.57 137.947   5
   7  -7 -13 1527.79 250.229   4
   7  -7 -12 7837.82 457.325   4
   7   7 -12 8036.65 490.178   6
   7  -7 -11 3793.85 316.892   4
   7   7 -11 3968.63 337.096   6
   7  -7 -11 3523.27 255.797   5
   7  -7 -10 18867.8 640.468   4
   7   7 -10 18385.3 471.988   4
   7   7 -10 18429.5 658.404   6
   7  -7 -10 17631.4 501.931   5
   7   7  -9 3629.02 208.935   4
   7   7  -9 3858.91 300.800   6
   7  -7  -9 3686.73 212.788   5
   7  -7  -9 4086.21 292.399   4
   7  -7  -8 1113.34 167.374   4
   7   7  -8 952.277 113.496   4
   7   7  -8 857.436 146.164   6
   7  -7  -8 856.065 100.741   5
   7   7  -7 1941.97 140.490   4
   7   7  -7 2158.47 199.527   6
   7  -7  -7 2156.75 208.073   4
   7   7  -6 1944.92 146.919   4
   7   7  -6 1995.10 191.517   6
   7  -7  -6 2173.76 207.557   4
   7   7  -5 2943.52 168.172   4
   7   7  -5 2796.42 196.263   6
   7  -7  -5 3131.57 220.900   4
   7  -7  -4 10093.5 267.868   6
   7   7  -4 10021.8 338.047   6
   7  -7  -4 9577.49 361.061   4
   7  -7  -3 525.259 53.0825   6
   7   7  -3 632.388 92.9378   6
   7  -7  -3 485.548 99.2007   4
   7   7  -2 81694.2 856.906   6
   7  -7  -2 83589.3 1023.85   4
   7   7  -1 279.134 69.1876   6
   7  -7  -1 287.566 94.1787   4
   7  -7   0 27442.5 356.301   5
   7   7   0 27942.8 507.037   6
   7  -7   0 27802.6 605.013   4
   7  -7   1 23362.8 410.904   5
   7   7   1 24590.3 498.252   6
   7  -7   2 93214.2 944.070   5
   7  -8 -12 445.573 161.139   4
   7   8 -12 308.090 160.280   6
   7  -8 -11 3560.36 313.247   4
   7   8 -11 2967.64 292.787   6
   7  -8 -10 5214.25 360.019   4
   7   8 -10 5572.72 371.985   6
   7  -8 -10 5403.01 278.966   5
   7   8  -9 9046.14 305.948   4
   7   8  -9 8596.17 430.259   6
   7  -8  -9 8628.30 316.696   5
   7  -8  -9 8629.00 425.746   4
   7  -8  -8 1020.61 159.908   4
   7   8  -8 983.550 109.028   4
   7   8  -8 804.060 144.617   6
   7  -8  -8 806.845 93.9512   5
   7   8  -7 2901.84 165.663   4
   7   8  -7 2625.78 220.330   6
   7  -8  -7 2934.78 142.639   5
   7  -8  -7 2981.97 240.106   4
   7   8  -6 64991.2 739.236   4
   7   8  -6 63852.9 961.409   6
   7  -8  -6 63691.3 990.035   4
   7   8  -5 799.048 123.732   6
   7  -8  -5 776.605 131.279   4
   7  -8  -4 5054.48 189.115   6
   7   8  -4 4951.80 246.679   6
   7  -8  -4 4897.52 265.084   4
   7  -8  -3 24510.0 329.618   6
   7   8  -3 24431.1 509.993   6
   7  -8  -3 24909.6 575.502   4
   7   8  -2 6346.98 258.817   6
   7  -8  -2 5976.28 287.246   4
   7   8  -1 79113.4 880.277   6
   7  -8  -1 80310.3 1022.82   4
   7  -8   0 10202.7 215.992   5
   7   8   0 10691.3 329.393   6
   7  -8   0 10395.4 381.515   4
   7  -8   1 54120.2 623.983   5
   7   8   1 55297.0 765.980   6
   7  -8   2 8220.04 285.291   5
   7  -9 -12 1060.07 204.276   4
   7   9 -12 930.400 206.937   6
   7  -9 -11 3891.50 321.889   4
   7   9 -11 4026.24 345.645   6
   7  -9 -10 1183.84 197.737   4
   7   9 -10 1154.48 207.815   6
   7  -9 -10 1172.19 142.019   5
   7   9  -9 9340.95 296.043   4
   7   9  -9 9293.69 454.566   6
   7  -9  -9 9348.69 325.650   5
   7  -9  -9 9270.01 446.144   4
   7  -9  -8 485.373 123.043   4
   7   9  -8 331.318 70.4390   4
   7   9  -8 184.690 101.614   6
   7  -9  -8 328.883 67.0536   5
   7   9  -7 16823.0 370.061   4
   7   9  -7 16505.3 532.290   6
   7  -9  -7 16206.2 318.714   5
   7  -9  -7 16170.6 534.100   4
   7   9  -6 21820.1 419.594   4
   7   9  -6 22365.6 589.725   6
   7  -9  -6 21484.3 593.933   4
   7  -9  -5 22290.1 464.839   6
   7   9  -5 22422.8 553.154   6
   7  -9  -5 22921.6 583.635   4
   7  -9  -4 3339.17 159.241   6
   7   9  -4 3662.39 221.401   6
   7  -9  -4 3726.27 238.630   4
   7  -9  -3 36262.8 417.956   6
   7   9  -3 36719.3 644.686   6
   7  -9  -3 37412.1 716.141   4
   7   9  -2 956.149 114.133   6
   7  -9  -2 1050.82 136.161   4
   7   9  -1 1176.26 129.041   6
   7  -9  -1 799.305 122.428   4
   7  -9   0 50047.0 482.527   5
   7   9   0 50372.4 736.292   6
   7  -9   0 51804.7 838.321   4
   7  -9   1 9971.43 272.450   5
   7   9   1 9416.03 332.618   6
   7  -9   2 22116.7 463.536   5
   7 -10 -12 2180.53 271.629   4
   7  10 -12 2466.02 291.059   6
   7 -10 -11 11.6338 114.556   4
   7  10 -11 122.676 116.359   6
   7 -10 -10 15353.3 608.506   4
   7  10 -10 15670.9 629.561   6
   7 -10  -9 598.541 147.704   4
   7  10  -9 473.208 135.022   6
   7 -10  -9 219.659 62.0704   5
   7  10  -8 14822.6 344.298   4
   7  10  -8 15500.8 557.055   6
   7 -10  -8 15298.5 363.075   5
   7 -10  -8 16244.7 571.034   4
   7 -10  -7 260.306 115.834   4
   7  10  -7 234.906 58.4374   4
   7  10  -7 243.599 107.284   6
   7 -10  -7 209.533 48.8739   5
   7  10  -6 41742.3 809.065   6
   7 -10  -6 45439.2 864.398   4
   7 -10  -5 137.095 60.4542   6
   7  10  -5 154.865 91.5172   6
   7 -10  -5 187.937 86.6044   4
   7 -10  -4 49782.9 612.163   6
   7  10  -4 49439.4 803.238   6
   7 -10  -4 51929.3 865.366   4
   7 -10  -3 1464.65 93.0056   6
   7  10  -3 1476.38 147.785   6
   7 -10  -3 1645.72 167.694   4
   7  10  -2 76521.8 942.644   6
   7 -10  -2 79502.6 1038.92   4
   7  10  -1 340.830 94.5035   6
   7 -10  -1 15.3497 74.1387   4
   7 -10   0 1663.87 94.0596   5
   7  10   0 1786.09 163.129   6
   7 -10   0 1846.97 173.911   4
   7 -10   1 30044.4 471.368   5
   7  10   1 30488.3 612.769   6
   7 -10   2 6224.70 248.721   5
   7 -11 -12 519.977 169.432   4
   7 -11 -11 394.012 137.304   4
   7  11 -11 199.978 120.135   6
   7 -11 -10 2092.74 240.633   4
   7  11 -10 2086.19 254.029   6
   7  11  -9 7977.66 430.099   6
   7 -11  -9 8718.40 448.813   4
   7 -11  -8 603.474 160.863   4
   7  11  -8 506.637 139.000   6
   7 -11  -8 516.273 79.4194   5
   7  11  -7 8868.64 408.269   6
   7 -11  -7 9169.36 235.293   5
   7 -11  -7 9833.76 434.867   4
   7  11  -6 9782.88 408.460   6
   7 -11  -6 8610.73 172.440   5
   7 -11  -6 10114.5 423.637   4
   7 -11  -5 14878.6 391.983   6
   7  11  -5 16129.7 496.428   6
   7 -11  -5 15548.8 500.517   4
   7 -11  -4 5094.22 205.388   6
   7  11  -4 5371.96 281.407   6
   7 -11  -4 5772.41 303.490   4
   7 -11  -3 30131.9 419.678   6
   7  11  -3 30613.7 631.860   6
   7 -11  -3 31700.9 678.270   4
   7  11  -2 19139.1 495.755   6
   7 -11  -2 18198.3 266.089   6
   7 -11  -2 18696.3 515.317   4
   7  11  -1 362.970 93.5168   6
   7 -11  -1 246.643 89.0555   4
   7 -11   0 21681.6 329.945   5
   7  11   0 21554.9 523.381   6
   7 -11   0 21386.5 556.005   4
   7 -11   1 562.455 77.4834   5
   7  11   1 834.355 135.759   6
   7 -11   2 4210.40 207.685   5
   7 -12 -11 4228.03 347.242   4
   7  12 -11 4297.90 367.811   6
   7 -12 -10 2442.18 268.057   4
   7  12 -10 2589.94 279.236   6
   7  12  -9 7519.91 427.922   6
   7 -12  -9 7894.80 432.160   4
   7  12  -8 9630.78 454.553   6
   7 -12  -8 10229.3 467.713   4
   7 -12  -7 654.723 150.101   4
   7  12  -7 774.715 154.506   6
   7 -12  -7 741.221 75.4370   5
   7  12  -6 13887.5 495.154   6
   7 -12  -6 14628.3 513.059   4
   7 -12  -6 12425.0 208.548   5
   7 -12  -5 7083.46 278.895   6
   7  12  -5 7619.30 357.144   6
   7 -12  -5 7729.60 361.687   4
   7 -12  -4 5816.70 225.373   6
   7  12  -4 6305.60 310.143   6
   7 -12  -4 6564.92 325.403   4
   7 -12  -3 2351.53 130.713   6
   7  12  -3 2450.72 196.809   6
   7 -12  -3 2510.41 209.025   4
   7  12  -2 6571.75 304.719   6
   7 -12  -2 6626.19 178.280   6
   7 -12  -2 6846.71 327.029   4
   7  12  -1 8385.55 337.155   6
   7 -12  -1 7960.48 338.119   4
   7 -12  -1 7161.74 158.022   6
   7 -12   0 15099.2 283.043   5
   7  12   0 15375.0 460.771   6
   7 -12   0 15325.3 473.099   4
   7 -12   1 37958.1 540.991   5
   7  12   1 37106.7 721.934   6
   7 -12   2 621.513 88.2128   5
   7  12   2 464.640 111.864   6
   7 -13 -11-42.0403 132.276   4
   7  13 -11 150.956 140.221   6
   7 -13 -10 6508.61 416.388   4
   7  13 -10 6782.10 440.495   6
   7  13  -9 4057.03 328.155   6
   7 -13  -9 4322.21 337.328   4
   7 -13  -8 613.191 150.196   4
   7  13  -8 523.583 148.587   6
   7  13  -7 8584.84 418.597   6
   7 -13  -7 9095.40 434.737   4
   7 -13  -6 507.656 136.169   4
   7  13  -6 540.550 144.849   6
   7 -13  -6 340.349 42.0293   5
   7 -13  -5 4310.98 223.183   6
   7  13  -5 4517.46 284.359   6
   7 -13  -5 4198.68 274.465   4
   7 -13  -4 8925.49 285.938   6
   7  13  -4 8655.00 373.672   6
   7 -13  -4 9381.86 391.586   4
   7  13  -3 21492.5 566.978   6
   7 -13  -3 21049.5 385.835   6
   7 -13  -3 20581.7 568.383   4
   7  13  -2 45464.4 805.964   6
   7 -13  -2 43853.4 487.742   6
   7 -13  -2 45849.4 831.116   4
   7  13  -1 206.504 84.5964   6
   7 -13  -1 76.4284 70.4831   4
   7 -13  -1 168.083 36.3576   6
   7 -13   0 35717.2 448.717   5
   7  13   0 35987.9 723.489   6
   7 -13   0 35851.6 730.616   4
   7 -13   1 1403.92 113.964   5
   7  13   1 1687.70 175.333   6
   7 -13   2 9522.59 319.034   5
   7  13   2 9026.74 387.389   6
   7 -14 -11 7031.37 457.875   4
   7  14 -11 6985.56 475.521   6
   7 -14 -10 1152.47 218.928   4
   7  14 -10 1105.00 198.487   6
   7  14  -9 8446.02 465.207   6
   7 -14  -9 8055.58 455.923   4
   7  14  -8 4797.14 340.090   6
   7 -14  -8 5228.76 351.964   4
   7 -14  -7 423.581 140.633   4
   7  14  -7 444.059 135.160   6
   7  14  -6 20729.1 630.532   6
   7 -14  -6 19473.7 609.454   4
   7  14  -5 250.699 93.6143   6
   7 -14  -5 222.662 99.6358   4
   7 -14  -4 6651.47 256.940   6
   7  14  -4 6216.51 324.002   6
   7 -14  -4 7013.14 347.584   4
   7  14  -3 3493.14 245.565   6
   7 -14  -3 3432.20 168.156   6
   7 -14  -3 3489.91 245.110   4
   7 -14  -2 28624.8 421.090   6
   7 -14  -2 30130.0 681.578   4
   7  14  -2 29821.1 676.221   6
   7 -14  -1 3820.16 121.465   5
   7  14  -1 4171.52 258.092   6
   7 -14  -1 4158.30 259.623   4
   7 -14  -1 4085.39 144.693   6
   7 -14   0 8418.89 228.680   5
   7  14   0 9066.88 379.077   6
   7 -14   0 8247.09 363.063   4
   7 -14   1 27895.0 486.517   5
   7  14   1 26806.3 655.524   6
   7  14   2 1349.65 164.982   6
   7 -15 -10 721.539 167.374   4
   7  15 -10 754.315 181.129   6
   7  15  -9 17178.4 665.067   6
   7 -15  -9 17784.7 671.535   4
   7  15  -8 4063.74 325.257   6
   7 -15  -8 4459.26 336.651   4
   7  15  -7 18942.7 646.962   6
   7 -15  -7 19283.7 639.775   4
   7 -15  -6 1295.03 183.997   4
   7  15  -6 1303.84 178.642   6
   7  15  -5 11554.6 463.690   6
   7 -15  -5 11541.2 462.256   4
   7 -15  -4 7.72355 52.8730   6
   7  15  -4 10.5610 83.1033   6
   7 -15  -4-28.8837 75.4885   4
   7  15  -3 34558.1 752.945   6
   7 -15  -3 34863.7 541.642   6
   7 -15  -3 35575.1 760.669   4
   7  15  -2 24066.2 626.569   6
   7 -15  -2 23427.3 403.327   6
   7 -15  -2 24260.1 626.421   4
   7 -15  -1 2198.05 99.5082   5
   7  15  -1 2140.54 201.299   6
   7 -15  -1 2024.54 190.133   4
   7 -15  -1 2467.03 125.967   6
   7 -15   0 692.515 78.2084   5
   7  15   0 910.857 149.820   6
   7 -15   0 639.610 122.495   4
   7  15   1 7226.00 357.976   6
   7  15   2 221.513 116.701   6
   7  16 -10 8149.92 492.199   6
   7 -16 -10 8725.93 511.690   4
   7 -16  -9 758.431 184.625   4
   7  16  -9 978.827 187.933   6
   7  16  -8 5346.39 375.025   6
   7 -16  -8 5752.71 377.970   4
   7 -16  -7 629.929 160.995   4
   7  16  -7 417.568 145.315   6
   7  16  -6 32785.1 824.209   6
   7 -16  -6 33397.2 823.185   4
   7  16  -5 4627.71 307.399   6
   7 -16  -5 5228.02 325.022   4
   7  16  -4 6950.72 364.674   6
   7 -16  -4 7044.03 358.743   4
   7  16  -3 2682.60 243.455   6
   7 -16  -3 2559.43 160.609   6
   7 -16  -3 2600.07 220.509   4
   7 -16  -2 18585.2 229.608   5
   7  16  -2 21337.1 606.666   6
   7 -16  -2 21241.9 405.813   6
   7 -16  -2 22564.3 612.393   4
   7  16  -1 4477.96 288.913   6
   7 -16  -1 4586.22 275.769   4
   7  16   0 1566.88 185.875   6
   7 -16   0 1648.66 176.294   4
   7  16   1 22345.4 636.829   6
   7  16   2 485.691 142.203   6
   7  17 -10 11290.6 587.156   6
   7 -17 -10 10681.7 565.418   4
   7 -17  -9 83.5348 123.871   4
   7  17  -9 29.5895 113.554   6
   7  17  -8 8879.65 482.456   6
   7 -17  -8 9125.82 478.031   4
   7  17  -7 11156.4 515.117   6
   7 -17  -7 11060.1 503.279   4
   7 -17  -6 124.442 99.0225   4
   7  17  -6 128.845 115.836   6
   7  17  -5 24342.1 707.250   6
   7 -17  -5 24776.5 693.678   4
   7  17  -4 2838.77 246.712   6
   7 -17  -4 2807.30 236.080   4
   7  17  -3 305.403 116.589   6
   7 -17  -3 378.742 116.222   4
   7 -17  -2 7962.86 174.992   5
   7  17  -2 8579.22 403.103   6
   7 -17  -2 8946.27 394.446   4
   7  17  -1 3688.95 271.015   6
   7 -17  -1 3323.10 240.595   4
   7  17   0 15061.1 531.061   6
   7 -17   0 14894.0 497.263   4
   7  17   1 525.063 131.233   6
   7 -17   1 484.433 116.242   4
   7  17   2 49216.4 1007.05   6
   7 -18  -9 2198.25 266.746   4
   7  18  -9 1581.69 226.339   6
   7  18  -8 4504.85 361.952   6
   7 -18  -8 4360.66 347.113   4
   7 -18  -7 1963.45 236.390   4
   7  18  -7 1352.14 200.613   6
   7 -18  -6 601.992 144.608   4
   7  18  -6 892.766 183.750   6
   7  18  -5 281.764 118.749   6
   7 -18  -5 415.976 131.365   4
   7  18  -4 263.504 119.068   6
   7 -18  -4 84.2260 105.455   4
   7  18  -3 19774.9 627.631   6
   7 -18  -3 20252.9 608.329   4
   7  18  -2 4348.19 302.174   6
   7 -18  -2 3910.97 274.821   4
   7  18  -1 19259.9 610.134   6
   7 -18  -1 19793.0 578.145   4
   7  18   0 2727.25 250.581   6
   7 -18   0 2789.02 227.923   4
   7  18   1 23689.2 689.219   6
   7 -18   1 25180.0 654.118   4
   7  18   2 1405.30 198.868   6
   7  19  -9 5468.42 417.628   6
   7 -19  -9 5439.04 397.465   4
   7  19  -8 4367.39 356.452   6
   7 -19  -8 4770.94 366.044   4
   7  19  -7 11425.9 542.068   6
   7 -19  -7 12051.7 541.328   4
   7 -19  -6 461.999 150.037   4
   7  19  -6 207.893 121.783   6
   7  19  -5 19048.9 654.095   6
   7 -19  -5 18794.3 624.999   4
   7  19  -4 6784.17 387.293   6
   7 -19  -4 6729.21 372.230   4
   7  19  -3 23679.5 700.922   6
   7 -19  -3 24116.7 671.925   4
   7  19  -2 10433.9 470.864   6
   7 -19  -2 10882.0 451.047   4
   7  19  -1 12611.2 507.191   6
   7 -19  -1 12778.3 475.210   4
   7  19   0 2150.44 232.864   6
   7 -19   0 1963.41 195.942   4
   7  19   1 2565.30 250.079   6
   7 -19   1 2365.71 212.287   4
   7  19   2 8639.12 451.731   6
   7 -20  -9 2045.70 275.381   4
   7  20  -9 2119.55 270.473   6
   7  20  -8 5695.34 411.461   6
   7 -20  -8 7010.93 451.210   4
   7 -20  -7 1171.27 198.259   4
   7  20  -7 975.951 200.464   6
   7  20  -6 22087.3 736.598   6
   7 -20  -6 21627.9 706.065   4
   7  20  -5 185.842 113.961   6
   7 -20  -5 158.400 101.659   4
   7  20  -4 15421.0 595.658   6
   7 -20  -4 15407.2 557.816   4
   7  20  -3 4448.31 324.051   6
   7 -20  -3 4456.86 306.072   4
   7  20  -2 18056.8 626.129   6
   7 -20  -2 18804.3 592.500   4
   7  20  -1 2735.10 260.343   6
   7 -20  -1 2823.57 238.544   4
   7  20   0 791.887 169.157   6
   7 -20   0 462.830 125.066   4
   7  20   1 199.004 119.625   6
   7 -20   1-105.500 92.1169   4
   7  20   2 1772.35 229.577   6
   7 -21  -8 527.867 160.025   4
   7  21  -8 446.542 166.015   6
   7  21  -7 10445.3 541.713   6
   7 -21  -7 10869.5 530.779   4
   7  21  -6 750.114 177.822   6
   7 -21  -6 847.570 179.535   4
   7  21  -5 7048.69 425.240   6
   7 -21  -5 6877.18 396.032   4
   7  21  -4 1030.16 192.969   6
   7 -21  -4 758.174 148.884   4
   7  21  -3 2369.47 246.471   6
   7 -21  -3 2410.49 232.720   4
   7  21  -2 12552.5 543.810   6
   7 -21  -2 12559.0 495.345   4
   7  21  -1 4175.39 320.305   6
   7 -21  -1 3948.13 277.313   4
   7  21   0 11482.0 521.237   6
   7 -21   0 11913.8 469.539   4
   7  21   1 2085.40 243.404   6
   7 -21   1 2238.42 213.124   4
   7  21   2 8360.08 466.409   6
   7 -22  -8 252.855 147.828   4
   7  22  -8-93.3970 138.171   6
   7  22  -7 3480.00 327.410   6
   7 -22  -7 3467.76 318.211   4
   7  22  -6 930.901 177.385   6
   7 -22  -6 909.728 180.017   4
   7  22  -5 353.190 147.956   6
   7 -22  -5 445.503 144.173   4
   7  22  -4 347.245 145.012   6
   7 -22  -4 323.078 121.491   4
   7  22  -3 3085.41 285.137   6
   7 -22  -3 2694.93 245.900   4
   7  22  -2 1025.76 190.084   6
   7 -22  -2 931.783 158.208   4
   7  22  -1 3248.50 292.065   6
   7 -22  -1 3675.76 274.178   4
   7  22   0 139.447 113.735   6
   7 -22   0 38.8455 95.0358   4
   7  22   1 7963.38 448.561   6
   7  22   2-115.164 108.127   6
   7 -23  -7 1188.88 207.127   4
   7  23  -7 879.579 191.159   6
   7  23  -6 105.747 144.822   6
   7 -23  -6 309.376 137.595   4
   7  23  -5 1173.04 216.400   6
   7 -23  -5 706.303 171.075   4
   7  23  -4 2014.07 245.491   6
   7 -23  -4 1872.19 218.062   4
   7  23  -3 4490.99 348.529   6
   7 -23  -3 4592.54 321.152   4
   7  23  -2 2289.31 252.719   6
   7 -23  -2 2027.02 214.012   4
   7  23  -1 1645.17 230.259   6
   7 -23  -1 1843.08 202.148   4
   7  23   0 7037.66 435.452   6
   7 -23   0 7463.91 384.171   4
   7  23   1 330.461 140.770   6
   7  23   2 14667.9 648.429   6
   7 -24  -7 1297.25 215.475   4
   7  24  -6 8758.67 521.820   6
   7 -24  -6 9007.80 489.686   4
   7  24  -5 4823.34 381.293   6
   7 -24  -5 4814.44 355.150   4
   7  24  -4 8911.21 507.006   6
   7 -24  -4 8183.68 441.639   4
   7  24  -3 4275.17 350.793   6
   7 -24  -3 4256.67 312.470   4
   7  24  -2 718.414 172.805   6
   7 -24  -2 188.181 117.535   4
   7  24  -1 2511.94 278.907   6
   7 -24  -1 2404.67 231.817   4
   7  24   0 7687.68 461.330   6
   7 -24   0 7414.45 390.121   4
   7  24   1 822.196 183.967   6
   7  24   2 1018.01 207.607   6
   7  25  -6 334.661 155.638   6
   7 -25  -6 653.514 174.639   4
   7  25  -5 5291.26 411.154   6
   7 -25  -5 5153.31 366.178   4
   7  25  -4 60.3795 121.105   6
   7 -25  -4 68.4302 105.848   4
   7  25  -3 2629.69 288.389   6
   7 -25  -3 2684.35 265.260   4
   7  25  -2 169.057 133.039   6
   7 -25  -2 143.152 101.836   4
   7  25  -1 547.410 172.820   6
   7 -25  -1 497.662 134.171   4
   7  25   0 439.603 161.975   6
   7 -25   0 240.105 107.412   4
   7  25   1 137.732 150.961   6
   7  25   2 83.0778 155.136   6
   7 -26  -6 3944.05 341.977   4
   7 -26  -5-85.6872 114.697   4
   7  26  -4 1798.06 274.330   6
   7 -26  -4 1693.96 221.633   4
   7  26  -3 293.203 147.934   6
   7 -26  -3 195.655 103.691   4
   7  26  -2 170.125 136.448   6
   7 -26  -2 63.5725 109.313   4
   7  26  -1 2859.26 306.151   6
   7 -26  -1 2556.30 244.035   4
   7  26   0 60.5304 115.938   6
   7 -26   0-14.6083 92.2423   4
   7  26   1 3585.63 347.969   6
   7  26   2 1486.39 241.362   6
   7 -27  -5 1125.60 201.487   4
   7 -27  -4 2247.17 261.151   4
   7  27  -3 2033.82 285.678   6
   7 -27  -3 1997.60 242.379   4
   7  27  -2 5899.97 434.489   6
   7 -27  -2 5664.65 371.520   4
   7  27  -1 1944.36 272.606   6
   7 -27  -1 1273.64 179.251   4
   7  27   0 7612.66 489.168   6
   7 -27   0 7564.18 404.021   4
   7 -28  -4 753.127 171.322   4
   7 -28  -3 643.506 147.398   4
   7 -28  -2-77.6116 133.158   4
   7 -28  -1 2752.82 258.412   4
   7 -29  -4 2730.11 280.513   4
   7 -29  -3 461.775 143.039   4
   7 -29  -2 3365.75 300.283   4
   8   0 -12 4683.26 368.388   6
   8   0 -12 4588.96 325.063   4
   8   0 -11 181.163 110.187   4
   8   0 -11-13.4077 114.086   6
   8   0 -10 15887.7 531.756   4
   8   0 -10 14583.2 554.790   6
   8   0  -9 126.637 118.669   6
   8   0  -9 120.473 106.460   4
   8   0  -8 24487.0 607.590   4
   8   0  -8 23575.9 606.462   6
   8   0  -7 31.1093 69.1541   6
   8   0  -7 70.1513 64.0427   4
   8   0  -6 29256.2 626.393   4
   8   0  -6 28624.9 559.405   6
   8   0  -5 96.2080 71.1281   4
   8   0  -5 34.3751 53.4674   6
   8   0  -4 6454.33 291.255   4
   8   0  -4 6348.50 213.640   6
   8   0  -3 0.97122 65.8418   4
   8   0  -3 104.357 46.7788   6
   8   0  -2 13617.2 225.240   6
   8  -1 -13 584.662 155.056   4
   8   1 -12 247.797 129.272   4
   8  -1 -12 191.872 123.472   4
   8   1 -12 244.909 136.944   6
   8   1 -11 4696.42 346.401   6
   8   1 -11 4808.92 309.655   4
   8  -1 -11 5235.14 329.653   4
   8  -1 -10 278.227 116.550   4
   8   1 -10 306.223 129.163   6
   8   1 -10 146.520 97.0007   4
   8   1  -9 26934.4 648.940   4
   8   1  -9 26460.4 700.490   6
   8  -1  -9 26747.1 670.266   4
   8   1  -8 2054.65 188.892   4
   8   1  -8 1920.35 194.965   6
   8  -1  -8 1982.16 190.422   4
   8   1  -7 206.294 83.5143   6
   8   1  -7 327.471 88.2541   4
   8  -1  -7 304.094 83.0463   6
   8  -1  -7 147.896 73.9940   4
   8   1  -6 1329.69 145.983   4
   8   1  -6 1372.93 136.655   6
   8  -1  -6 1606.85 163.352   4
   8  -1  -6 1413.84 134.269   6
   8   1  -5 502.800 104.124   4
   8  -1  -5 665.002 122.416   4
   8   1  -5 595.072 93.3222   6
   8  -1  -5 517.634 81.1053   6
   8   1  -4 11754.0 380.718   4
   8  -1  -4 11493.3 387.474   4
   8   1  -4 11461.7 294.525   6
   8  -1  -4 11346.5 272.500   6
   8   1  -3 11304.3 377.772   4
   8  -1  -3 11395.2 389.118   4
   8   1  -3 11214.4 258.299   6
   8  -1  -3 11178.0 226.929   6
   8  -1  -2 18224.6 224.078   6
   8   1  -2 20620.0 307.513   6
   8  -1  -2 21016.0 523.137   4
   8   1  -1 2324.18 97.9944   6
   8  -2 -13 161.129 129.439   4
   8  -2 -12 608.497 154.273   4
   8   2 -12 650.735 166.935   6
   8   2 -12 595.391 146.015   4
   8  -2 -11 145.266 95.0422   4
   8   2 -11-71.9603 115.476   6
   8   2 -11 29.4496 89.9376   4
   8  -2 -10 293.560 119.681   4
   8   2 -10 308.801 118.898   6
   8   2 -10 208.101 97.8857   4
   8   2  -9 4305.13 264.877   4
   8   2  -9 4426.92 305.630   6
   8  -2  -9 4311.03 287.251   4
   8   2  -8 13186.6 430.161   4
   8   2  -8 13329.4 468.061   6
   8  -2  -8 13597.2 470.201   4
   8   2  -7 6304.86 290.749   4
   8   2  -7 6222.98 299.885   6
   8  -2  -7 6026.34 304.886   4
   8   2  -6 46.7309 69.9938   4
   8   2  -6 120.577 73.8635   6
   8  -2  -6 113.936 58.6967   6
   8  -2  -6 209.079 98.8787   4
   8   2  -5 38024.4 679.436   4
   8  -2  -5 37933.8 714.753   4
   8   2  -5 36764.8 600.961   6
   8  -2  -5 36974.9 554.247   6
   8   2  -4 875.186 115.640   4
   8   2  -4 727.537 84.3278   6
   8  -2  -4 915.366 130.882   4
   8  -2  -4 867.163 79.8825   6
   8   2  -3 65905.7 894.804   4
   8  -2  -3 65472.5 924.005   4
   8   2  -3 64182.6 645.458   6
   8  -2  -3 63705.9 503.729   6
   8   2  -2 306.560 62.8140   6
   8  -2  -2 211.872 93.4175   4
   8   2  -1 24266.5 340.857   6
   8  -3 -13 347.839 142.864   4
   8  -3 -12 1117.61 192.026   4
   8   3 -12 1270.16 219.562   6
   8  -3 -11 141.734 109.852   4
   8   3 -11 8.09367 104.265   6
   8   3 -11-79.1257 80.6551   4
   8  -3 -10 434.817 137.123   4
   8   3 -10 219.916 114.456   6
   8   3 -10 199.652 94.7427   4
   8  -3  -9 211.851 106.520   4
   8   3  -9 85.8968 102.592   6
   8   3  -9 89.3417 87.5002   4
   8   3  -8 2504.26 193.373   4
   8   3  -8 2250.98 205.717   6
   8  -3  -8 2447.07 214.523   4
   8   3  -7 1652.78 154.180   4
   8   3  -7 1464.42 158.882   6
   8  -3  -7 1537.41 170.942   4
   8   3  -6 9565.67 342.719   4
   8   3  -6 9832.27 348.290   6
   8  -3  -6 9297.62 372.895   4
   8   3  -5 454.411 102.395   4
   8   3  -5 253.148 80.6725   6
   8  -3  -5 457.228 117.977   4
   8  -3  -5 373.291 73.5445   6
   8   3  -4 29369.0 590.220   4
   8  -3  -4 30460.9 642.748   4
   8   3  -4 29508.2 504.443   6
   8  -3  -4 30028.1 417.071   6
   8  -3  -3 7434.39 319.908   4
   8   3  -3 7163.64 230.257   6
   8  -3  -3 6799.97 154.204   6
   8   3  -2 103231. 805.051   6
   8  -3  -2 104967. 1184.27   4
   8   3  -1 15297.5 298.416   6
   8  -4 -13 36.4085 124.808   4
   8   4 -12 3405.54 318.683   6
   8  -4 -12 3271.81 298.409   4
   8  -4 -11 70.0091 100.263   4
   8   4 -11-13.3434 109.102   6
   8   4 -11 44.3578 76.9215   4
   8   4 -10 20566.7 561.248   4
   8   4 -10 20633.8 678.014   6
   8  -4 -10 21415.8 666.233   4
   8   4  -9 4981.91 275.266   4
   8   4  -9 4987.61 323.044   6
   8  -4  -9 5219.73 321.291   4
   8   4  -8 441.110 99.7443   4
   8   4  -8 411.304 109.027   6
   8  -4  -8 388.291 109.229   4
   8   4  -7 3960.78 227.825   4
   8   4  -7 3480.46 231.817   6
   8  -4  -7 3677.41 251.725   4
   8   4  -6 408.226 92.2882   4
   8   4  -6 353.423 85.0505   6
   8  -4  -6 548.661 117.542   4
   8   4  -5 45477.8 724.118   4
   8   4  -5 43750.9 684.700   6
   8  -4  -5 44619.4 798.258   4
   8   4  -4 15977.0 436.617   4
   8   4  -4 15407.3 380.464   6
   8  -4  -4 15732.3 475.800   4
   8  -4  -4 15490.2 294.300   6
   8   4  -3 20324.5 403.380   6
   8  -4  -3 19554.4 520.360   4
   8  -4  -3 18266.6 233.002   6
   8   4  -2 560.087 80.2246   6
   8  -4  -2 423.673 121.891   4
   8   4  -1 78645.2 727.460   6
   8   4   0 20312.3 383.127   6
   8  -4   2 25095.9 522.243   5
   8  -5 -13 15090.9 650.947   4
   8  -5 -12 601.808 169.592   4
   8   5 -12 497.776 168.428   6
   8   5 -11 4780.56 354.576   6
   8  -5 -11 5376.63 360.572   4
   8  -5 -10 368.580 155.161   4
   8   5 -10 120.272 117.452   6
   8   5 -10 120.229 93.7186   4
   8   5  -9 16123.7 466.936   4
   8   5  -9 15059.3 548.759   6
   8  -5  -9 15172.4 544.347   4
   8   5  -8 1774.08 161.238   4
   8   5  -8 1444.73 180.253   6
   8  -5  -8 1552.00 189.568   4
   8   5  -7 13114.2 399.194   4
   8   5  -7 12478.0 437.839   6
   8  -5  -7 12530.6 459.362   4
   8   5  -6 547.048 95.8040   4
   8   5  -6 431.684 98.5912   6
   8  -5  -6 733.016 133.299   4
   8   5  -5 9443.15 329.825   4
   8   5  -5 9564.08 331.410   6
   8  -5  -5 9782.05 387.926   4
   8   5  -4 124.625 66.5383   6
   8  -5  -4 62.2260 74.2529   4
   8  -5  -4 89.6959 36.5795   6
   8  -5  -3 822.825 50.4811   6
   8   5  -3 1276.64 115.646   6
   8  -5  -3 1025.50 54.9814   6
   8  -5  -3 1358.59 158.933   4
   8   5  -2 1701.31 121.801   6
   8  -5  -2 1578.47 163.060   4
   8   5  -1 14099.8 331.242   6
   8  -5  -1 13954.5 449.370   4
   8   5   0 8394.37 259.980   6
   8  -5   2 4535.59 223.655   5
   8  -6 -13 4954.54 391.936   4
   8   6 -12 10129.5 547.460   6
   8  -6 -12 10505.8 527.769   4
   8  -6 -11 213.194 114.026   4
   8   6 -11 33.8884 100.663   6
   8   6 -10 13255.4 428.785   4
   8   6 -10 13235.5 556.534   6
   8  -6 -10 14398.4 562.933   4
   8   6  -9 12460.0 402.105   4
   8   6  -9 12711.3 513.430   6
   8  -6  -9 13103.8 518.147   4
   8   6  -8 11920.2 379.535   4
   8   6  -8 12029.5 466.132   6
   8  -6  -8 12060.1 473.538   4
   8   6  -7 4542.49 231.314   4
   8   6  -7 4132.93 263.149   6
   8  -6  -7 4486.99 280.764   4
   8   6  -6 355.082 92.7024   4
   8   6  -6 440.851 114.132   6
   8  -6  -6 268.361 115.121   4
   8   6  -5 1776.03 147.665   4
   8   6  -5 1605.74 153.668   6
   8  -6  -5 1676.41 180.076   4
   8   6  -4 2506.51 172.432   6
   8  -6  -4 2719.84 212.946   4
   8   6  -3 42013.3 628.555   6
   8  -6  -3 43361.9 788.386   4
   8   6  -2 250.417 70.0109   6
   8  -6  -2 284.267 85.2961   4
   8   6  -1 2095.76 138.001   6
   8  -6  -1 2299.44 201.651   4
   8   6   0 19376.0 415.246   6
   8  -6   1 12463.2 316.922   5
   8  -6   2 33318.6 591.030   5
   8  -7 -12 221.610 127.850   4
   8   7 -12 441.558 169.282   6
   8  -7 -11 1317.56 212.051   4
   8   7 -11 931.509 202.258   6
   8   7 -10 2935.72 278.573   6
   8  -7 -10 2971.30 272.457   4
   8   7  -9 7028.43 294.608   4
   8   7  -9 6781.05 385.266   6
   8  -7  -9 6887.65 385.370   4
   8   7  -8 6334.63 271.861   4
   8   7  -8 5865.15 340.220   6
   8  -7  -8 6237.63 348.052   4
   8   7  -7 18073.4 442.984   4
   8   7  -7 17235.6 530.627   6
   8  -7  -7 17918.7 560.607   4
   8   7  -6 61809.3 808.515   4
   8   7  -6 61774.3 936.305   6
   8  -7  -6 62906.3 1007.23   4
   8   7  -5 2757.97 196.649   6
   8  -7  -5 2970.73 223.816   4
   8  -7  -4 25883.8 386.466   6
   8   7  -4 26250.7 547.754   6
   8  -7  -4 26750.8 631.899   4
   8   7  -3 237.436 79.2925   6
   8  -7  -3 321.029 106.730   4
   8  -7  -3 49.8303 17.8049   6
   8   7  -2 15337.0 387.746   6
   8  -7  -2 15730.8 481.128   4
   8   7  -1 985.347 110.361   6
   8  -7  -1 1114.07 149.542   4
   8   7   0 27260.1 514.562   6
   8  -7   1 8356.99 256.875   5
   8  -7   2 14859.5 394.908   5
   8  -8 -12 376.823 135.852   4
   8   8 -12 215.429 150.984   6
   8  -8 -11 184.646 142.638   4
   8   8 -11 120.893 117.762   6
   8   8 -10 2829.23 278.103   6
   8  -8 -10 3054.04 283.907   4
   8  -8  -9 1879.18 220.296   4
   8   8  -9 1970.94 158.005   4
   8   8  -9 1834.49 212.979   6
   8  -8  -8 1181.91 173.118   4
   8   8  -8 1026.95 117.030   4
   8   8  -8 1240.97 173.715   6
   8   8  -7 3013.22 183.933   4
   8   8  -7 3291.05 247.057   6
   8  -8  -7 3474.15 264.268   4
   8   8  -6 3319.38 194.452   4
   8   8  -6 3147.99 229.255   6
   8  -8  -6 3851.57 264.785   4
   8  -8  -5 17700.3 399.629   6
   8   8  -5 18362.3 499.549   6
   8  -8  -5 18552.5 545.022   4
   8  -8  -4 645.430 64.1745   6
   8   8  -4 749.238 111.506   6
   8  -8  -4 792.288 129.898   4
   8   8  -3 38820.7 654.046   6
   8  -8  -3 39721.1 772.693   4
   8   8  -2 11117.7 345.133   6
   8  -8  -2 11066.9 410.739   4
   8   8  -1 71254.1 850.469   6
   8  -8  -1 74333.7 1056.73   4
   8   8   0 354.300 75.2314   6
   8   8   1 50154.9 752.935   6
   8  -8   1 50339.8 624.618   5
   8  -8   2 442.259 80.5486   5
   8  -9 -12 968.447 209.682   4
   8   9 -12 756.293 194.436   6
   8   9 -11 5356.88 395.405   6
   8  -9 -11 5401.08 384.171   4
   8  -9 -10 897.148 171.860   4
   8   9 -10 901.076 183.214   6
   8   9  -9 3172.59 275.583   6
   8  -9  -9 3082.80 270.459   4
   8  -9  -8 247.292 108.614   4
   8   9  -8 98.6489 58.8857   4
   8   9  -8 154.446 97.7964   6
   8   9  -7 7631.05 277.402   4
   8   9  -7 7075.93 357.795   6
   8  -9  -7 7750.41 385.423   4
   8   9  -6 8782.60 377.517   6
   8  -9  -6 9610.00 413.257   4
   8  -9  -5 352.705 73.9421   6
   8   9  -5 306.143 101.538   6
   8  -9  -5 469.208 118.660   4
   8  -9  -4 13165.9 282.128   6
   8   9  -4 12318.6 398.365   6
   8  -9  -4 13745.1 468.763   4
   8  -9  -3 4042.30 114.207   6
   8   9  -3 4833.90 245.703   6
   8  -9  -3 4142.91 262.558   4
   8   9  -2 13234.5 394.275   6
   8  -9  -2 14222.5 468.314   4
   8   9  -1 26081.5 539.605   6
   8  -9  -1 26224.3 635.034   4
   8   9   0 2565.72 175.581   6
   8  -9   1 59099.5 671.626   5
   8   9   1 60145.8 860.313   6
   8  -9   2 2142.82 155.458   5
   8 -10 -12 6786.85 457.474   4
   8 -10 -11 229.916 136.936   4
   8  10 -11 102.347 134.271   6
   8 -10 -10 1012.38 183.589   4
   8  10 -10 1062.87 196.565   6
   8 -10  -9-58.2896 97.8306   4
   8  10  -9-23.7588 98.3735   6
   8  10  -8 3022.11 175.768   4
   8  10  -8 2993.95 257.156   6
   8 -10  -8 2689.64 248.363   4
   8  10  -7 239.854 112.808   6
   8 -10  -7 353.602 131.379   4
   8  10  -6 41097.7 818.874   6
   8 -10  -6 41832.2 862.868   4
   8 -10  -5 422.254 75.7964   6
   8  10  -5 368.854 101.465   6
   8 -10  -5 564.242 129.546   4
   8 -10  -4 144.434 53.5342   6
   8  10  -4 67.2930 80.6700   6
   8 -10  -4-11.9859 79.9427   4
   8  10  -3 392.402 99.7579   6
   8 -10  -3 398.800 45.4708   6
   8 -10  -3 389.848 110.060   4
   8  10  -2 15210.9 437.879   6
   8 -10  -2 15729.4 495.108   4
   8  10  -1 15422.5 434.192   6
   8 -10  -1 16006.4 501.180   4
   8 -10   0 1053.05 74.2477   5
   8  10   0 1133.95 132.736   6
   8 -10   0 1161.72 155.260   4
   8  10   1 1095.39 139.799   6
   8 -10   1 900.185 93.2234   5
   8 -10   2 17712.9 432.387   5
   8  11 -11 5607.05 406.715   6
   8 -11 -11 5842.82 408.728   4
   8  11 -10 3724.28 326.865   6
   8 -11 -10 4118.10 336.707   4
   8 -11  -9 665.670 149.075   4
   8  11  -9 747.289 151.764   6
   8 -11  -8 587.134 125.919   4
   8  11  -8 958.243 170.967   6
   8  11  -7 6243.52 354.383   6
   8 -11  -7 6364.58 359.554   4
   8  11  -6 9059.69 401.542   6
   8 -11  -6 8832.27 414.954   4
   8 -11  -5 8243.82 280.955   6
   8  11  -5 8865.64 379.519   6
   8 -11  -5 9569.20 415.379   4
   8 -11  -4 513.458 68.8986   6
   8  11  -4 422.574 101.461   6
   8 -11  -4 478.091 117.156   4
   8 -11  -3 1148.27 72.8617   6
   8  11  -3 1291.23 149.956   6
   8 -11  -3 1263.82 164.209   4
   8  11  -2 8858.57 343.344   6
   8 -11  -2 8448.66 372.451   4
   8  11  -1 2333.22 182.965   6
   8 -11  -1 2511.47 215.355   4
   8 -11   0 8562.98 201.988   5
   8  11   0 8978.17 350.619   6
   8 -11   0 8963.60 383.769   4
   8 -11   1 19729.5 392.623   5
   8  11   1 19592.2 525.171   6
   8 -12 -11 124.259 135.293   4
   8  12 -11-101.141 116.712   6
   8 -12 -10 249.974 134.304   4
   8  12 -10-31.4446 134.065   6
   8 -12  -9 44.9147 103.578   4
   8  12  -9-116.831 118.382   6
   8 -12  -8 1474.32 196.359   4
   8  12  -8 1657.63 208.164   6
   8  12  -7 19696.0 628.064   6
   8 -12  -7 20866.9 654.945   4
   8  12  -6 3149.09 250.634   6
   8 -12  -6 3409.81 270.885   4
   8  12  -5 17287.8 532.469   6
   8 -12  -5 17731.5 569.865   4
   8 -12  -4 26.5780 42.7930   6
   8 -12  -4 5.62297 76.0401   4
   8  12  -3 34820.3 708.202   6
   8 -12  -3 32807.6 392.739   6
   8 -12  -3 34891.7 765.484   4
   8  12  -2 5447.19 284.974   6
   8 -12  -2 4872.18 290.752   4
   8  12  -1 1995.55 179.915   6
   8 -12  -1 2021.65 197.259   4
   8  12   0 7497.91 333.946   6
   8 -12   0 7356.93 360.470   4
   8  12   1 28693.6 652.188   6
   8 -13 -11 470.252 165.240   4
   8  13 -11 283.090 153.436   6
   8 -13 -10 1488.76 218.327   4
   8  13 -10 1443.57 233.108   6
   8 -13  -9 145.909 108.059   4
   8  13  -9 401.697 135.833   6
   8  13  -8 4209.53 316.848   6
   8 -13  -8 4056.19 318.679   4
   8  13  -7 374.325 126.553   6
   8 -13  -7 364.792 146.303   4
   8  13  -6 16470.8 558.126   6
   8 -13  -6 15925.3 562.351   4
   8  13  -5 23089.3 631.549   6
   8 -13  -5 23959.4 672.226   4
   8  13  -4 2551.40 214.720   6
   8 -13  -4 2540.82 220.442   4
   8  13  -3 947.652 134.023   6
   8 -13  -3 945.312 154.230   4
   8  13  -2 26962.9 636.573   6
   8 -13  -2 27715.0 681.245   4
   8  13  -1 9611.30 384.561   6
   8 -13  -1 10062.0 414.758   4
   8  13   0 37836.8 755.106   6
   8 -13   0 38294.0 810.348   4
   8  13   1 890.095 136.482   6
   8  14 -10 5228.02 390.769   6
   8 -14 -10 5387.39 396.587   4
   8 -14  -9 119.626 125.508   4
   8  14  -9 205.219 118.105   6
   8 -14  -8 23.7062 101.682   4
   8  14  -8 108.382 101.632   6
   8  14  -7 500.872 126.952   6
   8 -14  -7 676.189 162.679   4
   8  14  -6 1636.03 198.435   6
   8 -14  -6 1544.07 194.914   4
   8  14  -5 3089.72 247.101   6
   8 -14  -5 3113.07 261.949   4
   8  14  -4 4378.94 283.034   6
   8 -14  -4 4370.01 290.838   4
   8  14  -3 7711.19 364.095   6
   8 -14  -3 7952.27 383.978   4
   8  14  -2 1364.87 174.976   6
   8 -14  -2 1368.07 175.135   4
   8  14  -1 4192.49 267.084   6
   8 -14  -1 4307.74 281.640   4
   8  14   0 5635.37 310.344   6
   8 -14   0 5849.73 331.327   4
   8  14   1 3620.85 259.442   6
   8 -15 -10 1877.90 256.405   4
   8  15 -10 1659.66 246.885   6
   8 -15  -9 821.996 184.515   4
   8  15  -9 567.183 152.516   6
   8 -15  -8 254.793 126.613   4
   8  15  -8 126.220 109.009   6
   8  15  -7 5672.04 368.324   6
   8 -15  -7 6368.07 386.589   4
   8  15  -6 205.798 106.661   6
   8 -15  -6 286.014 119.377   4
   8  15  -5 59.2107 85.8211   6
   8 -15  -5 230.677 106.337   4
   8  15  -4 6936.41 359.306   6
   8 -15  -4 6465.52 363.331   4
   8  15  -3 6044.45 333.652   6
   8 -15  -3 5776.68 332.039   4
   8  15  -2 3191.41 241.958   6
   8 -15  -2 3713.31 271.029   4
   8  15  -1 2139.97 207.310   6
   8 -15  -1 2059.24 204.921   4
   8  15   0 345.907 119.273   6
   8 -15   0 184.798 106.754   4
   8  15   1 30344.1 734.947   6
   8  15   2 4543.03 303.813   6
   8  16 -10 4279.27 370.474   6
   8 -16 -10 4239.68 363.305   4
   8  16  -9 4453.05 367.618   6
   8 -16  -9 4086.23 354.265   4
   8  16  -8 4608.89 351.852   6
   8 -16  -8 5003.99 367.132   4
   8  16  -7 4473.00 330.246   6
   8 -16  -7 5002.34 352.818   4
   8  16  -6 12682.9 524.071   6
   8 -16  -6 13167.3 536.873   4
   8  16  -5 218.776 109.374   6
   8 -16  -5 129.491 93.0281   4
   8  16  -4 11367.3 473.008   6
   8 -16  -4 11072.4 473.526   4
   8  16  -3 3465.33 266.002   6
   8 -16  -3 3814.48 271.797   4
   8  16  -2 5566.17 330.379   6
   8 -16  -2 4932.18 308.063   4
   8  16  -1 4166.83 282.093   6
   8 -16  -1 4229.76 285.539   4
   8  16   0 14999.8 530.234   6
   8 -16   0 15116.2 525.825   4
   8  16   1 4075.89 286.702   6
   8  16   2 10020.8 451.690   6
   8  17 -10 1061.66 213.983   6
   8 -17  -9 1313.60 224.308   4
   8  17  -9 1349.97 229.354   6
   8 -17  -8 1032.50 191.502   4
   8  17  -8 1120.21 196.674   6
   8  17  -7 202.042 129.115   6
   8 -17  -7 33.2160 102.197   4
   8  17  -6 13640.1 557.345   6
   8 -17  -6 13720.7 557.208   4
   8  17  -5 287.339 115.980   6
   8 -17  -5 367.999 127.279   4
   8  17  -4 8521.51 423.986   6
   8 -17  -4 9433.59 440.001   4
   8  17  -3 760.291 153.351   6
   8 -17  -3 817.065 158.273   4
   8  17  -2 23924.4 677.015   6
   8 -17  -2 23544.5 664.932   4
   8  17  -1-9.13150 84.7552   6
   8 -17  -1 153.218 108.933   4
   8  17   0 28765.1 744.028   6
   8 -17   0 27700.5 722.529   4
   8  17   1 286.105 116.123   6
   8  17   2 1217.46 188.033   6
   8  18  -9 5349.84 404.081   6
   8 -18  -9 5050.65 389.996   4
   8 -18  -8 565.489 157.211   4
   8  18  -8 445.302 158.979   6
   8  18  -7 14796.4 610.594   6
   8 -18  -7 14631.7 600.530   4
   8  18  -6 731.351 165.824   6
   8 -18  -6 1076.58 179.501   4
   8  18  -5 20021.1 666.416   6
   8 -18  -5 20187.3 662.175   4
   8  18  -4 3341.64 276.972   6
   8 -18  -4 2872.84 253.163   4
   8  18  -3 26676.0 744.776   6
   8 -18  -3 27039.6 735.101   4
   8  18  -2 529.662 140.148   6
   8 -18  -2 405.786 125.900   4
   8  18  -1 10349.2 458.218   6
   8 -18  -1 10076.0 445.321   4
   8  18   0 343.605 125.037   6
   8 -18   0 175.740 94.1877   4
   8  18   1 6756.86 388.569   6
   8  18   2 10796.8 493.565   6
   8  19  -9 4053.42 360.022   6
   8 -19  -8 12.6550 125.649   4
   8  19  -8 44.4787 121.988   6
   8  19  -7 1581.29 223.350   6
   8 -19  -7 1309.76 203.257   4
   8  19  -6 989.264 183.939   6
   8 -19  -6 1077.54 187.332   4
   8  19  -5 2795.49 274.852   6
   8 -19  -5 2658.15 261.608   4
   8  19  -4 6279.54 386.432   6
   8 -19  -4 7040.36 396.451   4
   8  19  -3 1970.63 238.384   6
   8 -19  -3 1783.25 210.445   4
   8  19  -2 12335.8 517.930   6
   8 -19  -2 12039.9 493.003   4
   8  19  -1 9411.62 452.487   6
   8 -19  -1 9497.22 434.771   4
   8  19   0 390.437 133.817   6
   8 -19   0 116.041 105.376   4
   8  19   1 14073.5 562.302   6
   8  19   2 197.539 138.011   6
   8  20  -8 5285.97 409.196   6
   8 -20  -8 6013.91 422.506   4
   8  20  -7 256.733 134.475   6
   8 -20  -7-57.8183 108.833   4
   8  20  -6 479.948 158.404   6
   8 -20  -6 364.197 138.263   4
   8  20  -5 563.963 151.897   6
   8 -20  -5 644.947 158.087   4
   8  20  -4 269.317 127.937   6
   8 -20  -4 60.6009 93.4531   4
   8  20  -3 297.005 111.123   6
   8 -20  -3 464.078 133.204   4
   8  20  -2 5241.75 351.931   6
   8 -20  -2 4665.42 319.300   4
   8  20  -1 701.953 149.721   6
   8 -20  -1 756.453 148.445   4
   8  20   0 7249.65 418.297   6
   8 -20   0 7596.95 394.706   4
   8  20   1 124.949 115.632   6
   8  20   2 16828.4 644.793   6
   8  21  -8 1016.50 205.263   6
   8 -21  -8 1264.89 218.305   4
   8  21  -7 761.065 178.674   6
   8 -21  -7 794.287 172.334   4
   8  21  -6 6458.73 425.444   6
   8 -21  -6 6346.88 409.287   4
   8  21  -5 2689.92 280.653   6
   8 -21  -5 2950.79 282.752   4
   8  21  -4 6617.05 419.578   6
   8 -21  -4 6863.68 403.465   4
   8  21  -3 1852.52 233.507   6
   8 -21  -3 1578.59 217.798   4
   8  21  -2 1261.72 197.313   6
   8 -21  -2 1183.93 176.100   4
   8  21  -1 3551.42 309.862   6
   8 -21  -1 3654.04 287.663   4
   8  21   0 956.566 178.797   6
   8 -21   0 1005.39 170.579   4
   8  21   1 11132.7 531.846   6
   8  21   2 112.417 109.490   6
   8  22  -7 1416.81 235.878   6
   8 -22  -7 1350.79 226.637   4
   8  22  -6 519.546 167.347   6
   8 -22  -6 495.010 146.196   4
   8  22  -5 12679.5 589.610   6
   8 -22  -5 12441.1 560.770   4
   8  22  -4 47.0784 107.293   6
   8 -22  -4 162.425 125.593   4
   8  22  -3 28574.0 846.771   6
   8 -22  -3 29707.4 818.855   4
   8  22  -2 3014.17 289.838   6
   8 -22  -2 2938.88 265.034   4
   8  22  -1 14036.9 598.214   6
   8 -22  -1 13278.1 535.138   4
   8  22   0 1222.19 201.619   6
   8 -22   0 1403.88 195.156   4
   8  22   1 3870.35 332.185   6
   8  22   2 5386.07 391.671   6
   8 -23  -7 207.597 133.587   4
   8  23  -6 3932.43 361.592   6
   8 -23  -6 3831.69 328.270   4
   8  23  -5 44.8895 110.351   6
   8 -23  -5 160.415 146.638   4
   8  23  -4 6916.27 444.234   6
   8 -23  -4 6923.54 417.223   4
   8  23  -3 908.759 183.121   6
   8 -23  -3 603.751 141.418   4
   8  23  -2 10418.5 529.626   6
   8 -23  -2 10114.8 479.824   4
   8  23  -1 2291.31 258.672   6
   8 -23  -1 2547.10 254.027   4
   8  23   0 1575.35 230.390   6
   8 -23   0 1795.07 214.964   4
   8  23   1 2420.37 269.869   6
   8  23   2 1420.25 229.246   6
   8  24  -6 156.283 146.602   6
   8 -24  -6-112.426 112.868   4
   8  24  -5 135.837 132.630   6
   8 -24  -5-61.7534 107.326   4
   8  24  -4 61.9304 115.479   6
   8 -24  -4-142.109 132.991   4
   8  24  -3 3956.82 342.968   6
   8 -24  -3 4365.69 336.656   4
   8  24  -2 817.270 190.510   6
   8 -24  -2 389.429 133.544   4
   8  24  -1 4398.54 360.267   6
   8 -24  -1 5025.43 347.863   4
   8  24   0 3844.37 337.360   6
   8 -24   0 4128.97 308.007   4
   8  24   1 497.585 167.473   6
   8  24   2 2765.92 307.036   6
   8  25  -5 1404.19 242.294   6
   8 -25  -5 1693.52 236.026   4
   8  25  -4-80.3364 124.212   6
   8 -25  -4-36.9425 104.530   4
   8  25  -3 271.366 157.858   6
   8 -25  -3 196.841 119.533   4
   8  25  -2 1538.69 238.116   6
   8 -25  -2 1266.89 199.045   4
   8  25  -1 6523.08 450.764   6
   8 -25  -1 6146.36 383.798   4
   8  25   0 1030.50 208.469   6
   8 -25   0 823.040 165.565   4
   8  25   1 13374.4 632.737   6
   8  25   2 467.038 159.649   6
   8 -26  -5 2403.44 274.494   4
   8 -26  -4 156.996 119.984   4
   8  26  -3 1564.78 259.267   6
   8 -26  -3 959.667 181.826   4
   8  26  -2 238.603 137.134   6
   8 -26  -2-51.0107 106.713   4
   8  26  -1 121.981 140.829   6
   8 -26  -1 160.094 111.083   4
   8  26   0 3370.60 338.738   6
   8 -26   0 3628.91 301.305   4
   8 -27  -4 9443.14 519.348   4
   8 -27  -3 281.504 133.371   4
   8 -27  -2 7665.59 444.313   4
   8 -27  -1 589.037 151.938   4
   8 -28  -3 7374.26 450.577   4
   8 -28  -2-28.8208 117.121   4
   8 -28  -1 8395.30 465.496   4
   9   0 -12 1977.82 253.183   6
   9   0 -12 1801.40 211.403   4
   9   0 -11-87.2069 117.170   6
   9   0 -11-71.0514 100.710   4
   9   0 -10 276.563 126.436   6
   9   0 -10 587.747 135.719   4
   9   0  -9 63.0926 82.2379   6
   9   0  -9 142.678 100.381   4
   9   0  -8 5430.51 306.765   4
   9   0  -8 5609.44 303.065   6
   9   0  -7 65.9917 84.0697   4
   9   0  -7 76.6468 71.1627   6
   9   0  -6 39562.1 774.596   4
   9   0  -6 38875.1 652.099   6
   9   0  -5-39.8407 73.8527   4
   9   0  -5-46.5338 43.3730   6
   9   0  -4 406.086 101.333   4
   9   0  -4 417.417 67.4290   6
   9   0  -3-28.7339 72.9680   4
   9   0  -3 6.03559 28.8167   6
   9   0  -2 12517.6 202.401   6
   9   1 -12 259.918 137.715   6
   9  -1 -12 467.247 161.354   6
   9   1 -12 136.123 110.851   4
   9  -1 -12 415.223 128.675   4
   9   1 -11 1841.64 232.524   6
   9  -1 -11 1751.52 227.594   6
   9   1 -11 1995.86 213.560   4
   9  -1 -11 1789.25 218.375   4
   9   1 -10 3842.07 278.429   4
   9  -1 -10 3661.80 279.665   4
   9   1 -10 3364.77 278.504   6
   9  -1 -10 3372.27 276.748   6
   9   1  -9 899.628 166.716   6
   9  -1  -9 594.867 143.574   6
   9   1  -9 661.297 145.065   4
   9  -1  -9 720.462 156.495   4
   9   1  -8 4303.60 268.180   4
   9  -1  -8 4355.70 280.201   4
   9   1  -8 4155.48 264.776   6
   9  -1  -8 4328.09 268.440   6
   9   1  -7 126.923 90.5163   4
   9  -1  -7 97.3198 93.0338   4
   9   1  -7-53.4782 73.8561   6
   9  -1  -7 193.425 76.3991   6
   9   1  -6 227.120 94.1280   4
   9  -1  -6 273.419 106.339   4
   9   1  -6 215.257 79.9657   6
   9  -1  -6 223.890 75.3996   6
   9   1  -5 8168.34 345.101   4
   9  -1  -5 8082.19 352.987   4
   9   1  -5 7942.47 274.181   6
   9  -1  -5 7952.34 260.274   6
   9   1  -4 923.824 134.534   4
   9  -1  -4 592.882 113.731   4
   9   1  -4 683.872 82.0111   6
   9  -1  -4 678.859 70.6457   6
   9  -1  -3 2347.82 197.585   4
   9  -1  -3 2219.29 96.6993   6
   9   1  -3 2422.30 121.047   6
   9  -1  -2 130.825 18.9301   6
   9   1  -2 209.086 40.7494   6
   9  -2 -13 4801.36 361.898   4
   9   2 -12 1978.92 257.489   6
   9  -2 -12 1975.33 252.890   6
   9  -2 -12 1601.95 216.985   4
   9   2 -11 2795.54 241.466   4
   9  -2 -11 2806.18 263.963   4
   9   2 -11 2760.28 279.332   6
   9  -2 -11 2509.14 259.045   6
   9   2 -10 237.040 127.471   6
   9  -2 -10 274.571 133.991   6
   9   2 -10 220.566 114.149   4
   9  -2 -10 182.644 119.531   4
   9   2  -9 38826.6 800.546   4
   9   2  -9 37361.5 836.073   6
   9  -2  -9 38541.2 847.398   4
   9  -2  -9 36608.8 809.900   6
   9   2  -8 4570.22 275.213   4
   9  -2  -8 4744.34 297.910   4
   9   2  -8 4507.71 281.315   6
   9  -2  -8 4589.58 271.804   6
   9   2  -7 23178.1 588.478   4
   9  -2  -7 23551.6 626.084   4
   9   2  -7 23035.4 569.500   6
   9  -2  -7 22516.8 536.695   6
   9   2  -6 701.987 123.095   4
   9   2  -6 624.722 102.112   6
   9  -2  -6 630.021 121.859   4
   9  -2  -6 481.058 85.7882   6
   9   2  -5 4818.45 267.153   4
   9  -2  -5 5038.19 286.922   4
   9   2  -5 4704.62 218.971   6
   9  -2  -5 4565.36 194.710   6
   9   2  -4 183.631 80.7177   4
   9  -2  -4 41.3076 71.7735   4
   9   2  -4 96.6405 47.4676   6
   9  -2  -4 224.445 47.0973   6
   9  -2  -3 6065.15 310.725   4
   9  -2  -3 5180.28 128.669   6
   9   2  -3 5608.01 195.148   6
   9   2  -2 8996.86 222.569   6
   9   2  -1 11590.1 243.708   6
   9  -3 -13 3865.75 336.447   4
   9   3 -12 5332.89 393.579   6
   9  -3 -12 5215.20 368.738   4
   9   3 -11 1470.61 220.338   6
   9   3 -11 1494.02 186.969   4
   9  -3 -11 1716.62 218.626   4
   9   3 -10 18455.3 562.492   4
   9   3 -10 17310.0 618.503   6
   9  -3 -10 17716.3 609.109   4
   9   3  -9 189.356 106.509   4
   9   3  -9 278.894 121.632   6
   9  -3  -9 22.7129 98.3484   4
   9   3  -8 16149.9 498.364   4
   9   3  -8 15402.9 509.091   6
   9  -3  -8 16146.2 539.652   4
   9  -3  -8 15369.4 483.135   6
   9   3  -7 2302.01 194.280   4
   9  -3  -7 2303.63 208.962   4
   9   3  -7 2558.56 207.398   6
   9  -3  -7 2399.85 182.018   6
   9   3  -6 2528.12 197.726   4
   9  -3  -6 2629.75 223.261   4
   9   3  -6 2546.61 187.415   6
   9  -3  -6 2500.09 167.182   6
   9   3  -5 3140.55 214.161   4
   9  -3  -5 3710.40 251.597   4
   9   3  -5 3293.77 189.766   6
   9  -3  -5 3304.79 162.539   6
   9   3  -4 5844.69 288.514   4
   9  -3  -4 6000.93 310.768   4
   9   3  -4 5898.53 230.161   6
   9  -3  -4 5596.69 172.870   6
   9  -3  -3 1570.63 60.1557   6
   9   3  -3 1630.36 114.283   6
   9  -3  -3 1829.41 179.799   4
   9   3  -2 228.305 55.2926   6
   9  -3  -2 169.779 86.4939   4
   9   3  -1 7282.42 210.901   6
   9  -4 -13 3818.50 341.007   4
   9   4 -12 525.478 173.843   6
   9  -4 -12 532.296 157.341   4
   9   4 -11 2492.97 265.584   6
   9  -4 -11 2706.46 266.324   4
   9   4 -10 1223.20 164.071   4
   9   4 -10 1062.42 183.860   6
   9  -4 -10 1400.62 204.579   4
   9   4  -9 8433.32 364.713   4
   9   4  -9 8352.00 408.441   6
   9  -4  -9 8465.10 418.366   4
   9   4  -8 220.080 91.8100   4
   9   4  -8 182.711 107.453   6
   9  -4  -8 200.464 118.212   4
   9   4  -7 197.802 83.8968   4
   9   4  -7 92.5388 82.6916   6
   9  -4  -7 47.0010 82.9146   4
   9   4  -6 13115.3 424.809   4
   9   4  -6 12059.6 396.237   6
   9  -4  -6 12723.6 466.635   4
   9  -4  -6 12200.8 350.289   6
   9   4  -5 1753.74 171.878   4
   9   4  -5 1498.02 138.807   6
   9  -4  -5 1472.02 170.485   4
   9  -4  -5 1596.10 117.451   6
   9  -4  -4 5372.56 297.014   4
   9   4  -4 5237.40 224.880   6
   9  -4  -4 5319.79 160.550   6
   9   4  -3 5567.69 215.508   6
   9  -4  -3 6206.17 318.627   4
   9   4  -2 15990.0 344.259   6
   9  -4  -2 17016.5 521.787   4
   9   4  -1 43.4155 42.4119   6
   9  -5 -12 426.812 158.130   4
   9   5 -12 506.264 162.906   6
   9   5 -11 2483.49 280.551   6
   9  -5 -11 2590.21 268.158   4
   9   5 -10 180.580 95.4907   4
   9   5 -10 66.1207 113.122   6
   9  -5 -10 220.784 131.128   4
   9   5  -9 4886.21 275.631   4
   9   5  -9 4307.70 307.229   6
   9  -5  -9 4536.47 321.523   4
   9   5  -8 1841.68 171.301   4
   9   5  -8 1337.49 170.138   6
   9  -5  -8 1810.77 209.483   4
   9   5  -7 5021.01 266.953   4
   9   5  -7 4781.12 282.212   6
   9  -5  -7 5195.31 318.419   4
   9   5  -6 8516.14 339.733   4
   9   5  -6 8578.64 343.815   6
   9  -5  -6 8566.52 385.763   4
   9  -5  -6 8812.93 296.784   6
   9   5  -5 20741.6 523.177   4
   9   5  -5 20790.3 494.900   6
   9  -5  -5 21191.0 596.633   4
   9  -5  -5 20834.3 388.098   6
   9   5  -4-6.02944 53.9608   6
   9  -5  -4 241.750 89.4631   4
   9  -5  -4 128.111 36.4438   6
   9   5  -3 17201.0 392.426   6
   9  -5  -3 18347.1 543.744   4
   9   5  -2 115.956 56.7454   6
   9  -5  -2 88.3920 95.1090   4
   9   5  -1 20251.0 405.264   6
   9  -6 -12 380.332 166.122   4
   9   6 -12 1023.04 221.082   6
   9   6 -11 2967.84 301.499   6
   9  -6 -11 3161.45 297.124   4
   9   6 -10 429.005 139.717   6
   9  -6 -10 228.791 127.824   4
   9   6  -9 2241.81 185.440   4
   9   6  -9 1884.52 210.755   6
   9  -6  -9 2205.40 234.454   4
   9   6  -8 832.736 129.120   4
   9   6  -8 777.544 140.905   6
   9  -6  -8 928.156 159.584   4
   9   6  -7 16425.7 465.199   4
   9   6  -7 15570.8 498.618   6
   9  -6  -7 15943.2 546.513   4
   9   6  -6 7800.55 323.663   4
   9   6  -6 7458.71 327.895   6
   9  -6  -6 7921.14 379.812   4
   9   6  -5 141.802 78.3774   6
   9  -6  -5 108.987 91.7138   4
   9  -6  -5 90.4898 49.8978   6
   9  -6  -4 13259.3 245.779   6
   9   6  -4 14552.5 398.463   6
   9  -6  -4 14924.6 502.828   4
   9  -6  -4 14182.1 246.228   6
   9   6  -3 1143.15 117.913   6
   9  -6  -3 1213.51 160.088   4
   9   6  -2 7813.09 269.462   6
   9  -6  -2 8047.49 368.389   4
   9   6  -1 809.724 97.4984   6
   9   6   0 9092.04 295.380   6
   9   7 -12 11688.3 596.863   6
   9  -7 -12 12360.4 591.448   4
   9  -7 -11 329.587 139.834   4
   9   7 -11 554.670 147.412   6
   9   7 -10 13842.3 574.838   6
   9  -7 -10 14275.3 583.139   4
   9   7  -9 1173.65 145.364   4
   9   7  -9 895.176 157.519   6
   9  -7  -9 1216.88 193.406   4
   9   7  -8 17561.6 475.021   4
   9   7  -8 16464.1 556.756   6
   9  -7  -8 15908.6 571.034   4
   9   7  -7 311.784 91.3673   4
   9   7  -7 327.723 104.011   6
   9  -7  -7 326.638 121.604   4
   9   7  -6 26265.0 571.495   4
   9   7  -6 25812.3 613.091   6
   9  -7  -6 26828.8 696.969   4
   9  -7  -5 823.621 86.8702   6
   9   7  -5 875.773 121.373   6
   9  -7  -5 1187.58 163.274   4
   9  -7  -4 3690.26 127.576   6
   9   7  -4 4091.83 223.065   6
   9  -7  -4 4493.45 288.463   4
   9  -7  -4 3868.32 126.697   6
   9   7  -3 4674.11 227.618   6
   9  -7  -3 4803.32 287.487   4
   9   7  -2 388.808 79.3223   6
   9  -7  -2 255.334 103.134   4
   9   7  -1 359.721 76.6798   6
   9  -7  -1 327.778 107.068   4
   9   7   0 3536.75 196.277   6
   9  -8 -12 1032.61 215.374   4
   9   8 -12 1266.87 232.520   6
   9   8 -11 9321.87 507.588   6
   9  -8 -11 10261.9 528.959   4
   9   8 -10 484.225 149.929   6
   9  -8 -10 585.163 166.336   4
   9   8  -9 17260.2 611.291   6
   9  -8  -9 18087.7 639.147   4
   9   8  -8 2734.47 194.009   4
   9   8  -8 2282.01 227.979   6
   9  -8  -8 2495.22 249.448   4
   9   8  -7 11498.8 377.193   4
   9   8  -7 10533.6 428.140   6
   9  -8  -7 11860.1 487.474   4
   9   8  -6 907.840 143.311   6
   9  -8  -6 679.665 147.635   4
   9   8  -5 8576.59 346.379   6
   9  -8  -5 9105.78 414.349   4
   9  -8  -4 1133.06 72.8509   6
   9   8  -4 1178.03 134.525   6
   9  -8  -4 1084.92 152.029   4
   9  -8  -4 1147.06 71.5573   6
   9   8  -3 613.156 107.786   6
   9  -8  -3 338.244 114.379   4
   9   8  -2 5376.51 248.767   6
   9  -8  -2 5515.97 315.596   4
   9   8  -1 5062.98 238.870   6
   9  -8  -1 5084.69 303.767   4
   9   8   0 23423.7 510.260   6
   9  -9 -11 1373.05 225.895   4
   9   9 -11 1384.47 226.706   6
   9   9 -10 1473.86 216.474   6
   9  -9 -10 1615.43 223.899   4
   9   9  -9 711.865 163.590   6
   9  -9  -9 806.492 175.180   4
   9   9  -8 516.220 97.7494   4
   9   9  -8 362.346 115.979   6
   9  -9  -8 389.501 124.553   4
   9   9  -7 4079.98 281.916   6
   9  -9  -7 4100.75 303.177   4
   9   9  -6 10372.9 411.531   6
   9  -9  -6 10679.7 457.154   4
   9   9  -5 4505.05 262.556   6
   9  -9  -5 4930.93 308.165   4
   9   9  -4 2442.11 195.928   6
   9  -9  -4 3019.13 248.821   4
   9  -9  -4 2484.96 103.407   6
   9   9  -3 31815.2 627.112   6
   9  -9  -3 31746.9 745.688   4
   9   9  -2 5123.23 254.366   6
   9  -9  -2 4992.27 303.007   4
   9   9  -1 1025.38 121.227   6
   9  -9  -1 946.924 146.593   4
   9   9   0 4757.16 246.015   6
   9 -10 -11 1037.36 207.240   4
   9  10 -11 747.488 177.720   6
   9 -10 -10 1798.16 236.964   4
   9  10 -10 1756.37 240.017   6
   9  10  -9 167.544 122.891   6
   9 -10  -9 128.436 123.826   4
   9  10  -8 1801.11 209.604   6
   9 -10  -8 1684.56 215.556   4
   9  10  -7 14567.3 524.659   6
   9 -10  -7 14113.3 545.965   4
   9  10  -6 15513.2 516.670   6
   9 -10  -6 15966.1 564.101   4
   9  10  -5 87.1926 73.1300   6
   9 -10  -5-94.6521 103.494   4
   9  10  -4 27625.6 623.548   6
   9 -10  -4 29358.1 728.988   4
   9  10  -3 283.321 96.4965   6
   9 -10  -3 228.649 115.033   4
   9  10  -2 11159.3 380.915   6
   9 -10  -2 11068.4 452.181   4
   9  10  -1 1645.38 154.117   6
   9 -10  -1 1812.24 195.374   4
   9  10   0 23880.4 555.928   6
   9 -11 -11 683.001 185.263   4
   9  11 -11 555.489 170.962   6
   9  11 -10 9840.01 515.452   6
   9 -11 -10 10270.0 525.749   4
   9  11  -9 257.203 116.846   6
   9 -11  -9 267.953 126.522   4
   9  11  -8 13477.7 536.058   6
   9 -11  -8 14210.0 573.480   4
   9  11  -7 2686.96 251.290   6
   9 -11  -7 3012.90 269.698   4
   9  11  -6 20454.3 601.880   6
   9 -11  -6 22216.1 670.355   4
   9  11  -5 7395.40 350.166   6
   9 -11  -5 7135.52 374.621   4
   9  11  -4 2440.28 203.880   6
   9 -11  -4 2397.85 230.805   4
   9  11  -3 8909.00 360.094   6
   9 -11  -3 9355.53 415.962   4
   9  11  -2 489.849 104.304   6
   9 -11  -2 372.225 116.912   4
   9  11  -1 1939.71 175.027   6
   9 -11  -1 2039.32 209.731   4
   9  11   0 329.780 97.4008   6
   9  11   1 14531.0 465.500   6
   9  12 -11 9410.91 536.034   6
   9 -12 -10 689.722 191.479   4
   9  12 -10 149.406 134.950   6
   9  12  -9 3881.14 320.388   6
   9 -12  -9 4414.15 341.075   4
   9  12  -8 415.530 133.131   6
   9 -12  -8 611.157 146.824   4
   9  12  -7 17977.1 604.427   6
   9 -12  -7 18366.3 636.932   4
   9  12  -6 541.951 116.780   6
   9 -12  -6 1065.78 177.897   4
   9  12  -5 14816.5 505.974   6
   9 -12  -5 16004.1 570.488   4
   9  12  -4 2355.29 206.473   6
   9 -12  -4 2535.50 236.183   4
   9  12  -3 237.385 106.027   6
   9 -12  -3 208.927 102.362   4
   9  12  -2 799.950 123.980   6
   9 -12  -2 882.382 150.571   4
   9  12  -1 4499.74 267.487   6
   9 -12  -1 4256.05 297.830   4
   9  12   0 304.467 94.2266   6
   9  12   1 871.986 135.549   6
   9  13 -10 17203.7 691.226   6
   9 -13 -10 19487.8 739.789   4
   9  13  -9 271.954 130.773   6
   9 -13  -9 481.374 145.240   4
   9  13  -8 2685.26 260.913   6
   9 -13  -8 2509.15 266.360   4
   9  13  -7 1093.61 179.427   6
   9 -13  -7 992.255 176.132   4
   9  13  -6 7332.50 381.655   6
   9 -13  -6 8314.06 430.285   4
   9  13  -5 140.383 88.1528   6
   9 -13  -5 229.422 111.948   4
   9  13  -4 9614.32 407.626   6
   9 -13  -4 10149.1 452.763   4
   9  13  -3 6528.81 331.610   6
   9 -13  -3 6741.84 366.104   4
   9  13  -2 592.153 118.704   6
   9 -13  -2 524.695 125.221   4
   9  13  -1 255.487 97.1644   6
   9 -13  -1 430.921 130.557   4
   9  13   0 608.346 131.298   6
   9  13   1 41.0469 79.7412   6
   9 -14 -10 620.865 179.919   4
   9  14 -10 131.951 157.196   6
   9  14  -9 1.54327 115.652   6
   9 -14  -9 265.853 125.910   4
   9  14  -8 848.495 172.853   6
   9 -14  -8 843.804 176.474   4
   9  14  -7 3174.26 274.544   6
   9 -14  -7 3578.50 300.617   4
   9  14  -6 7744.37 399.047   6
   9 -14  -6 7640.78 420.146   4
   9  14  -5 6526.67 359.295   6
   9 -14  -5 6637.80 382.198   4
   9  14  -4 4150.66 280.215   6
   9 -14  -4 4688.07 322.832   4
   9  14  -3 368.087 117.756   6
   9 -14  -3 256.040 119.225   4
   9  14  -2 10792.8 429.410   6
   9 -14  -2 10463.7 453.806   4
   9  14  -1 1700.50 182.186   6
   9 -14  -1 1776.00 201.961   4
   9  14   0 15385.1 510.014   6
   9  14   1 340.007 109.828   6
   9  15 -10 2755.47 303.897   6
   9  15  -9 2287.60 272.197   6
   9 -15  -9 2586.24 286.368   4
   9  15  -8 2406.81 264.125   6
   9 -15  -8 2370.61 264.833   4
   9  15  -7 782.755 170.797   6
   9 -15  -7 480.773 137.226   4
   9  15  -6-37.2811 90.4221   6
   9 -15  -6 148.627 105.850   4
   9  15  -5 3785.41 280.393   6
   9 -15  -5 4309.26 316.624   4
   9  15  -4 3620.24 270.861   6
   9 -15  -4 3761.20 294.369   4
   9  15  -3 29018.1 725.542   6
   9 -15  -3 29182.4 767.936   4
   9  15  -2 1432.07 179.286   6
   9 -15  -2 1544.47 193.226   4
   9  15  -1 9744.07 420.913   6
   9 -15  -1 9489.12 439.486   4
   9  15   0 313.244 117.752   6
   9  15   1 41162.1 880.043   6
   9  16 -10 612.256 185.177   6
   9  16  -9 12032.0 584.588   6
   9 -16  -9 12416.6 600.502   4
   9  16  -8 3720.39 323.421   6
   9 -16  -8 3631.57 326.761   4
   9  16  -7 8220.01 449.873   6
   9 -16  -7 8196.23 456.424   4
   9  16  -6 4060.76 310.527   6
   9 -16  -6 3880.52 313.376   4
   9  16  -5 5968.29 359.319   6
   9 -16  -5 6307.60 384.049   4
   9  16  -4 9273.51 436.788   6
   9 -16  -4 9495.53 459.070   4
   9  16  -3 8577.22 412.825   6
   9 -16  -3 9057.00 441.100   4
   9  16  -2 16304.8 557.539   6
   9 -16  -2 17042.7 589.005   4
   9  16  -1 2186.89 217.260   6
   9 -16  -1 2557.45 242.329   4
   9  16   0 17613.2 579.358   6
   9  16   1 4242.45 306.107   6
   9  17  -9 275.856 158.952   6
   9 -17  -9 285.885 169.038   4
   9  17  -8 7617.63 458.598   6
   9 -17  -8 8105.71 478.844   4
   9  17  -7 2706.90 280.667   6
   9 -17  -7 2961.66 292.340   4
   9  17  -6 6804.71 407.305   6
   9 -17  -6 6662.25 409.884   4
   9  17  -5 162.268 125.773   6
   9 -17  -5 50.0360 108.493   4
   9  17  -4 6377.68 374.887   6
   9 -17  -4 6629.12 391.392   4
   9  17  -3 1279.36 184.947   6
   9 -17  -3 1373.86 199.808   4
   9  17  -2 2242.13 232.167   6
   9 -17  -2 2297.36 233.326   4
   9  17  -1 3689.38 282.220   6
   9 -17  -1 3495.67 278.643   4
   9  17   0 12364.0 503.040   6
   9 -17   0 12035.2 509.672   4
   9  17   1 2341.00 236.977   6
   9  18  -9 17387.7 721.836   6
   9  18  -8 201.706 139.136   6
   9 -18  -8 141.822 134.247   4
   9  18  -7 14293.6 609.065   6
   9 -18  -7 15269.1 632.710   4
   9  18  -6 1695.03 226.098   6
   9 -18  -6 1726.20 225.328   4
   9  18  -5 1581.41 213.104   6
   9 -18  -5 1499.16 216.844   4
   9  18  -4 2257.92 240.095   6
   9 -18  -4 2274.76 246.825   4
   9  18  -3 12962.6 532.049   6
   9 -18  -3 13200.0 548.545   4
   9  18  -2 2268.60 232.727   6
   9 -18  -2 2063.74 224.591   4
   9  18  -1 3997.26 301.698   6
   9 -18  -1 3804.44 304.553   4
   9  18   0 1813.58 220.075   6
   9 -18   0 2118.97 223.458   4
   9  18   1 945.224 176.411   6
   9  19  -8 3059.70 313.585   6
   9 -19  -8 2994.21 314.561   4
   9  19  -7 2914.22 298.864   6
   9 -19  -7 3072.27 307.004   4
   9  19  -6 868.917 176.468   6
   9 -19  -6 954.359 192.384   4
   9  19  -5 4000.64 319.298   6
   9 -19  -5 4547.10 339.825   4
   9  19  -4-118.301 100.289   6
   9 -19  -4 254.656 131.150   4
   9  19  -3 16576.6 616.450   6
   9 -19  -3 15967.1 603.515   4
   9  19  -2 260.856 135.632   6
   9 -19  -2 286.973 135.991   4
   9  19  -1 8396.55 439.981   6
   9 -19  -1 8006.88 423.173   4
   9  19   0 1330.81 197.015   6
   9 -19   0 1559.61 200.953   4
   9  19   1 11064.2 517.183   6
   9  20  -8 894.072 194.966   6
   9  20  -7-100.632 122.506   6
   9 -20  -7 281.150 139.311   4
   9  20  -6 13196.2 593.851   6
   9 -20  -6 13385.3 599.367   4
   9  20  -5 1480.27 229.220   6
   9 -20  -5 1517.99 208.974   4
   9  20  -4 14121.9 591.816   6
   9 -20  -4 13775.2 582.167   4
   9  20  -3 528.218 150.131   6
   9 -20  -3 960.571 183.343   4
   9  20  -2 12841.5 552.056   6
   9 -20  -2 13620.3 554.287   4
   9  20  -1 7536.47 426.463   6
   9 -20  -1 7403.29 418.366   4
   9  20   0 19741.2 682.908   6
   9 -20   0 19973.3 669.591   4
   9  20   1 256.966 139.685   6
   9  21  -7 1308.26 233.854   6
   9 -21  -7 1321.35 227.839   4
   9  21  -6 763.667 180.484   6
   9 -21  -6 736.242 168.962   4
   9  21  -5 444.793 145.374   6
   9 -21  -5 585.917 152.616   4
   9  21  -4-63.8098 126.346   6
   9 -21  -4-8.94744 103.031   4
   9  21  -3 8578.91 476.714   6
   9 -21  -3 9258.09 478.506   4
   9  21  -2-19.2694 104.903   6
   9 -21  -2 96.6977 111.381   4
   9  21  -1 14034.9 592.529   6
   9 -21  -1 14684.5 581.262   4
   9  21   0 122.807 125.755   6
   9 -21   0-51.9970 112.895   4
   9  21   1 4799.46 366.637   6
   9  22  -7 7946.50 497.573   6
   9  22  -6 333.110 169.480   6
   9 -22  -6 68.8655 125.786   4
   9  22  -5 5912.52 413.121   6
   9 -22  -5 6051.73 413.400   4
   9  22  -4 87.1249 108.891   6
   9 -22  -4 211.416 131.997   4
   9  22  -3 4039.13 345.275   6
   9 -22  -3 4230.07 333.903   4
   9  22  -2 5925.09 401.643   6
   9 -22  -2 6167.10 395.601   4
   9  22  -1 1149.66 206.760   6
   9 -22  -1 809.797 165.732   4
   9  22   0 4869.64 366.604   6
   9 -22   0 4699.82 343.484   4
   9  22   1 7129.50 448.798   6
   9  23  -6 709.423 186.646   6
   9  23  -5 3489.72 329.824   6
   9 -23  -5 3666.73 330.853   4
   9  23  -4 1468.80 228.981   6
   9 -23  -4 1910.34 253.797   4
   9  23  -3 1117.77 198.291   6
   9 -23  -3 1291.05 206.664   4
   9  23  -2 3960.35 352.251   6
   9 -23  -2 4256.76 338.968   4
   9  23  -1 937.776 190.135   6
   9 -23  -1 781.618 151.833   4
   9  23   0-62.8799 110.849   6
   9  23   1 185.685 134.880   6
   9  24  -5 2275.44 284.806   6
   9 -24  -5 2364.35 286.415   4
   9  24  -4 2067.77 274.839   6
   9 -24  -4 2287.34 263.916   4
   9  24  -3 1166.21 208.739   6
   9 -24  -3 1334.04 214.770   4
   9  24  -2 16236.0 681.240   6
   9 -24  -2 17061.8 658.933   4
   9  24  -1 297.897 150.019   6
   9 -24  -1 536.884 157.682   4
   9  24   0 5511.06 406.881   6
   9  24   1 1652.20 249.903   6
   9 -25  -4 781.980 177.697   4
   9  25  -3 942.455 202.121   6
   9 -25  -3 1049.20 195.331   4
   9  25  -2 604.080 182.010   6
   9 -25  -2 587.722 153.625   4
   9  25  -1 9987.17 551.353   6
   9 -25  -1 10235.5 514.260   4
   9  25   0 594.553 179.598   6
   9 -26  -3 317.182 140.705   4
   9 -26  -2 7280.36 445.561   4
   9 -26  -1 581.494 161.417   4
   9 -27  -2 522.933 153.390   4
   9 -27  -1 1866.18 247.016   4
  10   0 -12 257.912 123.692   6
  10   0 -12 181.844 117.430   4
  10   0 -11 45.8376 98.8360   6
  10   0 -11 10.1142 97.4380   4
  10   0 -10 10843.6 476.565   4
  10   0 -10 11372.7 493.473   6
  10   0  -9 44.3867 107.677   4
  10   0  -9-45.1536 85.8065   6
  10   0  -8 6139.31 344.681   4
  10   0  -8 5922.58 311.924   6
  10   0  -7 114.002 100.757   4
  10   0  -7 241.898 90.1274   6
  10   0  -6 16034.9 523.143   4
  10   0  -6 15090.4 404.180   6
  10   0  -5 246.391 118.014   4
  10   0  -5 38.9155 54.0456   6
  10   0  -4 48121.8 894.042   4
  10   0  -4 46127.3 542.845   6
  10   0  -3 16.0229 25.2656   6
  10   1 -12 991.041 198.136   6
  10  -1 -12 966.200 194.070   6
  10  -1 -12 1439.01 212.431   4
  10   1 -11 309.970 125.818   4
  10   1 -11 318.577 125.317   6
  10  -1 -11 22.1653 104.662   6
  10  -1 -11 317.006 128.874   4
  10   1 -10 2779.97 251.358   4
  10   1 -10 2442.43 246.263   6
  10  -1 -10 2126.80 226.607   6
  10  -1 -10 2558.36 247.893   4
  10   1  -9 9429.72 425.445   4
  10  -1  -9 9277.44 435.898   4
  10   1  -9 9457.02 423.132   6
  10  -1  -9 9689.91 419.120   6
  10   1  -8 3256.54 253.764   4
  10  -1  -8 3438.24 271.462   4
  10   1  -8 3340.05 243.205   6
  10  -1  -8 3154.54 227.899   6
  10   1  -7 21615.6 607.197   4
  10  -1  -7 22203.3 636.342   4
  10   1  -7 21005.0 532.728   6
  10  -1  -7 21380.2 523.116   6
  10   1  -6 4097.47 269.995   4
  10  -1  -6 4050.59 275.805   4
  10   1  -6 3785.23 213.328   6
  10  -1  -6 3854.01 206.223   6
  10   1  -5 41559.7 821.829   4
  10  -1  -5 41988.0 843.723   4
  10   1  -5 41668.7 619.904   6
  10  -1  -5 40543.2 566.403   6
  10   1  -4 234.335 112.681   4
  10  -1  -4 352.964 124.781   4
  10   1  -4 247.516 62.6864   6
  10  -1  -4 225.938 53.3687   6
  10  -1  -3 4911.72 124.424   6
  10   1  -3 5419.12 173.005   6
  10   1  -2 4442.06 133.800   6
  10   2 -12 641.793 164.493   6
  10  -2 -12 526.965 162.232   6
  10  -2 -12 687.400 169.076   4
  10   2 -11 7247.48 392.261   4
  10  -2 -11 6821.64 408.235   4
  10   2 -11 6892.55 420.942   6
  10  -2 -11 6542.54 402.945   6
  10   2 -10 4308.45 300.005   4
  10  -2 -10 3778.52 298.488   4
  10   2 -10 3769.74 297.132   6
  10  -2 -10 3627.18 284.854   6
  10   2  -9 2552.32 233.748   4
  10   2  -9 2098.33 215.116   6
  10  -2  -9 2599.51 243.786   4
  10  -2  -9 2315.68 214.269   6
  10   2  -8 642.179 117.504   4
  10   2  -8 706.044 130.075   6
  10  -2  -8 582.268 130.997   4
  10  -2  -8 546.154 114.655   6
  10  -2  -7 2435.23 230.653   4
  10   2  -7 2118.95 203.323   4
  10   2  -7 2057.48 180.897   6
  10  -2  -7 2117.86 176.363   6
  10   2  -6 82.9079 87.8056   4
  10  -2  -6 118.691 111.422   4
  10   2  -6 97.1418 69.5601   6
  10  -2  -6 9.22834 55.9432   6
  10   2  -5 8601.39 380.164   4
  10  -2  -5 8797.24 398.060   4
  10   2  -5 8682.24 295.570   6
  10  -2  -5 8492.48 255.004   6
  10  -2  -4 11361.9 453.060   4
  10   2  -4 10796.5 296.297   6
  10  -2  -4 10396.5 224.652   6
  10   2  -3 13291.1 293.019   6
  10  -2  -3 12828.6 476.174   4
  10   2  -2 1323.11 89.2610   6
  10  -3 -12 3517.09 315.129   4
  10  -3 -12 3368.10 312.577   6
  10   3 -12 3325.59 323.285   6
  10   3 -11 955.719 184.507   6
  10  -3 -11 787.836 172.178   6
  10  -3 -11 920.408 185.290   4
  10   3 -10 5814.12 334.741   4
  10   3 -10 5468.08 355.433   6
  10  -3 -10 5537.61 359.202   4
  10  -3 -10 5216.34 336.168   6
  10   3  -9 147.565 91.8593   4
  10   3  -9-93.7549 100.393   6
  10  -3  -9 177.388 126.919   4
  10  -3  -9 18.0540 82.0713   6
  10   3  -8 1934.07 191.793   4
  10   3  -8 1885.69 188.642   6
  10  -3  -8 2026.83 221.932   4
  10  -3  -8 1801.46 172.605   6
  10   3  -7 76.0428 73.5501   4
  10   3  -7 22.8419 75.9353   6
  10  -3  -7 6.56040 85.1215   4
  10  -3  -7 102.235 73.5509   6
  10   3  -6 10361.6 411.772   4
  10  -3  -6 10366.7 444.970   4
  10   3  -6 9543.02 345.898   6
  10  -3  -6 9965.80 314.590   6
  10   3  -5 2056.75 191.675   4
  10   3  -5 1933.26 153.493   6
  10  -3  -5 1712.22 116.369   6
  10  -3  -5 1934.19 206.064   4
  10  -3  -4 12299.8 471.257   4
  10   3  -4 12356.3 331.334   6
  10  -3  -4 11305.9 215.209   6
  10   3  -3 158.492 65.8869   6
  10  -3  -3 69.2665 97.6916   4
  10   3  -2 48676.9 554.343   6
  10   4 -12 600.471 171.514   6
  10  -4 -12 470.261 162.641   6
  10  -4 -12 450.639 147.563   4
  10   4 -11 3011.05 302.069   6
  10  -4 -11 2890.22 274.001   6
  10  -4 -11 2959.33 283.309   4
  10   4 -10 2062.59 208.489   4
  10   4 -10 1915.79 225.365   6
  10  -4 -10 1619.19 203.837   6
  10  -4 -10 1994.62 229.342   4
  10   4  -9 771.361 139.603   4
  10   4  -9 640.904 145.822   6
  10  -4  -9 607.672 132.402   6
  10  -4  -9 698.416 169.575   4
  10   4  -8 11882.9 443.807   4
  10  -4  -8 12137.3 504.955   4
  10   4  -8 11903.4 457.534   6
  10  -4  -8 12043.7 421.778   6
  10   4  -7 1540.66 169.804   4
  10   4  -7 1157.67 149.597   6
  10  -4  -7 1414.72 189.172   4
  10  -4  -7 1162.16 133.885   6
  10   4  -6 61066.4 975.718   4
  10  -4  -6 62201.6 1078.26   4
  10   4  -6 60410.8 879.904   6
  10  -4  -6 60518.5 748.414   6
  10   4  -5 1425.72 135.745   6
  10  -4  -5 1530.44 108.701   6
  10  -4  -5 1624.70 199.951   4
  10  -4  -4 25918.9 681.466   4
  10   4  -4 24807.2 490.372   6
  10  -4  -4 21542.8 267.058   6
  10   4  -3 18540.4 394.944   6
  10  -4  -3 18877.5 584.412   4
  10   4  -2 273.903 73.5830   6
  10   4  -1 37195.4 514.763   6
  10   5 -12 339.385 143.952   6
  10  -5 -12 214.947 151.015   4
  10   5 -11 2521.50 273.424   6
  10  -5 -11 2266.61 260.636   4
  10   5 -10 75.6352 82.2610   4
  10   5 -10-140.007 117.284   6
  10  -5 -10 170.067 122.319   4
  10   5  -9 9963.55 408.068   4
  10   5  -9 9544.40 442.428   6
  10  -5  -9 10154.7 485.149   4
  10  -5  -9 9234.72 403.284   6
  10   5  -8 3828.56 256.025   4
  10   5  -8 3649.23 262.118   6
  10  -5  -8 4015.30 303.498   4
  10  -5  -8 4043.54 247.011   6
  10   5  -7 17149.7 515.540   4
  10   5  -7 16751.5 509.853   6
  10  -5  -7 17009.5 581.762   4
  10  -5  -7 16550.4 441.174   6
  10   5  -6 2026.22 192.345   4
  10  -5  -6 2543.17 245.985   4
  10   5  -6 2142.06 187.929   6
  10  -5  -6 1892.16 141.393   6
  10  -5  -5 27129.2 710.577   4
  10   5  -5 25765.6 551.598   6
  10  -5  -5 25799.5 398.296   6
  10  -5  -4 1027.96 54.2368   6
  10   5  -4 1346.57 131.944   6
  10  -5  -4 1766.05 206.160   4
  10   5  -3 32157.0 547.038   6
  10  -5  -3 31898.8 767.827   4
  10   5  -2 2062.02 139.134   6
  10   5  -1 6249.74 232.103   6
  10   6 -12 330.776 136.099   6
  10  -6 -12 267.526 140.093   4
  10   6 -11 586.597 155.309   6
  10  -6 -11 364.382 161.596   4
  10   6 -10 1966.76 230.389   6
  10  -6 -10 2098.25 236.886   4
  10   6  -9 93.7166 90.6401   4
  10   6  -9 76.7488 108.379   6
  10  -6  -9 209.025 134.590   4
  10   6  -8 5651.59 297.826   4
  10   6  -8 5125.33 313.999   6
  10  -6  -8 6194.34 372.484   4
  10   6  -7 3676.77 244.648   4
  10   6  -7 3645.54 252.242   6
  10  -6  -7 4070.87 303.938   4
  10  -6  -7 3548.49 213.038   6
  10   6  -6 20450.4 544.631   6
  10  -6  -6 21583.6 652.722   4
  10  -6  -6 21197.0 431.527   6
  10   6  -5 4471.96 240.548   6
  10  -6  -5 5050.89 318.320   4
  10  -6  -5 4811.21 170.128   6
  10   6  -4 14593.5 407.919   6
  10  -6  -4 15555.2 542.582   4
  10   6  -3 18695.0 438.157   6
  10  -6  -3 20221.0 615.632   4
  10   6  -2 4163.24 208.513   6
  10  -6  -2 4122.55 291.214   4
  10   6  -1 2954.88 170.903   6
  10   7 -11 296.828 143.348   6
  10  -7 -11 253.289 128.924   4
  10   7 -10 1465.21 206.390   6
  10  -7 -10 1408.42 212.295   4
  10   7  -9 9751.98 390.435   4
  10   7  -9 9104.05 446.217   6
  10  -7  -9 10082.0 489.368   4
  10   7  -8 2843.21 220.511   4
  10   7  -8 2589.30 233.884   6
  10  -7  -8 2858.57 268.008   4
  10   7  -7 455.745 112.985   4
  10   7  -7 305.295 101.821   6
  10  -7  -7 617.527 148.272   4
  10   7  -6 653.956 126.319   6
  10  -7  -6 792.646 169.683   4
  10  -7  -6 692.218 92.9951   6
  10   7  -5 3378.26 216.844   6
  10  -7  -5 4159.62 301.597   4
  10  -7  -5 3541.05 144.448   6
  10   7  -4 11854.7 381.542   6
  10  -7  -4 12096.6 484.275   4
  10   7  -3 6872.78 284.310   6
  10  -7  -3 7641.52 390.350   4
  10   7  -2 39100.8 636.839   6
  10  -7  -2 41048.8 885.661   4
  10   7  -1 1944.45 156.770   6
  10   8 -11 4045.70 345.976   6
  10  -8 -11 4503.05 373.441   4
  10   8 -10 1559.61 218.883   6
  10  -8 -10 1777.46 237.705   4
  10   8  -9 978.290 171.430   6
  10  -8  -9 1081.14 201.346   4
  10   8  -8 298.686 85.8057   4
  10   8  -8 330.243 118.531   6
  10  -8  -8 410.526 164.289   4
  10   8  -7 125.997 101.652   6
  10  -8  -7 570.156 163.435   4
  10   8  -6 5445.17 297.898   6
  10  -8  -6 5532.48 346.640   4
  10  -8  -6 5180.63 215.747   6
  10   8  -5 9462.40 369.295   6
  10  -8  -5 9454.42 438.850   4
  10   8  -4 6979.05 303.239   6
  10  -8  -4 6973.12 374.503   4
  10   8  -3 34109.5 641.643   6
  10  -8  -3 35516.9 831.502   4
  10   8  -2 341.892 95.2686   6
  10  -8  -2 456.066 138.685   4
  10   8  -1 18529.7 458.329   6
  10   8   0 516.246 102.468   6
  10   9 -11 983.805 194.292   6
  10  -9 -11 777.518 187.808   4
  10   9 -10 1924.25 242.292   6
  10  -9 -10 2254.24 267.096   4
  10   9  -9 2578.88 261.350   6
  10  -9  -9 2490.44 268.570   4
  10   9  -8 4212.48 306.108   6
  10  -9  -8 4630.24 346.550   4
  10   9  -7 36411.3 817.844   6
  10  -9  -7 39575.1 929.514   4
  10   9  -6 82.4087 86.6308   6
  10  -9  -6 69.7903 113.100   4
  10   9  -5 7115.53 333.102   6
  10  -9  -5 6807.50 384.498   4
  10   9  -4 256.025 96.9483   6
  10  -9  -4 424.693 143.221   4
  10   9  -3 1256.30 147.505   6
  10  -9  -3 1110.53 168.696   4
  10   9  -2 11552.8 379.623   6
  10  -9  -2 12963.9 506.679   4
  10   9  -1 1335.51 141.046   6
  10   9   0 1935.68 169.208   6
  10  10 -11 102.731 115.082   6
  10  10 -10 8904.57 489.771   6
  10 -10 -10 8929.24 499.188   4
  10  10  -9-15.4213 112.076   6
  10 -10  -9 131.899 124.980   4
  10  10  -8 31149.4 810.419   6
  10 -10  -8 32021.5 877.246   4
  10  10  -7 268.242 115.464   6
  10 -10  -7 154.189 122.998   4
  10  10  -6 23338.2 632.571   6
  10 -10  -6 24289.6 726.065   4
  10  10  -5 1495.83 171.974   6
  10 -10  -5 1612.99 203.476   4
  10  10  -4 16422.5 495.303   6
  10 -10  -4 17530.7 597.804   4
  10  10  -3 7235.97 324.148   6
  10 -10  -3 7604.23 396.985   4
  10  10  -2 6304.67 296.353   6
  10 -10  -2 6666.08 377.925   4
  10  10  -1 192.583 91.5445   6
  10  10   0 1120.59 145.871   6
  10  11 -11 920.113 196.385   6
  10  11 -10 3665.68 323.502   6
  10 -11 -10 4278.32 360.384   4
  10  11  -9 1869.69 228.739   6
  10 -11  -9 2131.26 259.063   4
  10  11  -8 217.631 127.915   6
  10 -11  -8 452.509 161.308   4
  10  11  -7 4554.49 308.658   6
  10 -11  -7 5198.35 360.640   4
  10  11  -6 2737.94 235.544   6
  10 -11  -6 2955.76 277.661   4
  10  11  -5 4218.03 274.894   6
  10 -11  -5 4533.45 325.080   4
  10  11  -4 4775.48 281.882   6
  10 -11  -4 4666.72 321.669   4
  10  11  -3 4479.72 272.665   6
  10 -11  -3 4857.77 332.410   4
  10  11  -2 338.973 94.9998   6
  10 -11  -2 209.892 118.086   4
  10  11  -1 4395.51 258.896   6
  10  11   0 3686.18 239.110   6
  10  12 -10-151.437 122.875   6
  10 -12 -10 80.3507 117.252   4
  10  12  -9 1202.54 207.190   6
  10 -12  -9 996.048 198.679   4
  10  12  -8 184.730 119.834   6
  10 -12  -8 334.874 144.483   4
  10  12  -7 31.7595 90.8057   6
  10 -12  -7 210.977 143.859   4
  10  12  -6 2625.08 235.158   6
  10 -12  -6 3083.37 279.018   4
  10  12  -5 767.410 137.215   6
  10 -12  -5 906.129 164.141   4
  10  12  -4 5602.83 311.425   6
  10 -12  -4 5718.05 359.673   4
  10  12  -3 31457.1 707.068   6
  10 -12  -3 32336.3 817.551   4
  10  12  -2 2986.21 222.729   6
  10 -12  -2 3186.01 269.181   4
  10  12  -1 18604.8 537.858   6
  10 -12  -1 19071.1 634.098   4
  10  12   0 544.000 130.650   6
  10  13 -10 1255.94 215.491   6
  10  13  -9 1246.88 207.609   6
  10 -13  -9 1321.57 214.705   4
  10  13  -8 5047.81 359.402   6
  10 -13  -8 6150.01 411.526   4
  10  13  -7 1797.07 203.508   6
  10 -13  -7 1754.94 220.918   4
  10  13  -6 163.832 103.561   6
  10 -13  -6 379.053 132.001   4
  10  13  -5 2969.26 244.186   6
  10 -13  -5 3083.95 279.485   4
  10  13  -4 4485.14 287.979   6
  10 -13  -4 4690.44 329.300   4
  10  13  -3 13011.8 471.796   6
  10 -13  -3 13298.8 537.272   4
  10  13  -2 9199.98 392.146   6
  10 -13  -2 9668.92 458.798   4
  10  13  -1 1782.84 186.533   6
  10 -13  -1 1438.76 194.718   4
  10  13   0 11899.0 448.963   6
  10  14 -10 1702.11 250.181   6
  10  14  -9 463.917 157.301   6
  10 -14  -9 506.011 168.066   4
  10  14  -8 3859.34 322.568   6
  10 -14  -8 3940.64 336.023   4
  10  14  -7 234.403 132.257   6
  10 -14  -7 477.194 163.092   4
  10  14  -6 1407.94 180.985   6
  10 -14  -6 1532.43 214.236   4
  10  14  -5 263.629 105.880   6
  10 -14  -5 181.099 126.693   4
  10  14  -4 16827.1 561.290   6
  10 -14  -4 17396.8 628.918   4
  10  14  -3 3678.62 271.220   6
  10 -14  -3 3549.57 297.392   4
  10  14  -2 8693.77 391.546   6
  10 -14  -2 9158.70 454.057   4
  10  14  -1 4507.72 289.890   6
  10 -14  -1 4774.38 330.437   4
  10  14   0 631.942 128.281   6
  10  15 -10 372.746 170.578   6
  10  15  -9 8145.56 482.892   6
  10 -15  -9 8616.44 507.760   4
  10  15  -8 90.9918 130.520   6
  10 -15  -8 68.1424 120.266   4
  10  15  -7 22649.0 728.949   6
  10 -15  -7 23922.2 782.476   4
  10  15  -6 14.8246 93.1529   6
  10 -15  -6 121.555 125.704   4
  10  15  -5 8068.10 411.706   6
  10 -15  -5 7898.74 439.470   4
  10  15  -4 382.772 123.112   6
  10 -15  -4 558.485 164.151   4
  10  15  -3 9513.71 428.956   6
  10 -15  -3 9374.17 464.174   4
  10  15  -2 99.0183 85.0940   6
  10 -15  -2 149.669 110.358   4
  10  15  -1 1452.14 184.840   6
  10 -15  -1 1434.81 198.051   4
  10  15   0 476.265 133.604   6
  10  15   1 2844.04 253.589   6
  10  16  -9 2419.00 284.303   6
  10  16  -8 8184.14 475.280   6
  10 -16  -8 8770.83 501.538   4
  10  16  -7 766.156 171.584   6
  10 -16  -7 947.033 189.766   4
  10  16  -6 7701.49 430.574   6
  10 -16  -6 9005.94 480.731   4
  10  16  -5 736.076 153.469   6
  10 -16  -5 633.283 163.819   4
  10  16  -4 1840.43 212.540   6
  10 -16  -4 1945.03 234.590   4
  10  16  -3 5695.46 345.174   6
  10 -16  -3 5862.80 380.506   4
  10  16  -2 3537.03 278.806   6
  10 -16  -2 3867.66 309.001   4
  10  16  -1 3475.59 272.374   6
  10 -16  -1 3696.94 303.957   4
  10  16   0 434.870 141.714   6
  10  16   1 463.978 125.075   6
  10  17  -9 354.944 150.347   6
  10  17  -8 89.3621 122.095   6
  10 -17  -8 224.954 138.485   4
  10  17  -7 953.705 184.394   6
  10 -17  -7 1329.57 217.942   4
  10  17  -6 2493.96 261.812   6
  10 -17  -6 2697.60 279.188   4
  10  17  -5 558.119 140.886   6
  10 -17  -5 673.131 159.816   4
  10  17  -4 5385.96 360.152   6
  10 -17  -4 4739.08 353.529   4
  10  17  -3 953.910 177.820   6
  10 -17  -3 1088.25 190.912   4
  10  17  -2 13348.4 529.619   6
  10 -17  -2 13785.2 566.701   4
  10  17  -1 148.433 101.948   6
  10 -17  -1 107.521 101.719   4
  10  17   0 21680.1 676.839   6
  10  17   1 825.685 175.390   6
  10  18  -8 1151.68 215.644   6
  10  18  -7 134.462 137.189   6
  10 -18  -7-32.8520 116.422   4
  10  18  -6 2256.31 252.807   6
  10 -18  -6 2656.53 278.550   4
  10  18  -5 508.508 149.119   6
  10 -18  -5 1014.51 194.257   4
  10  18  -4 8754.03 458.955   6
  10 -18  -4 8899.92 478.550   4
  10  18  -3 12908.2 541.182   6
  10 -18  -3 12553.3 552.538   4
  10  18  -2 985.802 171.962   6
  10 -18  -2 899.023 176.496   4
  10  18  -1 4666.90 330.879   6
  10 -18  -1 4866.39 354.375   4
  10  18   0 409.791 147.045   6
  10  18   1 12994.5 556.348   6
  10  19  -8 227.255 156.592   6
  10  19  -7 5511.38 396.007   6
  10 -19  -7 6058.21 434.644   4
  10  19  -6 1024.14 204.439   6
  10 -19  -6 1031.33 211.262   4
  10  19  -5 2149.99 254.988   6
  10 -19  -5 2327.67 267.764   4
  10  19  -4 200.466 129.008   6
  10 -19  -4 212.659 134.303   4
  10  19  -3 8013.65 443.717   6
  10 -19  -3 8919.61 476.901   4
  10  19  -2 691.910 159.287   6
  10 -19  -2 731.647 165.095   4
  10  19  -1 4411.18 330.440   6
  10 -19  -1 4307.51 334.909   4
  10  19   0 2305.91 250.056   6
  10  19   1 2033.03 244.667   6
  10  20  -7 576.082 181.043   6
  10  20  -6 11236.7 556.689   6
  10 -20  -6 12615.1 599.956   4
  10  20  -5 377.698 147.886   6
  10 -20  -5 399.040 160.392   4
  10  20  -4 6566.46 414.708   6
  10 -20  -4 7548.10 454.835   4
  10  20  -3 401.646 145.601   6
  10 -20  -3 367.883 141.164   4
  10  20  -2 4611.65 352.970   6
  10 -20  -2 4784.05 352.059   4
  10  20  -1 47.1023 107.728   6
  10 -20  -1 143.032 115.900   4
  10  20   0 599.277 157.432   6
  10  20   1 514.385 159.039   6
  10  21  -7 2857.55 307.012   6
  10  21  -6 172.904 160.613   6
  10  21  -5 7645.33 471.173   6
  10 -21  -5 8553.38 497.106   4
  10  21  -4 307.701 129.495   6
  10 -21  -4 342.081 142.199   4
  10  21  -3 4037.17 338.063   6
  10 -21  -3 4049.50 335.859   4
  10  21  -2 5088.42 375.989   6
  10 -21  -2 5485.25 380.826   4
  10  21  -1 988.928 191.502   6
  10 -21  -1 809.087 171.366   4
  10  21   0 5119.87 376.481   6
  10  21   1 1051.67 209.008   6
  10  22  -6 545.163 172.374   6
  10  22  -5 3721.16 352.972   6
  10 -22  -5 4108.32 359.779   4
  10  22  -4 398.146 148.560   6
  10 -22  -4 784.167 180.304   4
  10  22  -3 1424.28 221.028   6
  10 -22  -3 1316.79 220.938   4
  10  22  -2 1866.20 250.472   6
  10 -22  -2 2155.38 265.692   4
  10  22  -1 4146.20 343.272   6
  10 -22  -1 4095.23 343.934   4
  10  22   0 284.461 138.109   6
  10  22   1 10213.7 545.753   6
  10  23  -5 704.061 179.187   6
  10  23  -4 1830.20 261.917   6
  10 -23  -4 1633.58 243.754   4
  10  23  -3 256.575 140.087   6
  10 -23  -3 493.538 157.547   4
  10  23  -2 8085.22 488.405   6
  10 -23  -2 7794.29 464.048   4
  10  23  -1 54.9304 111.691   6
  10 -23  -1-49.7838 111.237   4
  10  23   0 5122.60 390.767   6
  10  23   1 226.668 145.811   6
  10  24  -3 1780.71 249.213   6
  10  24  -2 2490.95 290.575   6
  10 -24  -2 2545.96 291.501   4
  10  24  -1 467.396 164.391   6
  10 -24  -1 605.741 159.686   4
  11   0 -12 2872.54 292.888   6
  11   0 -11 143.282 125.544   4
  11   0 -11 551.380 160.211   6
  11   0 -10 6137.11 378.820   4
  11   0 -10 6241.64 370.792   6
  11   0  -9-0.38067 97.0379   4
  11   0  -9-58.5114 81.5878   6
  11   0  -8 5515.69 341.470   4
  11   0  -8 5322.85 291.292   6
  11   0  -7-65.6510 98.1496   4
  11   0  -7 121.578 86.2062   6
  11   0  -6 32.8819 94.8793   4
  11   0  -6 349.654 76.3902   6
  11   0  -5-30.7939 96.6810   4
  11   0  -5 87.5257 52.6614   6
  11  -1 -12 549.560 153.915   4
  11   1 -12 635.924 172.989   6
  11  -1 -12 778.836 176.604   6
  11   1 -11 8656.81 448.809   4
  11  -1 -11 8320.72 459.306   4
  11   1 -11 7767.23 442.613   6
  11  -1 -11 7763.24 436.939   6
  11   1 -10 459.160 142.871   4
  11  -1 -10 408.747 143.262   4
  11   1 -10 514.054 146.526   6
  11  -1 -10 350.537 131.732   6
  11   1  -9 986.253 167.012   4
  11  -1  -9 1175.56 187.399   4
  11   1  -9 1187.87 163.820   6
  11  -1  -9 1135.08 160.602   6
  11   1  -8 158.146 94.9741   4
  11  -1  -8 24.6224 100.296   4
  11   1  -8-26.3281 70.6804   6
  11  -1  -8 209.652 92.4955   6
  11   1  -7 7004.50 368.482   4
  11  -1  -7 7342.15 393.220   4
  11   1  -7 7409.08 318.283   6
  11  -1  -7 7345.02 304.575   6
  11   1  -6 278.992 109.327   4
  11  -1  -6 312.034 109.219   4
  11   1  -6 137.832 66.5678   6
  11  -1  -6 124.236 57.5838   6
  11   1  -5 6567.27 362.305   4
  11  -1  -5 6647.21 367.192   4
  11   1  -5 6352.86 237.695   6
  11  -1  -4 9160.41 422.556   4
  11   2 -12-85.5261 130.100   6
  11  -2 -12-46.1401 122.651   4
  11   2 -11 205.715 132.835   6
  11  -2 -11 229.374 143.327   4
  11  -2 -11 133.771 113.851   6
  11   2 -10 615.360 148.944   4
  11   2 -10 1019.84 180.135   6
  11  -2 -10 936.712 180.705   4
  11  -2 -10 704.115 141.216   6
  11   2  -9 5676.03 344.662   4
  11  -2  -9 5354.46 357.630   4
  11   2  -9 5423.73 324.562   6
  11  -2  -9 5077.22 305.382   6
  11   2  -8 975.339 164.976   4
  11  -2  -8 730.105 150.862   4
  11   2  -8 760.554 133.226   6
  11  -2  -8 869.355 131.287   6
  11   2  -7 4649.85 305.983   4
  11  -2  -7 3783.10 285.929   4
  11   2  -7 4245.57 248.671   6
  11  -2  -7 4146.07 227.793   6
  11   2  -6 3255.38 253.080   4
  11  -2  -6 3235.63 264.635   4
  11   2  -6 3228.06 198.649   6
  11  -2  -5 10590.3 461.641   4
  11   2  -5 9994.99 309.303   6
  11   2  -4 158.532 62.4892   6
  11  -2  -4 164.493 111.968   4
  11   3 -12-42.0711 136.102   6
  11  -3 -12 26.4158 112.739   4
  11   3 -11 690.703 172.772   6
  11  -3 -11 416.539 145.538   4
  11   3 -10 3725.60 285.278   4
  11  -3 -10 3426.97 303.430   4
  11   3 -10 3698.64 297.722   6
  11  -3 -10 3705.61 281.657   6
  11   3  -9 3181.01 264.968   4
  11  -3  -9 3367.17 288.356   4
  11   3  -9 3383.65 267.824   6
  11  -3  -9 3324.11 248.331   6
  11   3  -8 606.035 126.329   4
  11   3  -8 576.500 129.902   6
  11  -3  -8 573.432 143.613   4
  11  -3  -8 444.788 101.908   6
  11   3  -7 4474.39 297.364   4
  11  -3  -7 4415.96 312.186   4
  11   3  -7 4222.28 256.314   6
  11   3  -6 10922.9 447.635   4
  11  -3  -6 11332.2 487.230   4
  11   3  -6 11428.9 377.625   6
  11   3  -5 637.039 99.8009   6
  11  -3  -5 733.649 151.978   4
  11   3  -4 19248.3 406.480   6
  11  -3  -4 20032.5 634.103   4
  11   3  -3 369.763 73.3044   6
  11   4 -12 2492.00 291.047   6
  11  -4 -12 2516.68 285.080   4
  11   4 -11 99.1051 119.519   6
  11  -4 -11 419.809 161.340   4
  11   4 -10 1301.61 180.157   4
  11   4 -10 1635.69 213.549   6
  11  -4 -10 1326.17 197.584   4
  11   4  -9 1429.94 188.695   4
  11   4  -9 1560.81 192.297   6
  11  -4  -9 1299.95 191.923   4
  11   4  -8 4882.15 309.193   4
  11  -4  -8 4667.92 332.516   4
  11   4  -8 4538.72 287.091   6
  11   4  -7 263.333 100.078   4
  11   4  -7 316.934 101.273   6
  11  -4  -7 235.130 115.328   4
  11  -4  -6 2798.10 254.242   4
  11   4  -6 2537.50 191.464   6
  11  -4  -5 11492.2 487.408   4
  11   4  -5 11173.1 353.526   6
  11   4  -4 633.175 96.9804   6
  11  -4  -4 647.129 155.532   4
  11   4  -3 5255.53 209.272   6
  11  -4  -3 5391.35 339.341   4
  11   5 -12 26.5550 120.136   6
  11   5 -11 4680.93 359.929   6
  11  -5 -11 4880.48 374.688   4
  11   5 -10 271.749 113.784   6
  11  -5 -10 205.782 116.330   4
  11   5  -9 5316.65 322.013   4
  11   5  -9 5481.15 343.483   6
  11  -5  -9 5681.75 378.998   4
  11   5  -8 939.399 147.329   4
  11   5  -8 812.224 145.584   6
  11  -5  -8 879.502 169.889   4
  11   5  -7 2813.35 229.411   4
  11  -5  -7 2946.39 270.901   4
  11   5  -7 2668.10 215.338   6
  11   5  -6 824.778 121.600   6
  11  -5  -6 666.436 142.703   4
  11   5  -5 1163.14 128.419   6
  11  -5  -5 1027.75 165.161   4
  11   5  -4-36.0543 61.2268   6
  11  -5  -4 41.6177 91.4476   4
  11   5  -3 3299.54 183.804   6
  11  -5  -3 2880.88 257.201   4
  11   5  -2 1191.82 112.582   6
  11   6 -11 22.8367 123.684   6
  11  -6 -11 358.984 158.928   4
  11   6 -10 1409.93 203.748   6
  11  -6 -10 1676.05 229.322   4
  11   6  -9 644.145 131.099   4
  11   6  -9 644.805 148.040   6
  11  -6  -9 814.008 187.451   4
  11   6  -8 2929.78 234.118   4
  11   6  -8 2805.71 240.043   6
  11  -6  -8 3260.07 293.907   4
  11   6  -7 490.688 112.516   6
  11  -6  -7 865.201 170.200   4
  11   6  -6 149.730 85.0358   6
  11  -6  -6 356.570 131.650   4
  11   6  -5 3154.80 205.203   6
  11  -6  -5 3400.30 278.619   4
  11   6  -4 3437.12 204.620   6
  11  -6  -4 3461.29 278.518   4
  11   6  -3 16005.5 407.615   6
  11  -6  -3 15320.2 574.767   4
  11   6  -2 20941.8 450.839   6
  11   6  -1 17112.6 401.230   6
  11   7 -11 1508.10 226.550   6
  11  -7 -11 1505.80 239.865   4
  11   7 -10 729.592 163.338   6
  11  -7 -10 723.505 167.247   4
  11   7  -9 28.0217 102.924   6
  11  -7  -9 357.125 147.147   4
  11   7  -8 2278.84 228.118   6
  11  -7  -8 1865.95 228.714   4
  11   7  -7 211.966 89.6519   6
  11  -7  -7 223.999 109.310   4
  11   7  -6 10897.7 411.418   6
  11  -7  -6 10800.9 495.849   4
  11   7  -5-36.5715 61.9627   6
  11  -7  -5 1.91178 92.8065   4
  11   7  -4 15977.1 445.027   6
  11  -7  -4 16258.4 591.111   4
  11   7  -3 2644.27 185.559   6
  11  -7  -3 2653.85 250.610   4
  11   7  -2 14274.4 391.706   6
  11   7  -1 851.538 115.820   6
  11   8 -11-242.369 127.849   6
  11   8 -10 330.366 132.903   6
  11  -8 -10 344.170 146.316   4
  11   8  -9 1109.95 188.130   6
  11  -8  -9 910.173 180.120   4
  11   8  -8 5878.48 351.031   6
  11  -8  -8 6293.76 408.634   4
  11   8  -7 8994.56 404.678   6
  11  -8  -7 9223.09 469.533   4
  11   8  -6 1935.14 190.601   6
  11  -8  -6 1844.25 219.960   4
  11   8  -5 5788.93 294.815   6
  11  -8  -5 5672.48 363.760   4
  11   8  -4 2435.62 194.902   6
  11  -8  -4 2139.19 233.045   4
  11   8  -3 4834.56 248.374   6
  11  -8  -3 4829.87 334.406   4
  11   8  -2 515.533 97.8565   6
  11   8  -1 28837.9 575.366   6
  11   9 -11 883.276 185.958   6
  11   9 -10 1264.45 213.682   6
  11  -9 -10 1328.92 225.716   4
  11   9  -9 3916.55 315.504   6
  11  -9  -9 4652.97 363.918   4
  11   9  -8 3850.05 293.768   6
  11  -9  -8 3967.66 329.634   4
  11   9  -7 2047.47 215.579   6
  11  -9  -7 2165.05 244.177   4
  11   9  -6 4525.38 282.479   6
  11  -9  -6 5191.26 360.869   4
  11   9  -5 3605.30 244.899   6
  11  -9  -5 3663.45 297.650   4
  11   9  -4 1234.08 143.917   6
  11  -9  -4 1467.11 194.095   4
  11   9  -3 326.617 96.2524   6
  11  -9  -3 337.811 121.510   4
  11   9  -2 3918.27 228.740   6
  11  -9  -2 4354.72 321.196   4
  11   9  -1 2418.36 189.098   6
  11  10 -11-98.3734 112.869   6
  11  10 -10 6175.52 417.116   6
  11 -10 -10 6528.75 439.205   4
  11  10  -9 101.183 107.592   6
  11 -10  -9-250.374 138.770   4
  11  10  -8 4718.76 329.032   6
  11 -10  -8 4891.15 365.351   4
  11  10  -7 594.791 132.571   6
  11 -10  -7 592.907 164.749   4
  11  10  -6 1442.76 171.726   6
  11 -10  -6 1331.51 204.542   4
  11  10  -5 213.663 87.9851   6
  11 -10  -5 245.140 109.851   4
  11  10  -4 165.261 80.3047   6
  11 -10  -4 478.672 150.250   4
  11  10  -3 567.998 108.414   6
  11 -10  -3 466.693 134.440   4
  11  10  -2 773.791 128.316   6
  11 -10  -2 822.054 167.579   4
  11  10  -1 242.151 81.2889   6
  11  11 -10 37.3459 116.540   6
  11  11  -9 1667.00 225.667   6
  11 -11  -9 1573.93 225.775   4
  11  11  -8 335.228 123.701   6
  11 -11  -8 644.804 168.874   4
  11  11  -7 3777.06 286.049   6
  11 -11  -7 4196.03 338.790   4
  11  11  -6 219.595 110.138   6
  11 -11  -6 142.131 121.151   4
  11  11  -5 496.505 117.787   6
  11 -11  -5 319.215 130.507   4
  11  11  -4 3756.08 252.680   6
  11 -11  -4 4232.40 322.187   4
  11  11  -3 291.323 107.495   6
  11 -11  -3 560.176 156.510   4
  11  11  -2 4360.11 265.181   6
  11 -11  -2 4951.86 342.965   4
  11  11  -1 1148.59 150.399   6
  11  11   0 3291.18 234.385   6
  11  12 -10 276.707 139.346   6
  11  12  -9 62.9753 117.413   6
  11 -12  -9-67.4672 112.571   4
  11  12  -8 2491.21 259.135   6
  11 -12  -8 3094.13 308.287   4
  11  12  -7 8127.79 421.855   6
  11 -12  -7 8606.42 480.081   4
  11  12  -6 3551.82 272.498   6
  11 -12  -6 3860.46 326.340   4
  11  12  -5 3081.73 247.825   6
  11 -12  -5 3461.56 300.433   4
  11  12  -4 172.007 97.5490   6
  11 -12  -4 31.4687 96.0321   4
  11  12  -3 20626.0 584.960   6
  11 -12  -3 21824.6 719.272   4
  11  12  -2 49.1846 76.6356   6
  11 -12  -2 114.640 125.117   4
  11  12  -1 29088.2 680.259   6
  11  12   0 603.858 137.126   6
  11  13 -10 1533.54 237.190   6
  11  13  -9 94.1076 122.504   6
  11  13  -8 287.043 128.355   6
  11 -13  -8 721.081 182.275   4
  11  13  -7 1600.73 215.747   6
  11 -13  -7 1669.48 237.275   4
  11  13  -6 7375.90 396.094   6
  11 -13  -6 7786.16 455.267   4
  11  13  -5 3739.12 279.115   6
  11 -13  -5 4574.87 351.014   4
  11  13  -4 10376.2 437.996   6
  11 -13  -4 10311.6 504.697   4
  11  13  -3 502.133 138.236   6
  11 -13  -3 142.384 128.501   4
  11  13  -2 8412.84 384.431   6
  11 -13  -2 8399.46 453.010   4
  11  13  -1 1151.72 165.752   6
  11  13   0 17950.4 565.634   6
  11  14  -9 2354.05 275.470   6
  11  14  -8 3566.08 307.927   6
  11 -14  -8 4730.89 378.946   4
  11  14  -7 3962.47 313.957   6
  11 -14  -7 3787.16 337.668   4
  11  14  -6 2457.68 242.390   6
  11 -14  -6 2607.63 288.797   4
  11  14  -5 5180.79 339.466   6
  11 -14  -5 5583.53 388.322   4
  11  14  -4 391.761 117.036   6
  11 -14  -4 550.755 166.170   4
  11  14  -3 4236.15 292.990   6
  11 -14  -3 4733.32 348.233   4
  11  14  -2 535.697 128.178   6
  11 -14  -2 517.923 161.964   4
  11  14  -1 9067.89 409.855   6
  11  14   0 15481.8 541.269   6
  11  15  -9 2585.29 286.216   6
  11  15  -8 508.108 153.992   6
  11  15  -7 6519.89 406.847   6
  11 -15  -7 6583.86 444.852   4
  11  15  -6 266.747 128.543   6
  11 -15  -6 123.909 119.684   4
  11  15  -5 5971.57 367.189   6
  11 -15  -5 7220.14 439.369   4
  11  15  -4 514.169 133.431   6
  11 -15  -4 591.902 155.039   4
  11  15  -3 1699.02 197.081   6
  11 -15  -3 1468.99 219.260   4
  11  15  -2 297.850 106.794   6
  11 -15  -2 604.408 164.016   4
  11  15  -1 8733.77 415.196   6
  11  15   0 339.871 133.067   6
  11  16  -9 834.272 191.067   6
  11  16  -8 1070.65 200.878   6
  11  16  -7 1084.30 178.542   6
  11 -16  -7 1183.64 221.488   4
  11  16  -6 53.4679 104.611   6
  11 -16  -6 318.289 145.325   4
  11  16  -5 3793.19 306.585   6
  11 -16  -5 4202.74 348.475   4
  11  16  -4 510.059 147.426   6
  11 -16  -4 231.851 123.807   4
  11  16  -3 4186.61 303.064   6
  11 -16  -3 5144.05 373.567   4
  11  16  -2 39.0154 87.7200   6
  11 -16  -2-76.6340 117.760   4
  11  16  -1 245.931 107.294   6
  11  16   0 2367.80 240.044   6
  11  17  -8 380.058 145.373   6
  11  17  -7 206.976 120.222   6
  11  17  -6 1640.50 226.577   6
  11 -17  -6 1757.77 253.381   4
  11  17  -5 61.5667 117.880   6
  11 -17  -5 377.295 169.539   4
  11  17  -4 5157.15 350.673   6
  11 -17  -4 4245.97 344.109   4
  11  17  -3 548.834 146.541   6
  11 -17  -3 347.098 143.096   4
  11  17  -2 5564.14 356.610   6
  11 -17  -2 5928.02 401.109   4
  11  17  -1-163.998 108.047   6
  11  17   0 6852.54 400.568   6
  11  18  -8 311.855 132.576   6
  11  18  -7 2682.75 281.202   6
  11  18  -6 804.254 180.348   6
  11 -18  -6 500.675 157.013   4
  11  18  -5 14620.8 606.813   6
  11 -18  -5 14733.7 646.879   4
  11  18  -4 78.2527 116.782   6
  11 -18  -4 206.781 121.371   4
  11  18  -3 5827.50 377.536   6
  11 -18  -3 6310.56 425.128   4
  11  18  -2 3738.25 306.103   6
  11 -18  -2 3879.99 335.475   4
  11  18  -1 9750.27 477.372   6
  11  18   0 2829.37 279.004   6
  11  19  -7 203.213 131.428   6
  11  19  -6 279.762 137.367   6
  11  19  -5 1227.58 215.032   6
  11 -19  -5 1198.21 211.095   4
  11  19  -4 3541.14 312.143   6
  11 -19  -4 3559.82 337.715   4
  11  19  -3 307.147 131.842   6
  11 -19  -3 464.613 161.169   4
  11  19  -2 11110.2 524.775   6
  11 -19  -2 12285.6 587.618   4
  11  19  -1 1996.65 233.994   6
  11  19   0 3897.92 325.031   6
  11  20  -6 961.956 209.132   6
  11  20  -5 45.0756 112.251   6
  11  20  -4 307.147 148.196   6
  11 -20  -4 256.976 141.257   4
  11  20  -3 656.022 170.496   6
  11 -20  -3 674.188 191.342   4
  11  20  -2 3587.05 315.144   6
  11 -20  -2 3536.88 328.046   4
  11  20  -1 912.697 173.477   6
  11  20   0 5647.84 395.314   6
  11  21  -6 4865.02 385.488   6
  11  21  -5 466.474 159.559   6
  11  21  -4 3746.53 342.811   6
  11  21  -3 348.680 141.479   6
  11 -21  -3 405.136 150.606   4
  11  21  -2 291.492 140.812   6
  11 -21  -2 171.561 121.068   4
  11  21  -1 562.284 174.578   6
  11  21   0-19.7868 110.760   6
  11  22  -5 1435.15 224.402   6
  11  22  -4 706.968 179.204   6
  11  22  -3 4774.98 378.186   6
  11  22  -2-80.9503 127.690   6
  11  22  -1 5520.39 403.111   6
  11  22   0 50.3014 121.818   6
  11  23  -3 3171.46 326.005   6
  11  23  -2 2659.37 295.434   6
  11  23  -1 192.077 130.678   6
  12   0 -11-59.1206 112.838   4
  12   0 -10 233.267 129.946   4
  12   0  -9-69.9087 102.493   4
  12   0  -8 239.749 122.469   4
  12   0  -7 28.0154 97.1304   4
  12   0  -6 11733.5 509.729   4
  12  -1 -11 875.573 187.118   4
  12   1 -10 2626.59 264.137   4
  12  -1 -10 2418.27 266.127   4
  12   1  -9-48.3140 102.140   4
  12  -1  -9-120.206 121.907   4
  12   1  -8 5440.12 354.678   4
  12  -1  -8 5056.33 351.588   4
  12   1  -7 64.9680 114.950   4
  12  -1  -7 196.693 126.151   4
  12   1  -6 11483.3 496.419   4
  12  -1  -6 11121.6 498.734   4
  12  -1  -5 654.476 157.861   4
  12  -2 -11 6257.76 421.604   4
  12   2 -10 246.523 117.879   4
  12  -2 -10 330.500 145.794   4
  12   2  -9 1970.17 229.211   4
  12  -2  -9 1702.17 210.090   4
  12   2  -8 512.465 150.617   4
  12  -2  -8 306.489 130.249   4
  12   2  -7 7488.57 411.077   4
  12  -2  -7 7624.47 431.183   4
  12  -2  -6 4839.51 340.106   4
  12  -2  -5 17285.4 621.947   4
  12  -3 -11 895.666 207.197   4
  12   3 -10 4990.80 339.662   4
  12  -3 -10 5057.65 373.339   4
  12   3  -9-38.4756 93.7624   4
  12  -3  -9 69.5933 109.978   4
  12   3  -8 14009.8 545.625   4
  12  -3  -8 14557.6 591.936   4
  12   3  -7 4597.29 321.769   4
  12  -3  -7 4862.64 347.107   4
  12  -3  -6 5255.23 355.831   4
  12  -3  -5 854.536 175.538   4
  12  -4 -11 1592.66 237.916   4
  12  -4 -10 607.832 158.515   4
  12   4  -9 782.248 149.581   4
  12  -4  -9 400.059 143.840   4
  12   4  -8 321.406 132.362   4
  12  -4  -8 428.489 151.401   4
  12  -4  -7 2197.21 243.249   4
  12  -4  -6 1468.76 219.654   4
  12  -4  -5 1786.65 222.105   4
  12  -4  -4 6319.61 390.924   4
  12  -5 -10-23.7136 116.332   4
  12   5  -9 42.6557 92.4249   4
  12  -5  -9 251.955 139.809   4
  12  -5  -8 1325.74 210.783   4
  12  -5  -7 4897.93 359.621   4
  12  -5  -6 200.436 134.456   4
  12  -5  -5 9875.19 490.722   4
  12  -5  -4 1357.38 208.108   4
  12  -6 -10 288.646 139.829   4
  12   6  -9 2548.80 244.191   6
  12  -6  -9 3050.73 308.862   4
  12   6  -8 676.150 141.410   6
  12  -6  -8 1027.17 195.593   4
  12  -6  -7 9808.77 497.317   4
  12  -6  -6 2182.53 259.161   4
  12  -6  -5 1013.54 183.467   4
  12  -6  -4 11431.0 526.043   4
  12   7 -10 2888.83 282.252   6
  12  -7 -10 3346.94 320.409   4
  12   7  -9 322.727 131.004   6
  12  -7  -9 101.773 136.257   4
  12   7  -8 9886.11 439.710   6
  12  -7  -8 10326.6 529.006   4
  12   7  -7 293.639 109.628   6
  12  -7  -7 79.3952 120.671   4
  12  -7  -6 1018.79 182.260   4
  12  -7  -5-159.960 125.218   4
  12  -7  -4 2624.76 270.270   4
  12   8 -10 1144.80 192.554   6
  12   8  -9 11005.5 501.316   6
  12  -8  -9 12123.6 592.591   4
  12   8  -8 1652.66 200.980   6
  12  -8  -8 1831.37 254.183   4
  12   8  -7 7945.15 385.062   6
  12  -8  -7 8547.69 477.771   4
  12   8  -6 1056.03 148.513   6
  12  -8  -6 1016.75 181.332   4
  12  -8  -5 1870.12 233.417   4
  12  -8  -4 583.528 158.058   4
  12  -8  -3 2565.11 273.232   4
  12   9 -10 878.411 168.251   6
  12   9  -9 2941.69 279.860   6
  12  -9  -9 2463.74 290.357   4
  12   9  -8 804.890 154.454   6
  12  -9  -8 1449.27 228.689   4
  12   9  -7 2909.83 246.560   6
  12  -9  -7 2429.06 275.328   4
  12   9  -6 1303.69 163.458   6
  12  -9  -6 1410.72 221.110   4
  12   9  -5 2465.65 204.794   6
  12  -9  -5 2940.49 284.931   4
  12  -9  -4 6022.57 397.017   4
  12  -9  -3 7033.94 425.420   4
  12  10 -10 38.2538 112.971   6
  12  10  -9-188.090 135.716   6
  12  10  -8 553.829 135.208   6
  12 -10  -8 749.947 184.686   4
  12  10  -7 798.924 143.239   6
  12 -10  -7 848.307 192.255   4
  12  10  -6 729.659 138.530   6
  12 -10  -6 870.008 176.794   4
  12  10  -5 77.5095 77.7163   6
  12 -10  -5-4.38227 104.327   4
  12 -10  -4 4141.05 338.226   4
  12 -10  -3 421.113 148.366   4
  12  11 -10 1320.76 206.416   6
  12  11  -9-86.9426 116.375   6
  12  11  -8 1709.19 209.215   6
  12 -11  -8 2428.85 276.281   4
  12  11  -7 648.224 139.575   6
  12 -11  -7 753.070 194.020   4
  12  11  -6 1793.52 197.415   6
  12 -11  -6 2076.10 253.904   4
  12  11  -5 3710.39 260.818   6
  12 -11  -5 3429.78 313.088   4
  12  11  -4 909.856 137.928   6
  12 -11  -4 855.195 182.650   4
  12 -11  -3 11318.1 550.889   4
  12  12 -10 2682.32 290.405   6
  12  12  -9 3990.76 333.203   6
  12  12  -8-40.4616 96.9382   6
  12  12  -7 1986.06 216.250   6
  12 -12  -7 2603.13 293.845   4
  12  12  -6 782.318 138.118   6
  12 -12  -6 984.926 190.196   4
  12  12  -5 1914.46 203.413   6
  12 -12  -5 2107.61 264.638   4
  12  12  -4-38.8667 82.4905   6
  12 -12  -4 169.227 128.683   4
  12 -12  -3 1052.91 199.656   4
  12  13  -9 447.130 155.668   6
  12  13  -8 8677.55 470.116   6
  12  13  -7 997.562 171.504   6
  12 -13  -7 1140.94 220.613   4
  12  13  -6 2578.88 247.344   6
  12 -13  -6 3106.77 310.066   4
  12  13  -5 293.689 113.641   6
  12 -13  -5 201.171 134.343   4
  12  13  -4 220.558 104.670   6
  12 -13  -4 600.992 167.311   4
  12  13  -3 903.050 145.820   6
  12 -13  -3 936.428 191.346   4
  12  14  -9 1850.06 255.367   6
  12  14  -8 653.711 179.280   6
  12  14  -7 2926.79 280.192   6
  12  14  -6 1822.40 217.306   6
  12 -14  -6 1758.61 247.234   4
  12  14  -5 215.712 110.314   6
  12 -14  -5 206.708 134.065   4
  12  14  -4 13290.2 517.695   6
  12 -14  -4 13348.1 605.899   4
  12  14  -3 82.4109 95.7264   6
  12 -14  -3 154.607 122.454   4
  12  15  -9 424.304 157.755   6
  12  15  -8-179.969 130.299   6
  12  15  -7 1173.46 184.038   6
  12  15  -6 1170.28 188.537   6
  12 -15  -6 1442.07 223.124   4
  12  15  -5 4097.90 308.626   6
  12 -15  -5 4212.04 353.012   4
  12  15  -4 1410.10 189.874   6
  12 -15  -4 1359.14 234.551   4
  12  15  -3 4099.51 299.832   6
  12 -15  -3 4823.08 377.630   4
  12  16  -8 2110.43 263.829   6
  12  16  -7 653.942 151.727   6
  12  16  -6 991.523 175.421   6
  12  16  -5 3691.63 306.281   6
  12 -16  -5 4106.34 360.510   4
  12  16  -4 4687.84 331.410   6
  12 -16  -4 4746.40 378.472   4
  12  16  -3 331.370 129.754   6
  12 -16  -3 136.931 130.471   4
  12  17  -8 3443.38 332.985   6
  12  17  -7-50.0603 116.686   6
  12  17  -6 2528.02 273.096   6
  12  17  -5 272.307 122.962   6
  12  17  -4 986.713 183.517   6
  12  17  -3 406.698 147.860   6
  12 -17  -3-136.510 144.005   4
  12  17  -2 219.017 112.847   6
  12  18  -7-1.33395 116.229   6
  12  18  -6 726.634 179.829   6
  12  18  -5 446.222 155.814   6
  12  18  -4 2703.48 278.458   6
  12  18  -3 570.954 156.483   6
  12  18  -2 1058.77 177.833   6
  12  19  -6 2450.36 276.699   6
  12  19  -5 1471.12 223.104   6
  12  19  -4 151.179 140.392   6
  12  19  -3 3445.33 311.313   6
  12  19  -2 589.386 152.050   6
  12  20  -6 3390.71 328.333   6
  12  20  -5 948.009 196.611   6
  12  20  -4 10839.9 546.230   6
  12  20  -3 227.198 136.178   6
  12  20  -2 7546.23 451.695   6
  12  21  -4 5407.09 404.114   6
  12  21  -3 201.642 143.779   6
  13   0 -10 914.846 185.382   4
  13   0  -9 1.05715 105.756   4
  13   0  -8 4757.69 350.734   4
  13   0  -7-273.911 138.338   4
  13   1 -10 60.9180 107.523   4
  13  -1 -10 295.976 134.713   4
  13   1  -9 549.908 149.678   4
  13  -1  -9 252.356 125.003   4
  13   1  -8 1499.49 210.630   4
  13  -1  -8 1451.35 217.371   4
  13   1  -7 318.766 135.419   4
  13  -1  -7-96.3621 121.453   4
  13  -1  -6 720.952 167.914   4
  13  -2 -10 86.2053 107.588   4
  13   2  -9 300.949 117.069   4
  13  -2  -9 141.553 107.762   4
  13   2  -8 372.453 113.500   4
  13  -2  -8 270.247 122.303   4
  13  -2  -7 153.741 130.332   4
  13  -2  -6 2168.75 249.942   4
  13  -3 -10 813.520 190.245   4
  13   3  -9 957.220 170.294   4
  13  -3  -9 1103.63 192.323   4
  13  -3  -8 5.77222 114.625   4
  13  -3  -7 388.577 137.103   4
  13  -3  -6 835.128 177.482   4
  13   4  -9 358.995 121.874   4
  13  -4  -9 672.313 177.745   4
  13  -4  -8 509.124 156.278   4
  13  -4  -7 235.966 137.999   4
  13  -4  -6-150.096 123.545   4
  13  -4  -5 247.334 127.546   4
  13  -5  -9 985.417 197.281   4
  13  -5  -8 547.191 141.733   4
  13  -5  -7 6168.22 412.224   4
  13  -5  -6 936.494 171.070   4
  13  -5  -5 3772.01 327.208   4
  13  -6  -8 4064.20 352.738   4
  13  -6  -7 1820.56 244.871   4
  13  -6  -6 38.7432 108.786   4
  13  -6  -5 3338.69 312.013   4
  13  -7  -8 109.951 122.199   4
  13  -7  -7 984.529 199.685   4
  13  -7  -6 65.0007 113.538   4
  13  -7  -5 2351.44 264.549   4
  13  -8  -7 391.424 157.537   4
  13  -8  -6 148.312 109.887   4
  13  -8  -5 358.460 150.467   4
  13  -8  -4 264.043 136.624   4
  13  -9  -7 6626.78 450.015   4
  13  -9  -6 14.8485 116.306   4
  13  -9  -5 5246.26 389.322   4
  13  -9  -4 90.8420 121.444   4
  13 -10  -6 1466.25 228.195   4
  13 -10  -5 166.567 151.977   4
  13 -10  -4 4530.97 368.147   4
  13 -11  -6 304.098 169.489   4
  13 -11  -5 4712.19 381.617   4
  13 -11  -4 1488.93 234.954   4
  13 -12  -5 1038.86 213.884   4
  13 -12  -4 815.529 202.270   4
  14   0  -9 31.7958 133.145   4
  14   0  -8 3981.51 344.171   4
  14   1  -9 3769.34 336.732   4
  14  -1  -8 5820.30 414.315   4
  14  -2  -8 703.382 173.131   4
  14  -2  -7 4675.12 375.310   4
  14  -3  -7 2659.73 295.586   4
  14  -4  -7 183.415 124.740   4
  14  -5  -6 1434.18 222.724   4
   0   0   0    0.00    0.00   0
TITL bmo280_3 in Pc
REM Pc (#7 in standard setting)
CELL 0.71073  10.732573  23.256205   9.763514  90.0000 105.3925  90.0000
ZERR    2.00   0.000162   0.000317   0.000169   0.0000   0.0017   0.0000
LATT -1
SYMM  x,-y, z+1/2
SFAC C H N O Zn
UNIT 74.00 100.00 16.00 24.00 4.00
TREF
HKLF 4
END
;
_shelx_hkl_checksum              30118
loop_
_space_group_symop_operation_xyz
'x, y, z'
'-x, y+1/2, -z+1/2'
'-x, -y, -z'
'x, -y-1/2, z-1/2'
loop_
_atom_site_label
_atom_site_type_symbol
_atom_site_fract_x
_atom_site_fract_y
_atom_site_fract_z
_atom_site_U_iso_or_equiv
_atom_site_adp_type
_atom_site_occupancy
_atom_site_site_symmetry_order
_atom_site_calc_flag
_atom_site_refinement_flags_posn
_atom_site_refinement_flags_adp
_atom_site_refinement_flags_occupancy
_atom_site_disorder_assembly
_atom_site_disorder_group
Zn1 Zn 0.32959(2) 0.10066(2) -0.03161(2) 0.01876(7) Uani 1 1 d . . . . .
O11 O 0.40038(17) 0.05229(7) 0.13505(15) 0.0388(4) Uani 1 1 d . . . . .
O12 O 0.3185(14) 0.1110(5) 0.2650(7) 0.060(3) Uani 0.412(16) 1 d . U P . .
O12' O 0.2617(7) 0.0856(4) 0.2387(7) 0.057(2) Uani 0.588(16) 1 d . U P . .
C11 C 0.36561(19) 0.06196(9) 0.2444(2) 0.0298(4) Uani 1 1 d . . . . .
C12 C 0.43555(16) 0.02944(8) 0.37701(18) 0.0214(3) Uani 1 1 d . . . . .
C13 C 0.42158(18) 0.04654(8) 0.50908(19) 0.0251(3) Uani 1 1 d . . . . .
H13 H 0.3682 0.0785 0.5155 0.030 Uiso 1 1 calc R U . . .
C14 C 0.51446(17) -0.01704(8) 0.36862(18) 0.0234(3) Uani 1 1 d . . . . .
H14 H 0.5248 -0.0287 0.2790 0.028 Uiso 1 1 calc R U . . .
O21 O 0.20189(13) 0.04966(6) -0.15658(13) 0.0260(3) Uani 1 1 d . . . . .
O22 O 0.23223(14) 0.10991(6) -0.32105(14) 0.0256(3) Uani 1 1 d . . . . .
C21 C 0.18044(16) 0.06701(7) -0.28564(17) 0.0197(3) Uani 1 1 d . . . . .
C22 C 0.08696(16) 0.03222(7) -0.39611(17) 0.0192(3) Uani 1 1 d . . . . .
C23 C 0.08403(16) 0.03845(7) -0.53980(18) 0.0214(3) Uani 1 1 d . . . . .
H23 H 0.1410 0.0647 -0.5670 0.026 Uiso 1 1 calc R U . . .
C24 C 0.00239(16) -0.00617(7) -0.35761(17) 0.0208(3) Uani 1 1 d . . . . .
H24 H 0.0038 -0.0103 -0.2604 0.025 Uiso 1 1 calc R U . . .
N11 N 0.50307(15) 0.11060(7) -0.07454(17) 0.0235(3) Uani 1 1 d . . . . .
N12 N 0.70333(15) 0.09420(7) -0.07984(18) 0.0248(3) Uani 1 1 d . . . . .
N13 N 1.14021(16) 0.24236(7) 0.42133(17) 0.0254(3) Uani 1 1 d . . . . .
N14 N 1.26240(15) 0.31933(6) 0.47139(16) 0.0225(3) Uani 1 1 d . . . . .
C101 C 0.60756(17) 0.07871(7) -0.02302(18) 0.0221(3) Uani 1 1 d . . . . .
H101 H 0.6137 0.0489 0.0450 0.027 Uiso 1 1 calc R U . . .
C102 C 0.53481(19) 0.14817(8) -0.1689(2) 0.0309(4) Uani 1 1 d . . . . .
H102 H 0.4787 0.1763 -0.2231 0.037 Uiso 1 1 calc R U . . .
C103 C 0.6588(2) 0.13869(9) -0.1724(2) 0.0319(4) Uani 1 1 d . . . . .
H103 H 0.7054 0.1588 -0.2276 0.038 Uiso 1 1 calc R U . . .
C104 C 0.83288(17) 0.06813(9) -0.0479(2) 0.0285(4) Uani 1 1 d . . . . .
H10A H 0.8468 0.0513 -0.1358 0.034 Uiso 1 1 calc R U . . .
H10B H 0.8384 0.0367 0.0218 0.034 Uiso 1 1 calc R U . . .
C105 C 0.93836(18) 0.11220(9) 0.0119(2) 0.0292(4) Uani 1 1 d . . . . .
H10C H 0.9356 0.1423 -0.0606 0.035 Uiso 1 1 calc R U . . .
H10D H 1.0235 0.0930 0.0310 0.035 Uiso 1 1 calc R U . . .
C106 C 0.92610(18) 0.14087(8) 0.1483(2) 0.0263(3) Uani 1 1 d . . . . .
H10E H 0.9214 0.1108 0.2186 0.032 Uiso 1 1 calc R U . . .
H10F H 0.8447 0.1632 0.1277 0.032 Uiso 1 1 calc R U . . .
C107 C 1.03958(18) 0.18090(9) 0.2125(2) 0.0284(4) Uani 1 1 d . . . . .
H10G H 1.1217 0.1595 0.2259 0.034 Uiso 1 1 calc R U . . .
H10H H 1.0399 0.2131 0.1461 0.034 Uiso 1 1 calc R U . . .
C108 C 1.0308(2) 0.20478(9) 0.3541(2) 0.0309(4) Uani 1 1 d . . . . .
H10I H 0.9494 0.2268 0.3396 0.037 Uiso 1 1 calc R U . . .
H10J H 1.0276 0.1724 0.4189 0.037 Uiso 1 1 calc R U . . .
C109 C 1.2414(2) 0.22841(9) 0.5345(2) 0.0365(5) Uani 1 1 d . . . . .
H109 H 1.2568 0.1924 0.5821 0.044 Uiso 1 1 calc R U . . .
C110 C 1.3155(2) 0.27645(9) 0.5649(2) 0.0369(5) Uani 1 1 d . . . . .
H110 H 1.3925 0.2798 0.6397 0.044 Uiso 1 1 calc R U . . .
C111 C 1.15598(17) 0.29731(7) 0.38620(19) 0.0225(3) Uani 1 1 d . . . . .
H111 H 1.0987 0.3175 0.3107 0.027 Uiso 1 1 calc R U . . .
O1D O 0.8723(2) 0.19206(12) 0.6554(2) 0.0730(7) Uani 1 1 d . U . . .
N1D N 0.72627(19) 0.16072(9) 0.4583(2) 0.0397(4) Uani 1 1 d . U . . .
C11D C 0.7866(3) 0.20204(13) 0.5457(3) 0.0519(6) Uani 1 1 d . U . . .
H11D H 0.7625 0.2409 0.5226 0.062 Uiso 1 1 calc R U . . .
C12D C 0.7567(3) 0.10130(12) 0.4870(4) 0.0593(8) Uani 1 1 d . U . . .
H12A H 0.7616 0.0820 0.3994 0.089 Uiso 1 1 calc R U . . .
H12B H 0.6892 0.0832 0.5231 0.089 Uiso 1 1 calc R U . . .
H12C H 0.8400 0.0980 0.5583 0.089 Uiso 1 1 calc R U . . .
C13D C 0.6224(4) 0.17392(18) 0.3342(4) 0.0790(11) Uani 1 1 d . U . . .
H13A H 0.6271 0.1482 0.2563 0.119 Uiso 1 1 calc R U . . .
H13B H 0.6303 0.2139 0.3058 0.119 Uiso 1 1 calc R U . . .
H13C H 0.5393 0.1687 0.3564 0.119 Uiso 1 1 calc R U . . .
loop_
_atom_site_aniso_label
_atom_site_aniso_U_11
_atom_site_aniso_U_22
_atom_site_aniso_U_33
_atom_site_aniso_U_23
_atom_site_aniso_U_13
_atom_site_aniso_U_12
Zn1 0.02277(11) 0.01507(10) 0.01470(10) -0.00043(6) -0.00157(7) -0.00022(6)
O11 0.0572(10) 0.0396(8) 0.0176(6) 0.0075(6) 0.0065(6) 0.0173(7)
O12 0.082(6) 0.060(4) 0.035(3) 0.015(3) 0.008(3) 0.045(4)
O12' 0.050(3) 0.085(4) 0.040(2) 0.034(3) 0.021(2) 0.043(3)
C11 0.0299(9) 0.0349(10) 0.0243(9) 0.0097(7) 0.0069(7) 0.0084(8)
C12 0.0223(7) 0.0239(8) 0.0165(7) 0.0016(6) 0.0025(6) 0.0011(6)
C13 0.0286(8) 0.0255(8) 0.0213(8) 0.0018(6) 0.0066(7) 0.0070(7)
C14 0.0276(8) 0.0254(8) 0.0166(7) -0.0008(6) 0.0047(6) 0.0023(6)
O21 0.0330(6) 0.0249(6) 0.0155(6) 0.0003(5) -0.0014(5) -0.0094(5)
O22 0.0327(7) 0.0207(6) 0.0213(6) -0.0010(5) 0.0034(5) -0.0070(5)
C21 0.0218(7) 0.0177(7) 0.0168(7) -0.0021(6) 0.0003(6) -0.0004(6)
C22 0.0219(7) 0.0171(7) 0.0156(7) -0.0009(5) -0.0003(6) -0.0007(6)
C23 0.0235(7) 0.0209(7) 0.0183(7) 0.0005(6) 0.0030(6) -0.0034(6)
C24 0.0248(7) 0.0211(7) 0.0145(7) 0.0004(6) 0.0019(6) -0.0009(6)
N11 0.0240(7) 0.0199(6) 0.0228(7) 0.0009(5) -0.0005(6) -0.0011(5)
N12 0.0235(7) 0.0224(7) 0.0257(8) 0.0005(6) 0.0017(6) -0.0022(5)
N13 0.0286(7) 0.0207(7) 0.0262(8) -0.0001(6) 0.0062(6) -0.0046(6)
N14 0.0268(7) 0.0175(6) 0.0204(7) 0.0022(5) 0.0014(5) -0.0007(5)
C101 0.0238(7) 0.0194(7) 0.0204(8) -0.0013(6) 0.0011(6) -0.0021(6)
C102 0.0292(9) 0.0245(9) 0.0343(10) 0.0093(7) 0.0000(7) -0.0014(7)
C103 0.0308(9) 0.0292(9) 0.0333(10) 0.0094(8) 0.0042(8) -0.0053(7)
C104 0.0241(8) 0.0267(9) 0.0334(10) -0.0043(7) 0.0053(7) 0.0006(7)
C105 0.0219(8) 0.0305(9) 0.0350(10) -0.0034(8) 0.0072(7) -0.0035(7)
C106 0.0240(8) 0.0222(8) 0.0317(9) -0.0001(7) 0.0060(7) -0.0035(6)
C107 0.0245(8) 0.0267(9) 0.0336(10) -0.0039(7) 0.0071(7) -0.0047(7)
C108 0.0313(9) 0.0276(9) 0.0352(10) -0.0030(8) 0.0111(8) -0.0104(7)
C109 0.0409(11) 0.0223(9) 0.0403(11) 0.0105(8) 0.0003(9) -0.0013(8)
C110 0.0373(10) 0.0254(9) 0.0373(11) 0.0107(8) -0.0089(8) -0.0025(8)
C111 0.0256(8) 0.0198(7) 0.0212(8) 0.0007(6) 0.0046(6) -0.0010(6)
O1D 0.0600(12) 0.1039(18) 0.0437(11) 0.0089(11) -0.0064(9) -0.0373(12)
N1D 0.0357(9) 0.0368(9) 0.0421(10) -0.0001(8) 0.0022(8) -0.0042(7)
C11D 0.0542(13) 0.0519(13) 0.0469(13) 0.0022(11) 0.0087(11) -0.0158(11)
C12D 0.0511(15) 0.0445(15) 0.083(2) 0.0020(13) 0.0192(15) 0.0027(11)
C13D 0.070(2) 0.075(2) 0.071(2) 0.0011(17) -0.0180(17) -0.0028(17)
loop_
_atom_type_symbol
_atom_type_description
_atom_type_scat_dispersion_real
_atom_type_scat_dispersion_imag
_atom_type_scat_source
C C 0.0033 0.0016 'International Tables Vol C Tables 4.2.6.8 and 6.1.1.4'
H H 0.0000 0.0000 'International Tables Vol C Tables 4.2.6.8 and 6.1.1.4'
N N 0.0061 0.0033 'International Tables Vol C Tables 4.2.6.8 and 6.1.1.4'
O O 0.0106 0.0060 'International Tables Vol C Tables 4.2.6.8 and 6.1.1.4'
Zn Zn 0.2839 1.4301 'International Tables Vol C Tables 4.2.6.8 and 6.1.1.4'
loop_
_geom_angle_atom_site_label_1
_geom_angle_atom_site_label_2
_geom_angle_atom_site_label_3
_geom_angle
_geom_angle_site_symmetry_1
_geom_angle_site_symmetry_3
_geom_angle_publ_flag
O11 Zn1 O21 102.79(7) . . yes
O11 Zn1 N11 93.57(7) . . yes
O11 Zn1 N14 125.78(6) . 4_465 yes
O21 Zn1 N11 117.80(6) . . yes
O21 Zn1 N14 112.02(6) . 4_465 yes
N14 Zn1 N11 104.57(6) 4_465 . yes
C11 O11 Zn1 118.13(13) . . ?
O12' O12 C11 67.2(6) . . ?
O12 O12' C11 74.0(6) . . ?
O11 C11 O12 121.1(4) . . ?
O11 C11 C12 116.79(17) . . ?
O12 C11 C12 115.8(3) . . ?
O12' C11 O11 121.2(3) . . ?
O12' C11 O12 38.9(4) . . ?
O12' C11 C12 119.9(2) . . ?
C13 C12 C11 119.83(16) . . ?
C14 C12 C11 120.62(16) . . ?
C14 C12 C13 119.55(15) . . ?
C12 C13 H13 119.9 . . ?
C14 C13 C12 120.25(16) 3_656 . ?
C14 C13 H13 119.9 3_656 . ?
C12 C14 C13 120.21(16) . 3_656 ?
C12 C14 H14 119.9 . . ?
C13 C14 H14 119.9 3_656 . ?
C21 O21 Zn1 109.41(11) . . ?
O21 C21 C22 116.59(15) . . ?
O22 C21 O21 123.47(15) . . ?
O22 C21 C22 119.95(15) . . ?
C23 C22 C21 119.78(15) . . ?
C24 C22 C21 120.71(15) . . ?
C24 C22 C23 119.51(15) . . ?
C22 C23 H23 120.1 . . ?
C24 C23 C22 119.89(15) 3_554 . ?
C24 C23 H23 120.1 3_554 . ?
C22 C24 H24 119.7 . . ?
C23 C24 C22 120.61(15) 3_554 . ?
C23 C24 H24 119.7 3_554 . ?
C101 N11 Zn1 126.01(13) . . ?
C101 N11 C102 105.90(16) . . ?
C102 N11 Zn1 127.94(13) . . ?
C101 N12 C103 107.67(16) . . ?
C101 N12 C104 125.90(16) . . ?
C103 N12 C104 126.43(17) . . ?
C109 N13 C108 126.06(17) . . ?
C111 N13 C108 126.15(17) . . ?
C111 N13 C109 107.74(16) . . ?
C110 N14 Zn1 126.85(13) . 4_666 ?
C111 N14 Zn1 127.24(12) . 4_666 ?
C111 N14 C110 105.90(15) . . ?
N11 C101 N12 110.89(16) . . ?
N11 C101 H101 124.6 . . ?
N12 C101 H101 124.6 . . ?
N11 C102 H102 125.3 . . ?
C103 C102 N11 109.38(17) . . ?
C103 C102 H102 125.3 . . ?
N12 C103 H103 126.9 . . ?
C102 C103 N12 106.15(17) . . ?
C102 C103 H103 126.9 . . ?
N12 C104 H10A 109.3 . . ?
N12 C104 H10B 109.3 . . ?
N12 C104 C105 111.59(16) . . ?
H10A C104 H10B 108.0 . . ?
C105 C104 H10A 109.3 . . ?
C105 C104 H10B 109.3 . . ?
C104 C105 H10C 108.8 . . ?
C104 C105 H10D 108.8 . . ?
C104 C105 C106 113.64(16) . . ?
H10C C105 H10D 107.7 . . ?
C106 C105 H10C 108.8 . . ?
C106 C105 H10D 108.8 . . ?
C105 C106 H10E 109.1 . . ?
C105 C106 H10F 109.1 . . ?
C105 C106 C107 112.33(16) . . ?
H10E C106 H10F 107.9 . . ?
C107 C106 H10E 109.1 . . ?
C107 C106 H10F 109.1 . . ?
C106 C107 H10G 109.4 . . ?
C106 C107 H10H 109.4 . . ?
H10G C107 H10H 108.0 . . ?
C108 C107 C106 111.18(16) . . ?
C108 C107 H10G 109.4 . . ?
C108 C107 H10H 109.4 . . ?
N13 C108 C107 112.90(16) . . ?
N13 C108 H10I 109.0 . . ?
N13 C108 H10J 109.0 . . ?
C107 C108 H10I 109.0 . . ?
C107 C108 H10J 109.0 . . ?
H10I C108 H10J 107.8 . . ?
N13 C109 H109 127.0 . . ?
C110 C109 N13 105.95(17) . . ?
C110 C109 H109 127.0 . . ?
N14 C110 H110 125.1 . . ?
C109 C110 N14 109.74(18) . . ?
C109 C110 H110 125.1 . . ?
N13 C111 H111 124.7 . . ?
N14 C111 N13 110.67(16) . . ?
N14 C111 H111 124.7 . . ?
C11D N1D C12D 121.6(3) . . ?
C11D N1D C13D 121.3(3) . . ?
C12D N1D C13D 117.0(3) . . ?
O1D C11D N1D 122.9(3) . . ?
O1D C11D H11D 118.6 . . ?
N1D C11D H11D 118.6 . . ?
N1D C12D H12A 109.5 . . ?
N1D C12D H12B 109.5 . . ?
N1D C12D H12C 109.5 . . ?
H12A C12D H12B 109.5 . . ?
H12A C12D H12C 109.5 . . ?
H12B C12D H12C 109.5 . . ?
N1D C13D H13A 109.5 . . ?
N1D C13D H13B 109.5 . . ?
N1D C13D H13C 109.5 . . ?
H13A C13D H13B 109.5 . . ?
H13A C13D H13C 109.5 . . ?
H13B C13D H13C 109.5 . . ?
loop_
_geom_bond_atom_site_label_1
_geom_bond_atom_site_label_2
_geom_bond_distance
_geom_bond_site_symmetry_2
_geom_bond_publ_flag
Zn1 O11 1.9581(14) . yes
Zn1 O21 1.9714(12) . yes
Zn1 N11 2.0273(16) . yes
Zn1 N14 1.9987(15) 4_465 yes
O11 C11 1.241(2) . ?
O12 O12' 0.838(9) . ?
O12 C11 1.284(7) . ?
O12' C11 1.231(4) . ?
C11 C12 1.515(2) . ?
C12 C13 1.395(2) . ?
C12 C14 1.389(2) . ?
C13 H13 0.9500 . ?
C13 C14 1.390(2) 3_656 ?
C14 C13 1.390(2) 3_656 ?
C14 H14 0.9500 . ?
O21 C21 1.284(2) . ?
O22 C21 1.235(2) . ?
C21 C22 1.500(2) . ?
C22 C23 1.402(2) . ?
C22 C24 1.394(2) . ?
C23 H23 0.9500 . ?
C23 C24 1.391(2) 3_554 ?
C24 C23 1.391(2) 3_554 ?
C24 H24 0.9500 . ?
N11 C101 1.327(2) . ?
N11 C102 1.376(2) . ?
N12 C101 1.340(2) . ?
N12 C103 1.373(2) . ?
N12 C104 1.472(2) . ?
N13 C108 1.471(2) . ?
N13 C109 1.367(3) . ?
N13 C111 1.346(2) . ?
N14 Zn1 1.9985(15) 4_666 ?
N14 C110 1.370(2) . ?
N14 C111 1.324(2) . ?
C101 H101 0.9500 . ?
C102 H102 0.9500 . ?
C102 C103 1.358(3) . ?
C103 H103 0.9500 . ?
C104 H10A 0.9900 . ?
C104 H10B 0.9900 . ?
C104 C105 1.524(3) . ?
C105 H10C 0.9900 . ?
C105 H10D 0.9900 . ?
C105 C106 1.526(3) . ?
C106 H10E 0.9900 . ?
C106 H10F 0.9900 . ?
C106 C107 1.529(3) . ?
C107 H10G 0.9900 . ?
C107 H10H 0.9900 . ?
C107 C108 1.516(3) . ?
C108 H10I 0.9900 . ?
C108 H10J 0.9900 . ?
C109 H109 0.9500 . ?
C109 C110 1.358(3) . ?
C110 H110 0.9500 . ?
C111 H111 0.9500 . ?
O1D C11D 1.235(4) . ?
N1D C11D 1.333(3) . ?
N1D C12D 1.430(3) . ?
N1D C13D 1.445(4) . ?
C11D H11D 0.9500 . ?
C12D H12A 0.9800 . ?
C12D H12B 0.9800 . ?
C12D H12C 0.9800 . ?
C13D H13A 0.9800 . ?
C13D H13B 0.9800 . ?
C13D H13C 0.9800 . ?
