#------------------------------------------------------------------------------
#$Date: 2017-12-29 11:04:04 +0200 (Fri, 29 Dec 2017) $
#$Revision: 204581 $
#$URL: file:///home/coder/svn-repositories/cod/cif/1/54/85/1548557.cif $
#------------------------------------------------------------------------------
#
# This file is available in the Crystallography Open Database (COD),
# http://www.crystallography.net/
#
# All data on this site have been placed in the public domain by the
# contributors.
#
data_1548557
loop_
_publ_author_name
'Marina Barsukova'
'Tatiana Goncharova'
'Denis Samsonenko'
'Danil Dybtsev'
'Andrei Potapov'
_publ_section_title
;
 Synthesis, Crystal Structure, and Luminescent Properties of New Zinc(II)
 and Cadmium(II) Metal-Organic Frameworks Based on Flexible
 Bis(imidazol-1-yl)alkane Ligands
;
_journal_name_full               Crystals
_journal_page_first              132
_journal_paper_doi               10.3390/cryst6100132
_journal_volume                  6
_journal_year                    2016
_chemical_formula_sum            'C20 H22 N4 O4 Zn'
_chemical_formula_weight         447.78
_space_group_crystal_system      orthorhombic
_space_group_IT_number           19
_space_group_name_Hall           'P 2ac 2ab'
_space_group_name_H-M_alt        'P 21 21 21'
_symmetry_space_group_name_Hall  'P 2ac 2ab'
_symmetry_space_group_name_H-M   'P 21 21 21'
_atom_sites_solution_hydrogens   geom
_atom_sites_solution_primary     direct
_atom_sites_solution_secondary   difmap
_cell_angle_alpha                90
_cell_angle_beta                 90
_cell_angle_gamma                90
_cell_formula_units_Z            12
_cell_length_a                   15.123(5)
_cell_length_b                   18.806(5)
_cell_length_c                   20.722(4)
_cell_measurement_reflns_used    3374
_cell_measurement_temperature    120(2)
_cell_measurement_theta_max      73.33
_cell_measurement_theta_min      4.66
_cell_volume                     5893(3)
_computing_cell_refinement
;
CrysAlisPro, Agilent Technologies,
Version 1.171.37.35 (release 13-08-2014 CrysAlis171 .NET)
(compiled Aug 13 2014,18:06:01)
;
_computing_data_collection
;
CrysAlisPro, Agilent Technologies,
Version 1.171.37.35 (release 13-08-2014 CrysAlis171 .NET)
(compiled Aug 13 2014,18:06:01)
;
_computing_data_reduction
;
CrysAlisPro, Agilent Technologies,
Version 1.171.37.35 (release 13-08-2014 CrysAlis171 .NET)
(compiled Aug 13 2014,18:06:01)
;
_computing_molecular_graphics    ShelxLe
_computing_publication_material  'CIFTAB-2014/7 (Sheldrick, 2014)'
_computing_structure_refinement  'SHELXL-2014/7 (Sheldrick, 2014)'
_computing_structure_solution    'SHELXS-2014/7 (Sheldrick, 2014)'
_diffrn_ambient_temperature      120(2)
_diffrn_detector                 'CCD plate'
_diffrn_detector_area_resol_mean 4.2207
_diffrn_detector_type            TitanS2
_diffrn_measured_fraction_theta_full 0.993
_diffrn_measured_fraction_theta_max 0.990
_diffrn_measurement_device       'four-circle diffractometer'
_diffrn_measurement_device_type  'GV1000, TitanS2'
_diffrn_measurement_method       '\w scans'
_diffrn_radiation_monochromator  mirror
_diffrn_radiation_type           CuK\a
_diffrn_radiation_wavelength     1.54184
_diffrn_reflns_av_R_equivalents  0.1258
_diffrn_reflns_av_unetI/netI     0.1267
_diffrn_reflns_Laue_measured_fraction_full 0.993
_diffrn_reflns_Laue_measured_fraction_max 0.990
_diffrn_reflns_limit_h_max       18
_diffrn_reflns_limit_h_min       -17
_diffrn_reflns_limit_k_max       22
_diffrn_reflns_limit_k_min       -22
_diffrn_reflns_limit_l_max       15
_diffrn_reflns_limit_l_min       -25
_diffrn_reflns_number            15255
_diffrn_reflns_point_group_measured_fraction_full 0.994
_diffrn_reflns_point_group_measured_fraction_max 0.992
_diffrn_reflns_theta_full        68.000
_diffrn_reflns_theta_max         70.073
_diffrn_reflns_theta_min         3.618
_diffrn_source                   'rotating-anode X-ray tube'
_diffrn_source_type              'GV1000 (Cu) X-ray Source'
_exptl_absorpt_coefficient_mu    2.038
_exptl_absorpt_correction_T_max  1.00000
_exptl_absorpt_correction_T_min  0.41062
_exptl_absorpt_correction_type   multi-scan
_exptl_absorpt_process_details
;
CrysAlisPro, Agilent Technologies,
Version 1.171.37.35 (release 13-08-2014 CrysAlis171 .NET)
(compiled Aug 13 2014,18:06:01)
Empirical absorption correction using spherical harmonics,
implemented in SCALE3 ABSPACK scaling algorithm.
;
_exptl_crystal_colour            colorless
_exptl_crystal_density_diffrn    1.514
_exptl_crystal_description       block
_exptl_crystal_F_000             2784
_exptl_crystal_size_max          0.10
_exptl_crystal_size_mid          0.04
_exptl_crystal_size_min          0.04
_refine_diff_density_max         3.392
_refine_diff_density_min         -3.531
_refine_diff_density_rms         0.267
_refine_ls_abs_structure_details
;
 Refined as an inversion twin.
;
_refine_ls_abs_structure_Flack   0.47(18)
_refine_ls_extinction_coef       .
_refine_ls_extinction_method     none
_refine_ls_goodness_of_fit_ref   1.760
_refine_ls_hydrogen_treatment    constr
_refine_ls_matrix_type           full
_refine_ls_number_parameters     780
_refine_ls_number_reflns         9867
_refine_ls_number_restraints     266
_refine_ls_restrained_S_all      1.758
_refine_ls_R_factor_all          0.2661
_refine_ls_R_factor_gt           0.1719
_refine_ls_shift/su_max          0.001
_refine_ls_shift/su_mean         0.000
_refine_ls_structure_factor_coef Fsqd
_refine_ls_weighting_details
'w=1/[\s^2^(Fo^2^)+(0.2000P)^2^] where P=(Fo^2^+2Fc^2^)/3'
_refine_ls_weighting_scheme      calc
_refine_ls_wR_factor_gt          0.4597
_refine_ls_wR_factor_ref         0.5394
_reflns_Friedel_coverage         0.821
_reflns_Friedel_fraction_full    0.996
_reflns_Friedel_fraction_max     0.994
_reflns_number_gt                5058
_reflns_number_total             9867
_reflns_threshold_expression     'I > 2\s(I)'
_cod_data_source_file            3.cif
_cod_data_source_block           DSMSAC
_cod_database_code               1548557
_shelx_space_group_comment
;
The symmetry employed for this shelxl refinement is uniquely defined
by the following loop, which should always be used as a source of
symmetry information in preference to the above space-group names.
They are only intended as comments.
;
_shelx_estimated_absorpt_t_min   0.822
_shelx_estimated_absorpt_t_max   0.923
_shelx_res_file
;
 
    DSMSAC.res created by SHELXL-2014/7
 
 
TITL DSMSAC in P2(1)2(1)2(1); 120K; GV-1000
CELL 1.54184  15.123  18.806  20.722  90.0000  90.0000  90.0000
ZERR   12.00   0.005   0.005   0.004   0.0000   0.0000   0.0000
LATT -1
SYMM -x+1/2,-y, z+1/2
SYMM -x, y+1/2,-z+1/2
SYMM  x+1/2,-y+1/2,-z
SFAC C   H   N  O  Zn
UNIT 240 264 48 48 12
 
LIST 4 ! automatically inserted. Change 6 to 4 for CHECKCIF!!
TEMP -153
 
L.S. 6
BOND $H
FMAP 2
PLAN 5
 
ACTA 136
 
SIZE 0.10 0.04 0.04
 
OMIT 0
 
ISOR 0.01 0.01 C11 C15 C202 C203 N31 C309 C311 C18 C108 O22 O23 C26 C23 C27 O34
ISOR 0.01 0.01 C204 C111 C28 C25 C32 C22 O13 C209 C208 C24 C102 C12 C17 C302 O31
ISOR 0.01 0.02 C307 C312 C310 C33 C104 C105 C109 C305 C308 C38
ISOR 0.02 0.03 C36 C210
ISOR 0.003 0.005 C201
 
SHEL 99999 0.82
 
DFIX 1.50 0.01 C25 C28
DFIX 1.26 0.01 C28 O24, C28 O23, C11 O11, C18 O14
DFIX 1.38 0.02 C25 C26, C25 C24, C15 C14
 
TWIN
WGHT    0.200000
BASF   0.46747
FVAR       1.18371
ZN1   5    0.961033    0.092880    0.543389    11.00000    0.03446    0.12868 =
         0.02986   -0.00790    0.00081    0.00382
ZN2   5    0.987216    0.592521    0.281936    11.00000    0.04917    0.13305 =
         0.03451   -0.00155   -0.00285   -0.05397
ZN3   5    0.510377    0.409077    1.120265    11.00000    0.04259    0.12450 =
         0.02424   -0.00022   -0.00263    0.04014
O11   4    0.963892    0.183001    0.489493    11.00000    0.09329    0.07480 =
         0.04068   -0.00392    0.01323   -0.00147
N11   3    0.846942    0.099864    0.596828    11.00000    0.05054    0.13728 =
         0.03123   -0.01119    0.00786   -0.02842
C11   1    0.960712    0.239195    0.522525    11.00000    0.06634    0.08735 =
         0.04391   -0.01654   -0.00041    0.01936
O12   4    0.958753    0.242281    0.584441    11.00000    0.08100    0.13987 =
         0.03446    0.00080    0.00869   -0.00264
N12   3    0.750680    0.128525    0.669194    11.00000    0.03002    0.12463 =
         0.04408   -0.02409    0.00085    0.00729
C12   1    0.969125    0.296416    0.483948    11.00000    0.06523    0.07863 =
         0.04606   -0.00920    0.00115   -0.00041
O13   4    1.003127    0.503280    0.327846    11.00000    0.06140    0.06595 =
         0.05563    0.01330    0.01248   -0.02109
N13   3    0.742865    0.387874    1.015612    11.00000    0.03954    0.12434 =
         0.02945    0.00134    0.00974   -0.02809
C13   1    0.972046    0.303482    0.417706    11.00000    0.03920    0.10583 =
         0.01848   -0.01877   -0.01028    0.00704
AFIX  43
H13   2    0.974618    0.260830    0.393213    11.00000   -1.20000
AFIX   0
O14   4    0.897815    0.544589    0.391320    11.00000    0.06341    0.12390 =
         0.07302    0.01619    0.03622    0.00072
N14   3    0.629862    0.421998    1.074911    11.00000    0.05800    0.11462 =
         0.02314   -0.01630    0.00334    0.04181
C14   1    0.971581    0.368213    0.382656    11.00000    0.06062    0.17507 =
         0.01883    0.00242   -0.00135   -0.00311
AFIX  43
H14   2    0.980816    0.368393    0.337309    11.00000   -1.20000
AFIX   0
C15   1    0.957654    0.430142    0.415178    11.00000    0.03995    0.06630 =
         0.03783    0.00790   -0.00511   -0.00863
C16   1    0.947962    0.428406    0.480441    11.00000    0.05589    0.13874 =
         0.05578    0.03035    0.01485   -0.00021
AFIX  43
H16   2    0.938255    0.471578    0.503167    11.00000   -1.20000
AFIX   0
C17   1    0.952018    0.363729    0.515217    11.00000    0.06880    0.08143 =
         0.05417    0.00814    0.00739    0.00606
AFIX  43
H17   2    0.943210    0.364578    0.560603    11.00000   -1.20000
AFIX   0
C18   1    0.951833    0.497302    0.374625    11.00000    0.05189    0.08324 =
         0.05158    0.00209   -0.00314   -0.00087
O21   4    1.048314    0.040276    0.443970    11.00000    0.08046    0.12959 =
         0.06780   -0.00988   -0.01142   -0.03013
N21   3    0.871915    0.600503    0.234138    11.00000    0.06525    0.13465 =
         0.04850   -0.00539   -0.00979   -0.08433
C21   1    0.990448   -0.002080    0.458026    11.00000    0.03676    0.16953 =
         0.03694    0.01495    0.01036    0.03830
O22   4    0.935051   -0.007111    0.500292    11.00000    0.07901    0.08894 =
         0.08747   -0.02358   -0.00618    0.00749
N22   3    0.777893    0.632749    0.158232    11.00000    0.09769    0.13261 =
         0.07336   -0.01355   -0.05523   -0.04950
C22   1    0.989804   -0.074158    0.417005    11.00000    0.05910    0.08302 =
         0.06469   -0.00622   -0.00336    0.00303
O23   4    0.999732   -0.324378    0.337110    11.00000    0.05151    0.06956 =
         0.05217   -0.01028   -0.00360   -0.01592
N23   3    0.692450    0.909290   -0.146054    11.00000    0.05698    0.14680 =
         0.04254    0.01762    0.01038    0.00712
C23   1    0.972932   -0.135849    0.447989    11.00000    0.05221    0.08198 =
         0.04295   -0.00849    0.00515   -0.00426
AFIX  43
H23   2    0.955631   -0.135944    0.492061    11.00000   -1.20000
AFIX   0
O24   4    0.997668   -0.260612    0.244526    11.00000    0.06168    0.13894 =
         0.02531   -0.03185   -0.00052   -0.01694
N24   3    0.590867    0.914362   -0.222739    11.00000    0.05650    0.15197 =
         0.03840   -0.01687    0.01824   -0.04109
C24   1    0.981778   -0.201858    0.412594    11.00000    0.03976    0.07376 =
         0.04861   -0.00276    0.00197   -0.01672
AFIX  43
H24   2    0.978571   -0.245454    0.435634    11.00000   -1.20000
AFIX   0
C25   1    0.994597   -0.203882    0.347139    11.00000    0.05335    0.07732 =
         0.02563   -0.00237   -0.01023    0.00484
C26   1    1.010446   -0.138744    0.318299    11.00000    0.05364    0.07026 =
         0.03495   -0.00937   -0.00845    0.00552
AFIX  43
H26   2    1.020811   -0.136168    0.273143    11.00000   -1.20000
AFIX   0
C27   1    1.011203   -0.079007    0.354124    11.00000    0.07452    0.08203 =
         0.06053    0.01120   -0.01510   -0.00048
AFIX  43
H27   2    1.028439   -0.036336    0.333057    11.00000   -1.20000
AFIX   0
C28   1    0.999567   -0.267910    0.304654    11.00000    0.07438    0.10177 =
         0.05993    0.00365    0.00182   -0.00480
O31   4    0.512263    0.323228    1.175631    11.00000    0.05253    0.05571 =
         0.03723   -0.00505   -0.00495    0.02606
C31   1    0.523332    0.284131    1.140903    11.00000    0.06187
N31   3    0.409956    0.412840    1.058116    11.00000    0.04012    0.06448 =
         0.03559   -0.01090    0.00885    0.02659
O32   4    0.531288    0.265222    1.083317    11.00000    0.06136    0.15671 =
         0.02774    0.04728   -0.00282    0.02553
N32   3    0.329615    0.396020    0.970400    11.00000    0.05441    0.15993 =
         0.02273    0.00997   -0.00565    0.00089
C32   1    0.527747    0.206808    1.181404    11.00000    0.03950    0.06987 =
         0.03327    0.00182   -0.00892   -0.00786
O33   4    0.592402   -0.040192    1.275082    11.00000    0.05600    0.12786 =
         0.05675    0.00651   -0.00239   -0.02668
N33   3    0.162847    0.086269    0.679533    11.00000    0.04428    0.12678 =
         0.03168   -0.00613    0.00110   -0.01019
C33   1    0.550863    0.139416    1.150388    11.00000    0.04910    0.07695 =
         0.04207    0.00287    0.00369   -0.00715
AFIX  43
H33   2    0.562766    0.140129    1.105378    11.00000   -1.20000
AFIX   0
O34   4    0.479564    0.001758    1.333492    11.00000    0.06991    0.07579 =
         0.05051    0.00840    0.00926   -0.02247
N34   3    0.067648    0.084265    0.598628    11.00000    0.04004    0.13753 =
         0.03612   -0.00053    0.00750    0.02324
C34   1    0.557070    0.069726    1.184369    11.00000    0.05543    0.10238 =
         0.03084   -0.00475    0.00171   -0.03557
AFIX  43
H34   2    0.574485    0.026545    1.164257    11.00000   -1.20000
AFIX   0
C35   1    0.533626    0.075884    1.250822    11.00000    0.02731    0.11745 =
         0.02672    0.03394    0.00511   -0.01700
C36   1    0.511638    0.126573    1.281932    11.00000    0.06454    0.08652 =
         0.02513    0.02052    0.01001   -0.00423
AFIX  43
H36   2    0.495637    0.122498    1.326110    11.00000   -1.20000
AFIX   0
C37   1    0.510648    0.195922    1.248059    11.00000    0.04806    0.18236 =
         0.03795   -0.01099    0.01348    0.02485
AFIX  43
H37   2    0.497379    0.236803    1.273189    11.00000   -1.20000
AFIX   0
C38   1    0.534266    0.002934    1.290390    11.00000    0.05478    0.08145 =
         0.04702    0.00069   -0.00327   -0.00382
C101  1    0.834931    0.132118    0.646971    11.00000    0.02365    0.10290 =
         0.05113   -0.02256    0.01476    0.00116
AFIX  43
H101  2    0.880434    0.157515    0.668597    11.00000   -1.20000
AFIX   0
C102  1    0.766409    0.066364    0.581224    11.00000    0.04428    0.05209 =
         0.04351    0.00373   -0.00703   -0.02026
AFIX  43
H102  2    0.755717    0.037994    0.544103    11.00000   -1.20000
AFIX   0
C103  1    0.708638    0.080943    0.626605    11.00000    0.02912    0.16373 =
         0.04506   -0.00380    0.00805   -0.03410
AFIX  43
H103  2    0.650115    0.062979    0.630040    11.00000   -1.20000
AFIX   0
C104  1    0.710383    0.162286    0.725864    11.00000    0.05574    0.08180 =
         0.06605   -0.00985    0.00269    0.00117
AFIX  23
H10A  2    0.679862    0.125945    0.752295    11.00000   -1.20000
H10B  2    0.666045    0.197785    0.711812    11.00000   -1.20000
AFIX   0
C105  1    0.779902    0.197690    0.764974    11.00000    0.05294    0.08109 =
         0.05995   -0.00557   -0.00327   -0.00829
AFIX  23
H10C  2    0.811845    0.233027    0.738317    11.00000   -1.20000
H10D  2    0.823073    0.162059    0.780600    11.00000   -1.20000
AFIX   0
C106  1    0.734028    0.235962    0.824368    11.00000    0.04394    0.12812 =
         0.03363    0.01765    0.01954    0.01803
AFIX  23
H10E  2    0.690855    0.271024    0.807719    11.00000   -1.20000
H10F  2    0.700767    0.200036    0.849472    11.00000   -1.20000
AFIX   0
C107  1    0.796863    0.273271    0.868667    11.00000    0.03970    0.16102 =
         0.03630   -0.03196   -0.00634    0.03651
AFIX  23
H10G  2    0.830728    0.309757    0.844684    11.00000   -1.20000
H10H  2    0.839123    0.238853    0.887524    11.00000   -1.20000
AFIX   0
C108  1    0.741998    0.308191    0.921996    11.00000    0.04345    0.05669 =
         0.04875   -0.01087    0.00280   -0.00079
AFIX  23
H10I  2    0.715239    0.270674    0.949233    11.00000   -1.20000
H10J  2    0.693335    0.335767    0.902125    11.00000   -1.20000
AFIX   0
C109  1    0.797423    0.357777    0.964704    11.00000    0.05508    0.08335 =
         0.06903   -0.00385    0.00458   -0.00286
AFIX  23
H10K  2    0.847018    0.330811    0.984031    11.00000   -1.20000
H10L  2    0.822578    0.396527    0.938082    11.00000   -1.20000
AFIX   0
C110  1    0.767191    0.443305    1.054724    11.00000    0.04694    0.11801 =
         0.02650    0.00628   -0.01070   -0.01616
AFIX  43
H110  2    0.823559    0.465589    1.055416    11.00000   -1.20000
AFIX   0
C111  1    0.697422    0.460826    1.092079    11.00000    0.04489    0.05199 =
         0.04467   -0.00637    0.00281   -0.00564
AFIX  43
H111  2    0.697470    0.495613    1.125322    11.00000   -1.20000
AFIX   0
C112  1    0.657362    0.379901    1.029291    11.00000    0.03512    0.14387 =
         0.03181    0.00002   -0.00326   -0.00422
AFIX  43
H112  2    0.620145    0.346758    1.007859    11.00000   -1.20000
AFIX   0
C201  1    0.863267    0.622222    0.175947    11.00000    0.06146    0.06301 =
         0.06178    0.00075   -0.00277    0.00033
AFIX  43
H201  2    0.911924    0.630201    0.147869    11.00000   -1.20000
AFIX   0
C202  1    0.788341    0.579930    0.256831    11.00000    0.05556    0.07329 =
         0.06381   -0.00955   -0.00757   -0.00904
AFIX  43
H202  2    0.774417    0.552622    0.294037    11.00000   -1.20000
AFIX   0
C203  1    0.732105    0.608508    0.212723    11.00000    0.05855    0.07002 =
         0.06813   -0.00990   -0.00849    0.00439
AFIX  43
H203  2    0.669849    0.611636    0.218144    11.00000   -1.20000
AFIX   0
C204  1    0.740764    0.657994    0.095822    11.00000    0.11755    0.12569 =
         0.11526   -0.00604   -0.00796    0.00058
AFIX  23
H20A  2    0.725974    0.616429    0.068563    11.00000   -1.20000
H20B  2    0.685449    0.684620    0.104123    11.00000   -1.20000
AFIX   0
C205  1    0.803023    0.703991    0.060964    11.00000    0.03566    0.18331 =
         0.02249   -0.01798   -0.00439    0.00630
AFIX  23
H20C  2    0.854358    0.675013    0.047279    11.00000   -1.20000
H20D  2    0.825055    0.740893    0.091003    11.00000   -1.20000
AFIX   0
C206  1    0.763637    0.741145    0.000797    11.00000    0.04825    0.15097 =
         0.07299   -0.00022   -0.00657    0.01396
AFIX  23
H20E  2    0.728724    0.705640   -0.023594    11.00000   -1.20000
H20F  2    0.722108    0.778375    0.015707    11.00000   -1.20000
AFIX   0
C207  1    0.825123    0.773114   -0.042420    11.00000    0.09885    0.24073 =
         0.05976    0.01511   -0.04126   -0.02100
AFIX  23
H20G  2    0.866317    0.736202   -0.058433    11.00000   -1.20000
H20H  2    0.860333    0.808941   -0.018651    11.00000   -1.20000
AFIX   0
C208  1    0.779886    0.809487   -0.100817    11.00000    0.09341    0.10348 =
         0.08272    0.01101   -0.00436   -0.00113
AFIX  23
H20I  2    0.735520    0.776113   -0.118616    11.00000   -1.20000
H20J  2    0.825201    0.817082   -0.134600    11.00000   -1.20000
AFIX   0
C209  1    0.732625    0.882586   -0.087729    11.00000    0.08509    0.10020 =
         0.07302    0.01278   -0.00551    0.00023
AFIX  23
H20K  2    0.686676    0.876229   -0.054193    11.00000   -1.20000
H20L  2    0.776327    0.917480   -0.071528    11.00000   -1.20000
AFIX   0
C210  1    0.729647    0.947540   -0.193115    11.00000    0.06103    0.07524 =
         0.05355   -0.00788    0.00002   -0.01958
AFIX  43
H210  2    0.789191    0.963584   -0.194303    11.00000   -1.20000
AFIX   0
C211  1    0.665013    0.959813   -0.240543    11.00000    0.09307    0.09167 =
         0.04083   -0.01522    0.00307   -0.03963
AFIX  43
H211  2    0.668828    0.991025   -0.276483    11.00000   -1.20000
AFIX   0
C212  1    0.610783    0.888107   -0.168806    11.00000    0.06421    0.13194 =
         0.04263    0.01677   -0.01740   -0.04232
AFIX  43
H212  2    0.573082    0.856598   -0.145849    11.00000   -1.20000
AFIX   0
C301  1    0.411685    0.403498    0.996801    11.00000    0.03713    0.08703 =
         0.02058    0.01146   -0.00132    0.03259
AFIX  43
H301  2    0.464734    0.401948    0.972288    11.00000   -1.20000
AFIX   0
C302  1    0.317518    0.420209    1.074642    11.00000    0.03369    0.05467 =
         0.03643   -0.00050    0.00382    0.01603
AFIX  43
H302  2    0.295434    0.433077    1.115941    11.00000   -1.20000
AFIX   0
C303  1    0.266213    0.405607    1.020952    11.00000    0.03134    0.12049 =
         0.04285    0.03282    0.01105    0.01428
AFIX  43
H303  2    0.203611    0.402642    1.018274    11.00000   -1.20000
AFIX   0
C304  1    0.307496    0.382120    0.903936    11.00000    0.03319    0.13015 =
         0.03401   -0.00102   -0.00518    0.01599
AFIX  23
H30A  2    0.356925    0.396715    0.875550    11.00000   -1.20000
H30B  2    0.254268    0.409550    0.891535    11.00000   -1.20000
AFIX   0
C305  1    0.288722    0.297183    0.895891    11.00000    0.05360    0.08518 =
         0.05591    0.00722    0.00446   -0.00644
AFIX  23
H30C  2    0.340491    0.269389    0.910682    11.00000   -1.20000
H30D  2    0.236637    0.282956    0.921792    11.00000   -1.20000
AFIX   0
C306  1    0.271700    0.283873    0.824532    11.00000    0.03111    0.13714 =
         0.03429    0.00358   -0.00910   -0.01213
AFIX  23
H30E  2    0.324691    0.296042    0.798745    11.00000   -1.20000
H30F  2    0.221474    0.313128    0.809234    11.00000   -1.20000
AFIX   0
C307  1    0.249325    0.201503    0.817773    11.00000    0.05057    0.06746 =
         0.04662    0.00815    0.00172   -0.00006
AFIX  23
H30G  2    0.300442    0.173603    0.833573    11.00000   -1.20000
H30H  2    0.198220    0.190335    0.845857    11.00000   -1.20000
AFIX   0
C308  1    0.227701    0.177758    0.748571    11.00000    0.05692    0.08096 =
         0.05488    0.00192   -0.00291   -0.00422
AFIX  23
H30I  2    0.179297    0.208000    0.731797    11.00000   -1.20000
H30J  2    0.280300    0.186140    0.721165    11.00000   -1.20000
AFIX   0
C309  1    0.201389    0.102968    0.742096    11.00000    0.04576    0.06447 =
         0.04190   -0.00114   -0.00820    0.00750
AFIX  23
H30K  2    0.253947    0.072500    0.748924    11.00000   -1.20000
H30L  2    0.157921    0.091472    0.776261    11.00000   -1.20000
AFIX   0
C310  1    0.214977    0.069364    0.626039    11.00000    0.08046    0.09059 =
         0.06961   -0.00312   -0.00322   -0.01142
AFIX  43
H310  2    0.277467    0.064840    0.623784    11.00000   -1.20000
AFIX   0
C311  1    0.151575    0.060519    0.575514    11.00000    0.03272    0.05416 =
         0.03517   -0.00740   -0.00069    0.02001
AFIX  43
H311  2    0.163262    0.042014    0.533717    11.00000   -1.20000
AFIX   0
C312  1    0.079789    0.091152    0.659459    11.00000    0.05054    0.06228 =
         0.04585   -0.00798   -0.01284    0.00460
AFIX  43
H312  2    0.032191    0.099267    0.688457    11.00000   -1.20000
AFIX   0
HKLF 4
 
REM  DSMSAC in P2(1)2(1)2(1); 120K; GV-1000
REM R1 =  0.1719 for    5058 Fo > 4sig(Fo)  and  0.2661 for all    9867 data
REM    780 parameters refined using    266 restraints
 
END
 
WGHT      0.2000      0.0000
 
REM Highest difference peak  3.392,  deepest hole -3.531,  1-sigma level  0.267
Q1    1   0.4448  0.4345  1.1180  11.00000  0.05    1.46
Q2    1   1.0611  0.6151  0.2910  11.00000  0.05    1.39
Q3    1   0.5781  0.8984 -0.2737  11.00000  0.05    1.28
Q4    1   0.4795  0.0217  1.3821  11.00000  0.05    1.26
Q5    1   0.9452 -0.0223  0.5441  11.00000  0.05    1.21
;
_shelx_res_checksum              22207
_shelx_hkl_file
;
   0   0  -2 30.0076 83.4816   2
   0   0  -3 37.6684 124.948   2
   0   0  -4-11.7366 166.692   2
   0   0  -5 1.19088 187.630   2
   0   0  -6 6334.20 520.046   2
   0   0  -7-27.3613 214.279   2
   0   0  -8 471.711 284.844   2
   0   0  -9-154.878 268.466   2
   0   0 -10 473.903 310.183   2
   0   0 -11-63.4423 283.411   2
   0   0 -12 4643.06 700.095   2
   0   0 -13 31.4876 304.105   2
   0   0 -14 5235.45 306.096   3
   0   0 -15 25.3160 128.052   3
   0   0 -16 957.337 188.415   3
   0   0 -17-77.6340 134.888   3
   0   0 -18 2510.03 270.305   3
   0   0 -19 27.8560 145.772   3
   0   0 -20 2927.59 293.573   3
   0   0 -21-23.3011 140.267   3
   0   0 -22 754.334 157.230   3
   0   0 -23 32.7062 102.838   3
   0   0 -24 3313.97 199.660   3
   0   1  -2 282.540 143.250   2
   0   1   2 321.820 94.2275   1
   0   1  -3 64406.0 1201.16   2
   0  -1  -3 63415.2 1125.99   2
   0   1  -4 52.0886 200.323   2
   0  -1  -4 201.943 197.195   2
   0   1  -5 59.7129 204.805   2
   0  -1  -5 75.7645 181.572   2
   0  -1  -6 222.424 206.949   2
   0   1  -6 214.272 240.495   2
   0   1  -7-56.1701 226.907   2
   0  -1  -7 5.35224 220.996   2
   0  -1  -8 71.3308 229.266   2
   0   1  -8 45.7091 241.140   2
   0  -1  -9 667.507 329.335   2
   0   1  -9 576.684 348.147   2
   0  -1 -10 472.723 307.565   2
   0   1 -10 226.951 307.359   2
   0   1 -11 668.541 371.116   2
   0  -1 -11 891.538 449.307   2
   0  -1 -12 2339.86 532.680   2
   0  -1 -13 894.155 418.257   2
   0   1 -14 720.308 155.604   3
   0  -1 -14 1099.72 195.128   3
   0  -1 -14 644.379 394.411   2
   0  -1 -15 932.615 179.806   3
   0   1 -15 1010.39 181.382   3
   0   1 -16 637.608 175.960   3
   0  -1 -16 809.247 182.182   3
   0   1 -17 381.770 171.601   3
   0  -1 -17 786.356 241.396   3
   0  -1 -18 6745.86 395.545   3
   0   1 -18 6993.53 390.373   3
   0   1 -19 554.559 184.139   3
   0  -1 -19 570.913 180.476   3
   0   1 -20 1617.78 238.196   3
   0  -1 -20 1648.50 232.641   3
   0   1 -21 1732.26 223.501   3
   0  -1 -21 1281.18 207.138   3
   0   1 -22 453.659 134.767   3
   0  -1 -22 453.968 135.047   3
   0   1 -23 107.677 120.319   3
   0  -1 -23-32.0190 98.4763   3
   0   1 -24 249.477 102.251   3
   0  -1 -24 234.003 94.5526   3
   0   1 -25 279.577 84.3611   3
   0   2   0 16329.3 559.820   1
   0   2   1-13.7790 121.739   1
   0   2  -1 3.10118 125.008   1
   0   2  -2 116.810 158.065   1
   0   2   2 179.051 152.363   1
   0   2   3 218481. 2186.40   1
   0   2   4 14.2670 147.628   1
   0   2  -5 84.9477 232.127   2
   0  -2  -5 74.4140 213.574   2
   0   2   5 137.211 175.833   1
   0  -2  -6 2287.76 369.505   2
   0   2  -6 2195.34 399.244   2
   0   2   6 2260.59 339.625   1
   0  -2  -7 323.968 251.903   2
   0   2   7 374.022 215.979   1
   0   2  -7 325.495 254.979   2
   0   2   8 160.246 222.746   1
   0  -2  -8 112.985 237.409   2
   0   2  -8 185.139 277.271   2
   0  -2  -9 4279.04 562.782   2
   0   2   9 3741.28 531.939   1
   0   2  -9 3768.22 604.895   2
   0   2  10 142.961 251.565   1
   0  -2 -10 284.221 331.475   2
   0  -2 -11-10.6845 276.580   2
   0  -2 -12 24245.0 1467.83   2
   0  -2 -13 109.128 298.562   2
   0   2 -14 200.843 129.237   3
   0  -2 -14 52.2827 310.083   2
   0  -2 -14 147.750 122.431   3
   0   2 -15 16034.8 532.063   3
   0  -2 -15 14619.7 513.586   3
   0   2 -16 140.842 133.549   3
   0  -2 -16 162.123 135.971   3
   0  -2 -17 2176.86 238.265   3
   0   2 -17 2021.80 238.966   3
   0  -2 -18 4217.44 315.664   3
   0   2 -18 3981.97 308.342   3
   0   2 -19 44.4936 142.136   3
   0  -2 -19 46.8173 160.518   3
   0   2 -20 275.274 156.536   3
   0  -2 -20 326.366 176.891   3
   0   2 -21 896.034 186.713   3
   0  -2 -21 777.628 163.168   3
   0   2 -22-70.4169 110.186   3
   0  -2 -22-25.1524 105.042   3
   0  -2 -23 1221.00 153.745   3
   0   2 -23 1002.01 151.636   3
   0   2 -24 384.398 102.570   3
   0   2 -25 139.875 77.2732   3
   0   3   0 36.8498 180.506   1
   0   3  -1 154.326 211.895   1
   0   3   1 158.481 212.762   1
   0   3   2 281.100 214.684   1
   0   3  -2 175.858 212.691   1
   0   3   3 106329. 1795.96   1
   0   3   4 316.752 286.082   1
   0   3   5 163.137 172.756   1
   0  -3  -6 5527.48 562.179   2
   0   3   6 5890.11 505.636   1
   0  -3  -7 50.9336 231.369   2
   0   3   7 74.8124 169.313   1
   0   3   8 423.145 239.463   1
   0  -3  -8 406.268 294.885   2
   0   3   9 61534.0 1935.22   1
   0  -3  -9 68321.8 1991.94   2
   0  -3 -10 163.764 275.062   2
   0   3  10 148.775 241.864   1
   0  -3 -11 1575.79 449.611   2
   0  -3 -12 2814.97 547.178   2
   0  -3 -13 20.0450 314.941   2
   0  -3 -14 118.407 299.058   2
   0   3 -14 109.635 120.779   3
   0  -3 -14 23.0601 107.524   3
   0   3 -15 5170.71 314.052   3
   0  -3 -15 4525.34 298.469   3
   0   3 -16 33.2982 132.137   3
   0  -3 -16 131.367 142.671   3
   0   3 -17 651.926 181.232   3
   0  -3 -17 638.306 172.294   3
   0   3 -18 1901.20 238.059   3
   0  -3 -18 1858.57 230.361   3
   0  -3 -19 280.247 170.950   3
   0   3 -19 178.935 157.208   3
   0  -3 -20 44.4704 139.133   3
   0   3 -20 55.1847 143.179   3
   0   3 -21 8007.02 389.650   3
   0  -3 -21 7109.90 344.490   3
   0   3 -22 95.5472 110.969   3
   0  -3 -22-18.8602 102.458   3
   0   3 -23 538.745 130.935   3
   0   3 -24 176.750 97.0587   3
   0   3 -25 152.993 77.6211   3
   0   4   0 192179. 2714.42   1
   0   4   1 540.097 283.994   1
   0   4  -1 523.208 278.595   1
   0   4   2 127.177 239.482   1
   0   4  -2 175.990 262.500   1
   0   4   3 323254. 3516.49   1
   0   4  -3 319512. 3797.83   1
   0   4   4 280.364 245.927   1
   0   4   5 36.5989 216.272   1
   0   4   6 766.258 267.711   1
   0   4   7 47.7073 211.294   1
   0  -4  -7-38.0841 285.811   2
   0  -4  -8 2300.95 501.089   2
   0   4   8 2287.20 440.591   1
   0   4   9 218.551 233.951   1
   0  -4  -9 365.380 312.091   2
   0  -4 -10 1465.46 445.757   2
   0   4  10 1207.73 377.003   1
   0  -4 -11 888.024 399.115   2
   0  -4 -12 10441.1 996.757   2
   0  -4 -13-21.3424 309.013   2
   0   4 -13 88.4709 111.691   3
   0   4 -14 307.425 136.998   3
   0  -4 -15 4732.74 295.698   3
   0   4 -15 5697.30 334.184   3
   0   4 -16 2487.23 255.475   3
   0  -4 -16 2315.89 239.999   3
   0  -4 -17 325.545 156.583   3
   0   4 -17 323.050 150.776   3
   0   4 -18 2760.53 267.047   3
   0  -4 -18 2966.90 263.837   3
   0   4 -19 6.03738 137.898   3
   0  -4 -19-74.8111 144.401   3
   0   4 -20 726.080 179.045   3
   0  -4 -20 401.871 107.735   3
   0  -4 -21-31.8959 87.7719   3
   0   4 -21 52.7898 132.719   3
   0   4 -22 66.6243 102.570   3
   0   4 -23 665.340 131.732   3
   0   4 -24 8.49078 86.3642   3
   0   4 -25 160.049 71.6088   3
   0   5   0 2.71512 257.713   1
   0   5   1 151.113 271.288   1
   0   5  -1 165.524 324.535   1
   0   5  -2 229.057 255.758   1
   0   5   2 214.868 239.859   1
   0   5   3 39736.9 1453.91   1
   0   5  -3 41979.6 1529.62   1
   0   5   4 7.57139 234.285   1
   0   5   5 970.272 324.251   1
   0   5   6 43578.2 1565.65   1
   0   5   7 95.1685 275.139   1
   0   5   8 178.283 287.542   1
   0  -5  -8 115.250 308.594   2
   0   5   9 5818.14 693.626   1
   0  -5  -9 6199.31 744.088   2
   0  -5 -10 258.315 298.796   2
   0  -5 -11 28.2230 288.422   2
   0  -5 -12 608.388 377.677   2
   0  -5 -13 437.120 386.494   2
   0   5 -13 512.531 142.576   3
   0   5 -14 74.8381 349.153   6
   0   5 -14 1530.97 197.887   3
   0   5 -15 79.9949 355.389   6
   0   5 -15 679.719 163.155   3
   0   5 -16 2874.73 272.696   3
   0   5 -17 320.596 156.415   3
   0   5 -17 718.628 454.521   6
   0   5 -18 17584.8 586.438   3
   0   5 -18 226.279 354.660   6
   0   5 -19 88.9033 140.088   3
   0   5 -20 1413.12 205.021   3
   0   5 -21 1000.47 174.335   3
   0   5 -22-15.5934 103.628   3
   0   5 -23-47.0478 94.2271   3
   0   5 -24 1735.63 149.036   3
   0   5 -25 144.792 67.4764   3
   0   6   0 366816. 4608.83   1
   0   6   1 1180.81 357.415   1
   0   6  -1 1070.65 382.071   1
   0   6  -2 2889.44 528.594   1
   0   6   2 3130.18 491.934   1
   0   6  -3 211.809 281.897   1
   0   6   3 277.215 285.039   1
   0   6   4 63.3246 259.228   1
   0   6   5 71.8858 262.579   1
   0   6   6 76924.1 2204.50   1
   0   6   7 1090.35 409.615   1
   0   6   8 1466.43 430.625   1
   0  -6  -9 4070.13 683.989   2
   0   6   9 3793.16 606.531   1
   0  -6 -10 304.906 376.870   2
   0  -6 -11 558.772 382.238   2
   0  -6 -12 13999.4 1210.21   2
   0   6 -13 4.97074 110.061   3
   0   6 -13 26.9339 357.004   6
   0   6 -14-36.5100 120.155   3
   0   6 -14-6.44359 355.293   6
   0   6 -15 23220.5 635.906   3
   0   6 -15 54.4604 393.752   6
   0   6 -16-49.0178 374.341   6
   0   6 -16 3.74863 130.091   3
   0   6 -17 392.643 159.765   3
   0   6 -17 385.914 409.044   6
   0   6 -18-10.4322 359.026   6
   0   6 -18 374.042 161.546   3
   0   6 -19 48.4309 135.220   3
   0   6 -19-388.312 334.826   6
   0   6 -20 1399.87 196.105   3
   0   6 -21 917.309 160.498   3
   0   6 -22 223.205 114.208   3
   0   6 -23 113.499 92.3474   3
   0   6 -24 533.161 95.1856   3
   0   7   0 22.9341 277.994   1
   0   7  -1 32.2382 276.315   1
   0   7   1 92.7271 285.804   1
   0   7   2 804.022 377.058   1
   0   7  -2 694.131 391.638   1
   0   7  -3 12485.4 1001.27   1
   0   7   3 13077.8 969.146   1
   0   7   4 41.7219 270.068   1
   0   7   5 148.719 320.710   1
   0   7   6 47579.1 1873.92   1
   0   7   7 167.103 316.302   1
   0   7   8 50.6680 306.039   1
   0   7   9 35593.3 1710.20   1
   0  -7  -9 38555.7 1976.40   2
   0  -7 -10 103.534 346.035   2
   0  -7 -11 282.433 344.173   2
   0  -7 -12 3787.27 723.077   2
   0   7 -12 4078.87 266.295   3
   0   7 -13 104.645 116.814   3
   0   7 -13 7.09077 358.377   6
   0   7 -14 653.615 158.302   3
   0   7 -14 443.019 445.262   6
   0   7 -15 77.5489 377.179   6
   0   7 -15 12358.4 466.218   3
   0   7 -16-9.12026 381.333   6
   0   7 -16-18.4909 126.028   3
   0   7 -17 652.029 449.145   6
   0   7 -17 192.845 144.002   3
   0   7 -18 3.00378 350.805   6
   0   7 -18 1822.17 216.438   3
   0   7 -19 257.518 145.416   3
   0   7 -19-0.04774 333.971   6
   0   7 -20 127.970 121.541   3
   0   7 -20 87.5629 337.759   6
   0   7 -21 2990.64 224.849   3
   0   7 -22 501.443 120.324   3
   0   7 -23 80.5455 82.3075   3
   0   7 -24 1831.60 128.632   3
   0   8   0 918.097 409.465   1
   0   8  -1 36.2458 311.529   1
   0   8   1 137.412 320.275   1
   0   8   2 152.594 317.897   1
   0   8  -2-12.6463 311.280   1
   0   8  -3 191440. 4042.58   1
   0   8   3 189614. 3845.21   1
   0   8   4 603.937 392.704   1
   0   8   5 230.670 330.242   1
   0   8   6 29067.3 1570.60   1
   0   8   7 1165.35 423.129   1
   0   8   8 65.1023 291.790   1
   0  -8  -9 3200.52 715.753   2
   0   8   9 2947.67 608.232   1
   0  -8 -10 157.393 362.999   2
   0  -8 -11 338.746 406.788   2
   0   8 -12 171.558 110.203   3
   0   8 -12 609.144 409.631   6
   0   8 -13-36.5209 364.794   6
   0   8 -13 1124.04 176.014   3
   0   8 -14 46.8363 123.921   3
   0   8 -14 10922.0 718.431   6
   0   8 -15 4212.18 302.923   3
   0   8 -16 724.453 167.107   3
   0   8 -16 37.0927 523.976   6
   0   8 -17 388.768 150.476   3
   0   8 -17 625.922 458.304   6
   0   8 -18 231.037 139.990   3
   0   8 -19-134.020 333.464   6
   0   8 -19 628.215 182.877   3
   0   8 -20 45.5155 334.314   6
   0   8 -20-18.5075 96.1103   3
   0   8 -21-71.6349 250.063   6
   0   8 -21 23.6169 100.313   3
   0   8 -22-19.1780 83.9090   3
   0   8 -23 890.960 114.554   3
   0   9   0-102.527 310.151   1
   0   9   1 106.222 359.936   1
   0   9  -1 434.292 405.912   1
   0   9   2 175.949 338.674   1
   0   9  -2 115.506 335.295   1
   0   9  -3 31012.0 1757.20   1
   0   9   3 31608.6 1717.09   1
   0   9   4 107.454 326.857   1
   0   9   5 264.594 331.857   1
   0   9   6 8164.47 941.003   1
   0   9   7 4.50321 317.876   1
   0   9   8-138.720 343.899   1
   0   9   9 8706.48 998.982   1
   0  -9 -10-86.5046 420.016   2
   0   9 -10-41.4884 354.498   6
   0  -9 -11-48.8709 408.396   2
   0   9 -11-12.1625 92.6149   3
   0   9 -12-25.6238 387.380   6
   0   9 -12-24.7662 105.105   3
   0   9 -13 84.9883 366.228   6
   0   9 -13 1731.11 202.615   3
   0   9 -14 103.876 127.651   3
   0   9 -15-60.1173 388.764   6
   0   9 -15 2014.20 220.754   3
   0   9 -16-62.4640 392.865   6
   0   9 -16 571.241 156.403   3
   0   9 -17 87.7426 417.745   6
   0   9 -17 2192.11 225.735   3
   0   9 -18-25.1027 363.765   6
   0   9 -18 773.766 156.639   3
   0   9 -19 23.7931 342.527   6
   0   9 -19 98.7035 102.468   3
   0   9 -20 158.211 99.1951   3
   0   9 -20-15.0075 287.240   6
   0   9 -21 4847.99 244.580   3
   0   9 -21 17.4918 230.920   6
   0   9 -22 73.9359 82.8643   3
   0   9 -23 130.138 72.7554   3
   0  10   0 150528. 3942.53   1
   0  10   1 5724.73 834.657   1
   0  10  -1 5445.43 848.005   1
   0  10  -2 113.387 375.884   1
   0  10   2 120.561 331.853   1
   0  10   3 30698.2 1783.83   1
   0  10   4 841.823 422.408   1
   0  10   5-21.6512 326.758   1
   0  10   6 700.694 443.022   1
   0  10   7-38.9510 339.771   1
   0  10   8 915.257 483.131   1
   0  10  -9 41.6179 428.201   6
   0 -10 -10 19.8640 136.666   7
   0  10 -10 21.3001 341.442   6
   0 -10 -10 178.779 480.597   2
   0  10 -11 7764.05 712.062   6
   0 -10 -11-61.9104 123.828   7
   0  10 -12 3726.82 292.487   3
   0  10 -12 0.05324 381.983   6
   0  10 -13 52.2790 113.307   3
   0  10 -14 334.846 514.171   6
   0  10 -14 348.517 131.583   3
   0  10 -15 97.7337 400.338   6
   0  10 -15 3744.89 273.974   3
   0  10 -16 173.788 420.394   6
   0  10 -16 442.672 174.822   3
   0  10 -17 85.0366 104.061   3
   0  10 -18 2044.77 610.363   6
   0  10 -18 2924.18 220.010   3
   0  10 -19-14.2374 313.938   6
   0  10 -19 54.7416 97.6942   3
   0  10 -20-18.3938 269.248   6
   0  10 -20 613.240 121.010   3
   0  10 -21 35.0354 75.8130   3
   0  10 -21 40.9575 227.699   6
   0  10 -22-42.5908 72.3973   3
   0  11   0 110.337 349.755   1
   0  11  -1 1784.72 542.953   1
   0  11   1 1988.37 569.116   1
   0  11  -2 85.6235 338.489   1
   0  11   2 166.310 344.116   1
   0  11   3 499.440 373.121   1
   0  11   4-8.97365 307.921   1
   0  11   5-26.2926 327.078   1
   0  11   6 51307.4 2552.22   1
   0  11   7-42.9749 339.551   1
   0 -11  -8-37.1200 152.173   7
   0  11   8 46.4869 325.891   1
   0 -11  -9 8.20713 139.800   7
   0  11  -9 7.57332 369.699   6
   0 -11 -10 77.9848 453.162   2
   0  11 -10 252.269 390.897   6
   0 -11 -10 867.713 236.921   7
   0 -11 -11-33.6559 148.115   7
   0  11 -11 3520.39 508.690   6
   0  11 -12 17.0104 398.156   6
   0 -11 -12 12.8289 132.324   7
   0  11 -13 32.4767 110.961   3
   0  11 -13 261.483 400.110   6
   0  11 -14 1073.35 169.420   3
   0  11 -14 82.1960 389.694   6
   0  11 -15 641.441 149.126   3
   0  11 -15-70.7887 386.098   6
   0  11 -16 7.20426 380.704   6
   0  11 -16 1138.88 158.915   3
   0  11 -17-52.1521 87.9292   3
   0  11 -17-56.7835 371.111   6
   0  11 -18 3069.91 204.955   3
   0  11 -18-41.5737 327.280   6
   0  11 -19 239.214 92.4237   3
   0  11 -19-155.650 301.201   6
   0  11 -20 43.5353 261.304   6
   0  11 -20 855.886 115.305   3
   0  11 -21 61.9376 208.390   6
   0  11 -21 76.3519 73.4276   3
   0  12   0 49335.4 2537.62   1
   0  12  -1 100.472 329.946   1
   0  12   1 90.4951 352.337   1
   0  12   2 71.1729 324.850   1
   0  12   3 259.072 375.811   1
   0 -12  -4 71.9054 174.948   7
   0  12   4 140.722 362.322   1
   0  12   5 1209.91 551.150   1
   0 -12  -5 6.81166 176.605   7
   0 -12  -6 1949.62 367.801   7
   0  12  -6 423.898 395.847   6
   0  12   6 898.836 497.199   1
   0  12   7 615.152 425.391   1
   0 -12  -7 208.282 310.365   7
   0  12  -7 52.0500 344.139   6
   0 -12  -8-11.6926 169.975   7
   0  12   8 965.526 538.331   1
   0  12  -9-0.61343 359.706   6
   0 -12  -9 16.9642 156.999   7
   0 -12 -10 297.321 189.627   7
   0  12 -10 1.94423 367.065   6
   0  12 -11 1021.89 475.206   6
   0 -12 -11-10.3238 154.302   7
   0 -12 -12 10.9306 149.729   7
   0  12 -12-70.8348 376.326   6
   0 -12 -13 51.8537 154.085   7
   0  12 -13 1234.66 463.812   6
   0  12 -14 217.408 377.471   6
   0  12 -15 6614.74 302.721   3
   0  12 -15 34.0913 361.772   6
   0  12 -16-67.8275 358.280   6
   0  12 -16 40.0205 71.9240   3
   0  12 -17 24.1807 335.576   6
   0  12 -17 66.1618 81.9278   3
   0  12 -18-56.7770 311.307   6
   0  12 -18 1065.27 120.836   3
   0  12 -19 234.044 84.1444   3
   0  12 -19-78.6197 284.193   6
   0  12 -20 4.49578 237.034   6
   0  12 -20 339.357 80.2791   3
   0  12 -21 148.806 183.537   6
   0  13   0 12.4205 347.717   1
   0 -13   0-84.8575 176.119   7
   0 -13  -1-50.2877 176.889   7
   0  13   1 282.990 407.801   1
   0 -13   1 221.356 187.204   7
   0 -13   2-23.1299 169.822   7
   0  13   2 227.696 368.981   1
   0 -13  -2 299.411 202.221   7
   0 -13  -3-86.3423 185.320   7
   0 -13   3-19.5963 145.204   7
   0  13   4 837.882 516.415   1
   0 -13  -4 35.6321 169.590   7
   0  13   5 61.6620 349.983   1
   0  13  -5-101.309 325.226   6
   0 -13  -5 135.598 202.619   7
   0 -13  -6-18.0607 170.703   7
   0  13  -6-19.1523 345.928   6
   0  13   7 19.6693 386.964   1
   0 -13  -7 566.743 212.280   7
   0  13  -7-8.94316 343.011   6
   0  13  -8 1403.86 468.361   6
   0 -13  -8-16.9260 169.184   7
   0 -13  -9 7.72082 166.638   7
   0  13  -9-38.9478 372.873   6
   0 -13 -10 89.1153 189.779   7
   0  13 -10 1066.33 468.202   6
   0 -13 -11 32.4051 165.888   7
   0  13 -11 98.4079 412.729   6
   0  13 -12-72.0516 380.784   6
   0 -13 -12-51.7252 165.343   7
   0 -13 -13-57.4533 143.553   7
   0  13 -13 92.8292 382.658   6
   0  13 -15-45.6537 361.708   6
   0  13 -16 59.4524 365.886   6
   0  13 -17-35.8632 316.931   6
   0  13 -18-5.78867 292.581   6
   0  13 -19-6.97325 261.453   6
   0  13 -20-100.409 216.361   6
   0  13 -21 569.231 171.684   6
   0 -14   0 50.2544 183.679   7
   0 -14   1-20.8443 188.640   7
   0 -14  -1-77.4574 203.942   7
   0 -14   2-8.47035 179.532   7
   0  14   2 22.6800 388.381   1
   0 -14  -2-39.4006 189.990   7
   0 -14   3-4.33222 161.922   7
   0 -14  -3-57.1254 186.695   7
   0 -14  -4 22.8607 191.410   7
   0  14  -4 169.482 309.060   6
   0 -14   4 6.30826 159.923   7
   0  14   5-74.1357 378.275   1
   0  14  -5 422.192 394.138   6
   0 -14  -5 469.985 233.811   7
   0  14   6 300.895 368.586   1
   0 -14  -6-73.3910 201.417   7
   0  14   7 143.525 344.567   1
   0  14  -7 151.110 376.116   6
   0  14  -8 819.614 507.550   6
   0 -14  -8-15.5416 187.415   7
   0 -14  -9 41.8266 193.627   7
   0  14  -9-83.7894 368.831   6
   0  14 -10 1506.12 485.651   6
   0 -14 -10 1009.55 256.535   7
   0 -14 -11-17.6612 173.557   7
   0 -14 -12-27.7970 157.582   7
   0 -14 -13-11.5653 140.135   7
   0  14 -13-56.2123 362.779   6
   0  14 -14-27.4385 344.517   6
   0 -14 -14-1.53353 125.107   7
   0  14 -15-18.2666 336.473   6
   0  14 -16-1.51253 313.911   6
   0  14 -17-52.9620 298.371   6
   0  14 -18-31.8550 267.606   6
   0  14 -19-128.567 231.570   6
   0  14 -20 61.3897 179.553   6
   0 -15   0-9.23782 191.932   7
   0 -15  -1-24.6433 202.425   7
   0 -15   1 166.145 205.929   7
   0 -15  -2-43.0264 201.758   7
   0 -15   2-45.3197 194.453   7
   0 -15   3-132.455 187.081   7
   0 -15  -3 82.9117 218.052   7
   0  15  -4-19.1527 315.499   6
   0 -15  -4 684.650 252.782   7
   0 -15   4-22.1883 178.130   7
   0  15  -5 145.504 328.885   6
   0 -15  -5 14.7003 201.616   7
   0 -15  -6 13.1665 203.982   7
   0  15  -6-35.0237 351.401   6
   0  15  -7 1497.17 460.769   6
   0 -15  -7 17.0657 198.565   7
   0  15  -8 644.471 407.836   6
   0 -15  -8 115.443 221.714   7
   0  15  -9-173.468 367.945   6
   0 -15  -9 26.0546 195.882   7
   0  15 -10 278.483 393.185   6
   0 -15 -10 114.467 248.394   7
   0 -15 -11 19.4002 172.010   7
   0  15 -11 171.702 366.860   6
   0  15 -12-250.464 372.311   6
   0 -15 -12 53.5752 175.175   7
   0  15 -13 273.873 383.112   6
   0 -15 -13-34.4285 145.228   7
   0 -15 -14-23.4820 121.976   7
   0  15 -14-117.633 326.919   6
   0  15 -15-110.411 314.019   6
   0  15 -16 17.3753 280.664   6
   0  15 -17-1.95453 257.958   6
   0  15 -18 13.9662 220.536   6
   0  15 -19 3.15160 190.094   6
   0  15 -20-30.1766 138.782   6
   0 -16   0-7.42702 194.777   7
   0 -16  -1-12.7442 216.155   7
   0 -16   1-4.84657 203.550   7
   0 -16   2 29.1938 193.938   7
   0 -16  -2-73.7207 216.119   7
   0 -16   3 54.1024 206.160   7
   0 -16  -3-36.8526 210.513   7
   0 -16  -4-52.3871 214.820   7
   0 -16   4 17.4443 191.629   7
   0 -16  -5 0.33942 207.324   7
   0  16  -5 3478.62 617.278   6
   0 -16  -6 4.53260 212.538   7
   0  16  -6-48.3331 336.253   6
   0 -16  -7 74.2910 221.165   7
   0  16  -7 3322.09 529.597   6
   0 -16  -8 886.960 287.545   7
   0  16  -8 1207.43 368.040   6
   0 -16  -9 11.4298 209.014   7
   0  16  -9-218.136 377.170   6
   0  16 -10 33.1649 339.701   6
   0 -16 -10 172.253 261.816   7
   0  16 -11 445.269 365.420   6
   0 -16 -11 46.0924 194.051   7
   0 -16 -12 31.3887 165.758   7
   0  16 -12-541.498 361.934   6
   0 -16 -13 13.4623 135.455   7
   0  16 -13 274.178 322.897   6
   0  16 -14 75.5413 309.839   6
   0 -16 -14-23.0264 116.595   7
   0  16 -15 102.070 283.174   6
   0  16 -16 66.3844 253.539   6
   0  16 -17-247.632 240.069   6
   0  16 -18 33.9965 186.848   6
   0  16 -19 79.3282 153.059   6
   0 -17   0-24.4100 212.372   7
   0 -17  -1 282.391 363.505   7
   0 -17   1-83.1125 205.941   7
   0 -17  -2-3.07903 206.615   7
   0 -17   2-25.4951 208.370   7
   0 -17  -3 19.3885 227.514   7
   0 -17   3 4.97786 199.380   7
   0 -17   4 3.89148 183.136   7
   0 -17  -4-20.4808 220.886   7
   0  17  -5 320.184 306.285   6
   0 -17  -5 102.218 224.144   7
   0  17  -6 464.970 348.446   6
   0 -17  -6 107.323 220.032   7
   0 -17  -7 40.0770 223.300   7
   0  17  -7 3790.09 455.727   6
   0  17  -8 613.219 351.107   6
   0 -17  -8 1.22814 212.884   7
   0  17  -9-107.701 343.172   6
   0 -17  -9 8.15241 191.028   7
   0  17 -10 577.424 339.756   6
   0 -17 -10 17.2005 179.463   7
   0 -17 -11 1.20114 154.305   7
   0  17 -11 157.111 325.967   6
   0  17 -12 138.989 304.138   6
   0 -17 -12-40.9853 153.928   7
   0 -17 -13-53.8564 133.301   7
   0  17 -13 269.190 276.343   6
   0  17 -14-23.2589 259.799   6
   0  17 -15 79.4656 261.898   6
   0  17 -16 254.247 231.940   6
   0  17 -17-3.07291 188.214   6
   0  17 -18 63.4197 148.261   6
   0 -18   0 25.3520 195.952   7
   0 -18   1 20.4281 200.866   7
   0 -18  -1-32.2711 212.355   7
   0 -18   2-25.1144 191.170   7
   0 -18  -2-39.6069 223.466   7
   0 -18   3-1.68890 173.718   7
   0 -18  -3-29.5333 221.215   7
   0 -18  -4-5.92333 206.295   7
   0 -18   4-192.128 196.606   7
   0 -18  -5 46.4637 212.690   7
   0 -18  -6 121.657 214.223   7
   0  18  -6-88.0586 310.554   6
   0 -18  -7 77.8123 200.086   7
   0  18  -7 5289.27 463.471   6
   0  18  -8-116.179 299.153   6
   0 -18  -8 82.7533 214.568   7
   0 -18  -9-0.46123 170.683   7
   0  18  -9-134.126 289.642   6
   0 -18 -10 3.32313 175.791   7
   0  18 -10 10542.3 648.774   6
   0 -18 -11 195.535 201.433   7
   0  18 -11-64.6546 274.964   6
   0 -18 -12 22.1306 131.293   7
   0  18 -12 21.2120 254.478   6
   0  18 -13 321.912 259.025   6
   0 -18 -13 24.6468 116.736   7
   0  18 -14-233.363 240.711   6
   0  18 -15 319.500 217.390   6
   0  18 -16 3.46779 173.398   6
   0 -19   0-0.25418 181.988   7
   0 -19  -1-70.4565 200.562   7
   0 -19   1-8.26504 187.393   7
   0 -19  -2 67.0486 196.220   7
   0 -19   2-12.3394 179.604   7
   0 -19  -3 49.9225 201.323   7
   0 -19   3 30.2497 169.844   7
   0 -19   4-8.72800 162.893   7
   0 -19  -4 103.231 213.959   7
   0 -19  -5 85.1543 209.690   7
   0 -19  -6 5.65176 193.797   7
   0  19  -7 103.377 251.395   6
   0 -19  -7 34.8580 190.773   7
   0  19  -8 110.916 266.339   6
   0 -19  -8 76.8977 189.200   7
   0  19  -9 64.9574 253.767   6
   0 -19  -9 17.4101 164.078   7
   0 -19 -10 28.9371 149.672   7
   0  19 -10 181.159 261.110   6
   0  19 -11-24.5618 233.117   6
   0 -19 -11 92.5816 138.124   7
   0 -19 -12 15.3017 114.466   7
   0  19 -12 41.3696 217.293   6
   0  19 -13-131.894 204.666   6
   0  19 -14 100.405 186.213   6
   0 -20   0-29.5460 174.202   7
   0 -20  -1 126.321 187.690   7
   0 -20   1-74.4408 176.172   7
   0 -20   2 9.62483 159.447   7
   0 -20  -2-18.9784 176.992   7
   0 -20   3-64.3891 154.292   7
   0 -20  -3 3.59039 182.751   7
   0 -20  -4 237.057 200.400   7
   0 -20  -5-39.4458 183.582   7
   0 -20  -6-61.1963 177.901   7
   0 -20  -7-164.976 168.780   7
   0 -20  -8 161.268 167.024   7
   0 -20  -9 132.646 159.115   7
   0 -20 -10 56.5274 134.504   7
   0 -20 -11 141.046 118.293   7
   0 -21   0-14.6813 146.657   7
   0 -21  -1-30.3865 157.530   7
   0 -21   1-41.4907 149.157   7
   0 -21   2-5.45557 134.985   7
   0 -21  -2 16.7237 158.600   7
   0 -21  -3 53.1686 161.267   7
   0 -21  -4-3.30221 155.695   7
   0 -21  -5-2.88822 145.319   7
   0 -21  -6-15.6990 144.335   7
   0 -21  -7-84.5717 144.804   7
   0 -21  -8 309.944 143.794   7
   0 -21  -9-81.4004 112.826   7
   0 -21 -10 39.1223 99.8731   7
   0 -22   0 7.92866 118.999   7
   0 -22  -1 51.4932 133.672   7
   0 -22   1-1.87196 112.121   7
   0 -22  -2 76.5779 140.408   7
   0 -22   2 5.52606 98.5575   7
   0 -22  -3 97.9589 141.510   7
   0 -22  -4 29.8062 137.339   7
   0 -22  -5 44.9136 128.390   7
   0 -22  -6 85.0026 125.207   7
   0 -22  -7-45.7689 110.263   7
   0 -22  -8 439.611 121.041   7
  -1   0  -1 79.1492 84.3717   2
  -1   0  -2 4858.80 314.869   2
  -1   0  -3 44327.7 1011.84   2
   1   0  -3 45381.1 822.833   2
   1   0  -4 1169.97 218.721   2
  -1   0  -4 1157.59 257.072   2
  -1   0  -5 14.4704 204.853   2
   1   0  -5-59.3565 181.730   2
  -1   0  -6 114.328 240.491   2
   1   0  -6 163.280 202.307   2
   1   0  -7 135.507 238.764   2
  -1   0  -7 79.7213 231.829   2
   1   0  -8 2920.17 436.374   2
  -1   0  -8 2980.51 476.967   2
  -1   0  -9 2335.49 473.651   2
   1   0  -9 2424.88 464.114   2
  -1   0 -10 2789.96 557.305   2
   1   0 -10 2193.94 464.860   2
  -1   0 -11 87.5806 274.199   2
   1   0 -11 148.208 294.863   2
  -1   0 -12 1659.31 511.113   2
  -1   0 -13 62.5787 300.036   2
  -1   0 -14 113.058 336.564   2
  -1   0 -14 141.551 120.649   3
   1   0 -14 101.280 122.053   3
   1   0 -15 14108.9 496.267   3
  -1   0 -15 14491.2 506.337   3
  -1   0 -16 230.550 152.708   3
   1   0 -16 172.770 145.598   3
   1   0 -17 185.887 148.717   3
  -1   0 -17 187.276 145.051   3
   1   0 -18 787.863 197.181   3
  -1   0 -18 768.412 187.379   3
   1   0 -19 1204.81 224.457   3
  -1   0 -19 1105.02 211.408   3
  -1   0 -20 150.483 157.129   3
   1   0 -20 142.127 146.218   3
  -1   0 -21 623.937 177.878   3
   1   0 -21 865.713 173.093   3
   1   0 -22-18.3995 114.876   3
  -1   0 -22-4.30862 119.187   3
   1   0 -23 1539.11 172.686   3
  -1   0 -23 1596.67 174.153   3
  -1   0 -24 171.659 93.3432   3
   1   0 -24 263.954 105.178   3
  -1   0 -25-11.4744 66.3184   3
   1   1 -24 431.733 108.848   3
  -1  -1 -24 350.868 98.3070   3
   1   1 -23 5.05631 102.448   3
  -1  -1 -23 91.5813 101.963   3
   1   1 -22 317.113 133.118   3
  -1  -1 -22 479.275 147.882   3
   1   1 -21 14258.7 512.451   3
  -1  -1 -21 11819.2 523.136   3
  -1  -1 -20 99.6898 144.893   3
   1   1 -20 243.819 161.663   3
  -1  -1 -19 264.015 159.478   3
   1   1 -19 246.662 166.109   3
   1   1 -18 8923.02 446.002   3
  -1  -1 -18 9425.43 440.081   3
  -1  -1 -17 1414.81 212.584   3
   1   1 -17 1573.85 222.802   3
  -1  -1 -16 862.083 198.861   3
   1   1 -16 756.678 176.389   3
   1   1 -15 1342.35 195.879   3
  -1  -1 -15 1123.75 494.767   2
  -1  -1 -14 358.530 344.783   2
   1   1 -14 662.351 155.426   3
  -1  -1 -14 511.656 154.761   3
  -1  -1 -13 3595.24 663.059   2
  -1  -1 -12 656.175 375.003   2
  -1  -1 -11 1341.72 433.753   2
  -1  -1 -10 189.529 286.498   2
  -1  -1  -9 72710.6 2109.45   2
   1   1  -8 8.00289 257.277   2
  -1  -1  -8 46.5235 250.093   2
   1   1  -7 112.659 320.868   2
  -1  -1  -7 97.7606 223.572   2
  -1  -1  -6 26493.4 1048.51   2
   1   1  -6 27135.0 1030.79   2
  -1  -1  -5 4364.25 660.642   2
  -1  -1  -4 261.123 217.441   2
  -1  -1  -3 37611.1 991.644   2
  -1   1   0 86.4978 97.6141   1
  -1   1  -1 186.664 98.6719   1
  -1   1  -1 240.118 125.038   2
  -1   1  -2 18.9421 132.179   2
  -1   1  -2 55.9485 100.329   1
   1  -1  -3 38209.0 690.317   2
  -1   1  -3 38912.0 1002.56   2
   1  -1  -4 264.097 151.400   2
   1   1   4 166.456 91.0576   1
  -1   1  -4 318.967 250.528   2
   1  -1  -5 1188.43 232.840   2
  -1   1  -5 1186.39 308.743   2
  -1   1  -6 27227.0 1125.29   2
   1  -1  -6 27966.1 935.074   2
  -1   1  -7 65.6082 259.628   2
   1  -1  -7 207.439 227.405   2
  -1   1  -8 39.5792 253.928   2
   1  -1  -8-15.8503 236.217   2
  -1   1  -9 72313.6 2146.72   2
   1  -1  -9 77254.5 2001.44   2
  -1   1 -10 44.5261 287.556   2
   1  -1 -10 218.610 286.386   2
   1  -1 -11 1154.02 374.065   2
  -1   1 -11 1144.02 418.086   2
   1  -1 -12 566.522 365.199   2
  -1   1 -12 416.375 336.027   2
  -1   1 -13 3561.90 706.186   2
  -1   1 -14 615.455 151.319   3
   1  -1 -14 564.334 152.956   3
   1  -1 -15 1439.28 206.623   3
  -1   1 -15 1664.14 233.657   3
  -1   1 -16 754.113 179.423   3
   1  -1 -16 813.358 174.833   3
   1  -1 -17 1539.11 222.753   3
  -1   1 -17 1495.99 226.226   3
  -1   1 -18 9121.64 440.045   3
   1  -1 -18 9105.17 447.113   3
   1  -1 -19 259.139 168.088   3
  -1   1 -19 378.265 169.535   3
  -1   1 -20 213.397 160.223   3
   1  -1 -20 43.2623 146.549   3
  -1   1 -21 14700.8 528.496   3
   1  -1 -21 14298.2 514.560   3
   1  -1 -22 374.559 132.569   3
  -1   1 -22 455.260 153.080   3
  -1   1 -23 81.2016 99.2616   3
   1  -1 -23 89.0885 101.966   3
   1  -1 -24 306.554 101.175   3
  -1   1 -24 475.050 109.044   3
  -1   1 -25 105.045 75.9336   3
   1   2 -24 1451.53 146.864   3
  -1  -2 -23 665.660 128.726   3
   1   2 -23 686.678 141.677   3
  -1  -2 -22 249.396 115.079   3
   1   2 -22 253.181 134.409   3
   1   2 -21 632.780 160.340   3
  -1  -2 -21 699.695 173.759   3
  -1  -2 -20 715.590 192.244   3
   1   2 -20 984.365 196.743   3
   1   2 -19 113.522 156.785   3
  -1  -2 -19 63.4874 148.528   3
  -1  -2 -18 8118.35 408.571   3
   1   2 -18 7494.15 415.501   3
  -1  -2 -17 671.992 170.476   3
   1   2 -17 770.213 178.480   3
  -1  -2 -16 633.007 167.508   3
   1   2 -16 556.807 165.621   3
   1   2 -15 2678.29 243.857   3
  -1  -2 -15 2660.56 239.192   3
  -1  -2 -15 2567.88 632.424   2
   1   2 -14 525.039 151.665   3
  -1  -2 -14 384.072 356.558   2
  -1  -2 -14 422.477 152.690   3
  -1  -2 -13 52.7399 305.022   2
  -1  -2 -12 15197.1 1213.70   2
  -1   2  11 691.241 407.152   1
  -1  -2 -11 644.558 368.769   2
  -1  -2 -10 622.619 631.680   2
  -1   2  10 568.705 345.596   1
  -1  -2  -9 368.500 320.133   2
  -1  -2  -8 1417.27 381.017   2
  -1  -2  -7 133.428 249.435   2
  -1  -2  -6 3184.72 446.989   2
  -1  -2  -5 1172.67 324.276   2
  -1   2   3 152.894 238.233   1
  -1   2   2 829.465 220.481   1
  -1   2   1 2196.43 267.004   1
  -1   2   0 222284. 2211.72   1
  -1   2  -1 1939.73 254.742   1
   1   2   1 1842.12 218.643   1
   1   2   2 790.397 161.774   1
  -1   2  -2 973.456 229.864   1
  -1   2  -2 989.089 244.422   2
  -1   2  -3 154.796 180.915   1
  -1   2  -3 135.271 222.225   2
   1   2   3 107.099 126.910   1
   1   2   4 11906.7 472.796   1
  -1   2  -4 12834.7 736.594   2
   1   2   5 1010.81 176.912   1
  -1   2  -5 1138.69 328.310   2
   1  -2  -5 986.575 240.806   2
   1  -2  -6 3398.99 363.036   2
  -1   2  -6 3323.54 464.171   2
   1   2   6 2999.00 280.361   1
   1   2   7 21.6376 120.533   1
   1  -2  -7 48.8803 197.639   2
  -1   2  -7-16.1574 241.415   2
   1  -2  -8 1644.37 342.159   2
   1   2   8 1181.09 224.217   1
  -1   2  -8 1393.64 408.655   2
   1   2   9 183.379 152.822   1
  -1   2  -9 353.217 310.364   2
   1  -2  -9 275.574 275.134   2
  -1   2 -10 656.737 382.835   2
   1  -2 -10 414.997 269.610   2
   1  -2 -11 841.926 361.795   2
  -1   2 -11 694.747 390.182   2
   1  -2 -12 12813.2 1068.65   2
   1  -2 -13 29.2206 330.043   2
   1  -2 -14 319.029 136.170   3
  -1   2 -14 502.954 151.236   3
   1  -2 -15 2460.38 241.566   3
  -1   2 -15 2944.87 296.174   3
  -1   2 -16 630.671 168.558   3
   1  -2 -16 637.593 166.869   3
   1  -2 -17 777.348 181.780   3
  -1   2 -17 651.340 180.442   3
  -1   2 -18 7881.81 404.765   3
   1  -2 -18 7917.77 423.552   3
  -1   2 -19 119.961 156.544   3
   1  -2 -19 134.224 170.254   3
   1  -2 -20 943.582 175.004   3
  -1   2 -20 1044.83 195.346   3
  -1   2 -21 669.219 164.983   3
   1  -2 -21 628.459 146.521   3
   1  -2 -22 186.132 115.749   3
  -1   2 -22 320.636 142.991   3
   1  -2 -23 760.480 150.531   3
  -1   2 -23 762.916 137.971   3
  -1   2 -24 1455.09 149.654   3
  -1   2 -25 171.944 78.3026   3
   1   3 -24 2428.80 184.297   3
   1   3 -23 157.415 121.000   3
  -1  -3 -22 232.267 107.616   3
   1   3 -22 286.903 131.112   3
  -1  -3 -21 166.943 134.560   3
   1   3 -21 287.871 141.545   3
   1   3 -20 711.811 182.160   3
  -1  -3 -20 840.740 190.059   3
   1   3 -19 549.434 245.919   3
  -1  -3 -19-5.96374 143.846   3
  -1  -3 -18 9047.32 422.896   3
   1   3 -18 9376.80 460.075   3
   1   3 -17 1356.02 207.752   3
  -1  -3 -17 1330.55 210.819   3
  -1  -3 -16 821.031 185.156   3
   1   3 -16 884.147 190.840   3
  -1  -3 -15 420.058 138.349   3
   1   3 -15 412.049 148.694   3
  -1  -3 -15 370.865 369.318   2
  -1  -3 -14 1926.89 211.134   3
   1   3 -14 2258.49 227.415   3
  -1  -3 -14 2370.54 634.266   2
  -1  -3 -13 768.362 446.627   2
  -1  -3 -12 2455.70 558.365   2
  -1   3  11-8.34290 284.535   1
  -1  -3 -11 6.09380 315.150   2
  -1   3  10 418.737 318.692   1
  -1  -3 -10 560.148 345.292   2
  -1   3   9 3647.51 582.345   1
  -1  -3  -9 4013.16 591.984   2
  -1   3   8 21.8619 247.745   1
  -1  -3  -8 49.8836 273.683   2
  -1   3   7 852.290 311.014   1
  -1  -3  -7 663.559 342.581   2
  -1   3   6 39982.1 1471.29   1
  -1  -3  -6 38596.5 1418.73   2
  -1   3   5 469.404 247.549   1
  -1   3   4 16613.9 882.502   1
  -1   3   3 16655.3 823.254   1
  -1   3   2 846.152 268.891   1
  -1   3   1 881.461 274.770   1
   1   3   0 76.9971 199.795   1
  -1   3   0 83.0878 213.636   1
   1   3   1 861.123 240.467   1
  -1   3  -1 859.438 263.487   1
  -1   3  -2 807.313 261.323   1
   1   3   2 753.830 232.262   1
  -1   3  -3 15808.4 771.349   1
   1   3   3 15204.2 652.844   1
   1   3   4 16208.0 671.565   1
  -1   3  -4 17502.2 852.634   1
   1   3   5 456.459 174.711   1
   1  -3  -6 40149.4 1243.99   2
  -1   3  -6 38286.0 1456.08   2
   1   3   6 36099.8 1038.73   1
   1   3   7 664.307 193.371   1
  -1   3  -7 702.795 333.717   2
   1  -3  -7 785.054 283.421   2
   1  -3  -8-2.15065 237.316   2
  -1   3  -8 105.351 279.016   2
   1   3   8 115.068 143.096   1
   1  -3  -9 3611.17 488.064   2
   1  -3 -10 1268.50 448.399   2
   1  -3 -11 23.1953 264.790   2
   1  -3 -12 2578.21 522.274   2
   1  -3 -14 1752.19 201.499   3
  -1   3 -14 2173.94 223.104   3
  -1   3 -15 506.760 155.519   3
   1  -3 -15 283.983 132.174   3
  -1   3 -16 886.522 184.257   3
   1  -3 -16 877.932 191.051   3
  -1   3 -17 1474.94 218.704   3
   1  -3 -17 1366.67 213.441   3
   1  -3 -18 9544.96 445.295   3
  -1   3 -18 9398.80 437.076   3
  -1   3 -19 84.1582 134.347   3
   1  -3 -19 15.5514 128.794   3
   1  -3 -20 651.576 140.853   3
  -1   3 -20 864.058 189.527   3
  -1   3 -21 74.7464 129.749   3
   1  -3 -21 112.054 103.107   3
   1  -3 -22 170.991 102.856   3
  -1   3 -22 244.376 133.112   3
  -1   3 -23 511.416 121.983   3
  -1   3 -24 2532.68 180.265   3
  -1   3 -25-2.14086 67.1547   3
   1   4 -24 510.851 109.415   3
   1   4 -23 324.363 111.460   3
   1   4 -22 195.115 122.473   3
  -1  -4 -21 485.959 115.627   3
   1   4 -21 539.793 153.833   3
   1   4 -20 417.316 163.356   3
  -1  -4 -20 484.471 165.300   3
  -1  -4 -19 833.369 178.941   3
   1   4 -19 829.344 192.920   3
   1   4 -18 5068.76 350.293   3
  -1  -4 -18 5058.36 327.203   3
   1   4 -17 1138.04 204.390   3
  -1  -4 -17 241.020 161.476   3
  -1  -4 -16 483.607 154.262   3
   1   4 -16 518.901 161.024   3
  -1  -4 -15 12739.6 1289.64   2
  -1  -4 -15 13128.4 479.091   3
   1   4 -15 15561.9 527.506   3
   1   4 -14 168.442 124.017   3
  -1  -4 -14-1.75403 330.138   2
  -1  -4 -13 92.1357 330.184   2
   1   4 -13 47.5009 115.323   3
  -1  -4 -12 20800.7 1440.87   2
  -1  -4 -11 482.151 338.225   2
  -1   4  11 292.576 289.508   1
  -1   4  10 3822.96 645.958   1
  -1  -4 -10 4411.92 665.937   2
  -1   4   9 8297.96 853.163   1
  -1  -4  -9 8705.70 851.842   2
  -1   4   8 1673.58 448.098   1
  -1  -4  -8 1523.11 479.276   2
  -1   4   7 2830.42 503.812   1
  -1  -4  -7 3049.14 527.860   2
  -1   4   6 29947.9 1349.89   1
  -1   4   5 3505.41 477.220   1
  -1   4   4 2741.08 449.265   1
  -1   4   3 25181.7 1101.76   1
  -1   4   2 8935.16 646.012   1
   1   4  -1 118.102 240.552   1
  -1   4   1 286.320 268.899   1
   1   4   0 175659. 2598.94   1
  -1   4   0 173480. 2628.19   1
   1   4   1 267.852 252.874   1
  -1   4  -1 159.395 258.856   1
  -1   4  -2 9116.41 672.432   1
   1   4   2 8780.03 615.736   1
  -1   4  -3 25712.4 1087.60   1
   1   4   3 26020.3 1001.18   1
   1   4   4 3548.71 413.543   1
  -1   4  -4 2990.58 433.459   1
   1   4   5 3268.90 387.821   1
   1   4   6 28614.5 1049.46   1
   1   4   7 2690.10 366.333   1
   1  -4  -7 3026.45 448.092   2
   1  -4  -8 2132.05 438.284   2
   1   4   8 20241.8 901.087   1
   1  -4  -9 7280.94 724.005   2
   1  -4 -10 4099.46 556.601   2
   1  -4 -11 404.243 303.757   2
   1  -4 -12 18776.2 1249.46   2
  -1   4 -13-44.5273 110.205   3
  -1   4 -14 227.022 125.321   3
  -1   4 -15 14962.1 523.315   3
   1  -4 -15 12523.8 469.610   3
   1  -4 -16 436.039 148.807   3
  -1   4 -16 492.785 160.154   3
   1  -4 -17 100.612 138.275   3
  -1   4 -17 169.452 142.504   3
  -1   4 -17-202.862 394.169   6
   1  -4 -18 4791.23 316.400   3
  -1   4 -18 4693.78 325.846   3
   1  -4 -19 769.122 149.052   3
  -1   4 -19 898.584 188.028   3
  -1   4 -20 495.222 177.501   3
   1  -4 -20 314.664 108.842   3
  -1   4 -21 697.603 163.168   3
   1  -4 -21 545.483 123.771   3
  -1   4 -22 266.690 128.018   3
  -1   4 -23 427.922 114.182   3
  -1   4 -24 669.375 119.552   3
  -1   4 -25-16.1030 63.5845   3
   1   5 -24-25.4655 82.6343   3
   1   5 -23 120.333 96.1750   3
   1   5 -22 117.690 111.548   3
   1   5 -21 3810.40 270.552   3
   1   5 -20 76.1386 128.066   3
   1   5 -19 0.08286 142.968   3
   1   5 -18 1391.19 214.299   3
   1   5 -17 1261.59 206.432   3
   1   5 -16 98.0766 144.103   3
   1   5 -16 238.232 359.656   6
   1   5 -15 7100.83 399.961   3
   1   5 -15-17.5902 327.755   6
   1   5 -14 592.037 174.065   3
  -1  -5 -14 327.854 406.880   2
   1   5 -13 206.148 141.344   3
  -1  -5 -13 119.692 309.439   2
  -1  -5 -12 1275.36 487.944   2
  -1  -5 -11 2130.41 535.930   2
  -1   5  11 2040.80 548.429   1
  -1  -5 -10 1129.72 424.065   2
  -1   5  10 1126.09 433.442   1
  -1  -5  -9 69605.4 2414.85   2
  -1   5   9 67068.0 2399.37   1
  -1  -5  -8 1963.12 507.096   2
  -1   5   8 2100.51 504.248   1
  -1   5   7 2937.09 518.076   1
  -1   5   6 259.275 264.370   1
  -1   5   5 1008.39 353.196   1
  -1   5   4 11655.9 843.304   1
  -1   5   3 19482.1 1050.92   1
  -1   5   2 24828.3 1166.68   1
   1   5  -1 7279.94 678.224   1
  -1   5   1 7174.59 655.068   1
  -1   5   0 387.826 277.786   1
   1   5   0 405.190 290.571   1
   1   5   1 6918.84 642.828   1
  -1   5  -1 7507.76 661.177   1
   1   5   2 23289.3 1084.33   1
  -1   5  -2 24068.5 1153.22   1
   1   5   3 19454.4 967.498   1
  -1   5  -3 19649.3 1034.27   1
   1   5   4 11809.0 769.122   1
  -1   5  -4 12175.7 867.589   1
   1   5   5 958.317 294.316   1
   1   5   6 66.4820 211.823   1
   1   5   7 2860.04 426.260   1
   1  -5  -8 2105.00 452.162   2
   1   5   8 1703.07 350.586   1
   1  -5  -9 67352.8 2140.87   2
   1  -5 -10 1160.79 373.364   2
   1  -5 -11 1724.03 451.997   2
  -1   5 -13 357.702 171.525   3
  -1   5 -14 430.164 146.457   3
  -1   5 -15 6920.30 359.695   3
  -1   5 -15 23.2476 412.132   6
  -1   5 -16 1.46029 150.071   3
  -1   5 -16 1766.06 622.291   6
  -1   5 -17 1237.10 202.892   3
  -1   5 -17-44.4810 344.096   6
  -1   5 -18 1334.63 205.678   3
  -1   5 -18-175.157 359.118   6
  -1   5 -19 58.8633 127.223   3
  -1   5 -20 285.663 172.742   3
  -1   5 -21 4294.23 288.183   3
  -1   5 -22 101.099 106.600   3
  -1   5 -23 81.8739 92.7093   3
  -1   5 -24 27.1058 80.2651   3
  -1   5 -25 64.3897 64.8090   3
   1   6 -24 473.562 99.9264   3
   1   6 -23 790.229 125.830   3
   1   6 -22 127.769 109.083   3
   1   6 -21 283.124 126.992   3
   1   6 -20-17.6663 125.660   3
   1   6 -19 245.326 152.841   3
   1   6 -18 216.911 152.302   3
   1   6 -18 189.386 345.675   6
   1   6 -17 395.736 162.426   3
   1   6 -16-204.699 398.584   6
   1   6 -16 543.419 168.711   3
   1   6 -15 18541.7 581.238   3
   1   6 -15 19.0211 359.068   6
  -1  -6 -14 34.7692 335.743   2
   1   6 -14-11.5215 345.343   6
   1   6 -14 256.436 127.847   3
  -1  -6 -13 369.549 367.197   2
   1   6 -13 41.2220 357.481   6
   1   6 -13 231.743 121.069   3
  -1  -6 -12 488.054 388.648   2
  -1  -6 -11 558.221 399.226   2
  -1   6  10 1354.80 472.523   1
  -1  -6 -10 1276.56 503.355   2
  -1  -6  -9 4696.60 746.822   2
  -1   6   9 4083.55 656.290   1
  -1   6   8 408.131 341.672   1
  -1   6   7 1619.34 473.026   1
  -1   6   6 2115.19 488.314   1
  -1   6   5 1626.17 423.639   1
  -1   6   4 11742.4 914.984   1
  -1   6   3 177846. 3284.54   1
  -1   6   2 1815.03 414.780   1
   1   6  -1 224.006 293.227   1
  -1   6   1 136.665 266.858   1
   1   6   0 4094.49 565.019   1
  -1   6   0 4030.01 540.963   1
  -1   6  -1 317.374 293.836   1
   1   6   1 230.385 256.498   1
  -1   6  -2 1920.31 441.579   1
   1   6   2 1844.46 422.746   1
  -1   6  -3 178325. 3334.93   1
   1   6   3 177171. 3138.17   1
   1   6   4 11190.0 848.864   1
  -1   6  -4 11689.1 942.554   1
   1   6   5 1609.66 373.366   1
   1   6   6 2254.00 432.524   1
   1   6   7 1628.93 420.176   1
   1   6   8 454.404 291.919   1
   1  -6  -8 425.810 365.713   2
   1  -6  -9 3932.25 625.298   2
   1  -6 -10 1205.30 419.730   2
   1  -6 -11 484.042 366.890   2
  -1   6 -13 256.913 123.085   3
  -1   6 -14 241.277 127.942   3
  -1   6 -15-22.6836 378.786   6
  -1   6 -15 18433.4 558.892   3
  -1   6 -16 644.797 168.262   3
  -1   6 -16 1457.85 546.515   6
  -1   6 -17 90.6235 378.450   6
  -1   6 -17 405.095 164.253   3
  -1   6 -18-107.900 382.793   6
  -1   6 -18 234.631 141.955   3
  -1   6 -19 171.673 140.681   3
  -1   6 -19-27.3455 335.258   6
  -1   6 -20 157.380 131.975   3
  -1   6 -21 351.039 138.112   3
  -1   6 -22 67.8155 93.7892   3
  -1   6 -23 735.592 123.115   3
  -1   6 -24 516.918 92.2373   3
   1   7 -23 81.8739 90.1003   3
   1   7 -22 57.6949 98.5892   3
   1   7 -21 505.004 133.219   3
   1   7 -20 250.747 128.361   3
   1   7 -19 62.2601 335.362   6
   1   7 -19 96.3985 124.714   3
   1   7 -18 2273.04 237.473   3
   1   7 -18 208.140 394.466   6
   1   7 -17 6.27070 359.118   6
   1   7 -17 204.849 152.579   3
   1   7 -16 93.2728 388.739   6
   1   7 -16 404.366 160.449   3
   1   7 -15-41.7666 368.468   6
   1   7 -15 3561.17 283.869   3
   1   7 -14-17.7480 408.115   6
   1   7 -14 2997.07 251.846   3
  -1  -7 -13 95.9473 355.739   2
   1   7 -13 46.0544 141.458   3
   1   7 -12 383.269 128.269   3
   1   7 -12-24.4317 368.075   6
  -1  -7 -12 675.828 443.595   2
  -1  -7 -11 184.525 358.589   2
  -1  -7 -10 787.148 436.669   2
  -1   7  10 896.217 447.109   1
  -1  -7  -9 12646.5 1215.09   2
  -1   7   9 12405.6 1129.02   1
  -1   7   8-58.3616 314.416   1
  -1   7   7 171.463 309.923   1
  -1   7   6 103304. 2841.26   1
  -1   7   5 1580.79 473.355   1
  -1   7   4 375.700 350.638   1
  -1   7   3 2530.25 527.714   1
  -1   7   2 630.555 327.526   1
   1   7  -1 3750.48 581.794   1
  -1   7   1 3742.82 591.437   1
   1   7   0 250.058 301.136   1
  -1   7   0 293.763 310.526   1
  -1   7  -1 3848.88 592.967   1
   1   7   1 3548.39 563.434   1
  -1   7  -2 939.009 369.101   1
   1   7   2 974.035 356.903   1
   1   7   3 2783.49 529.299   1
  -1   7  -3 2594.03 525.900   1
  -1   7  -4 286.910 306.547   1
   1   7   4 224.173 314.280   1
   1   7   5 1657.15 427.150   1
   1   7   6 104929. 2669.66   1
   1   7   7 278.702 331.082   1
   1   7   8-35.2172 263.433   1
   1  -7  -9 12165.1 1085.95   2
   1  -7 -10 725.922 448.988   2
  -1   7 -12 359.413 121.472   3
  -1   7 -13 54.3524 107.295   3
  -1   7 -14 2976.76 244.984   3
  -1   7 -14-21.7044 386.290   6
  -1   7 -15-324.920 381.874   6
  -1   7 -15 3822.85 283.085   3
  -1   7 -16 179.301 391.675   6
  -1   7 -16 355.810 147.747   3
  -1   7 -17 276.060 144.764   3
  -1   7 -18 2154.22 225.001   3
  -1   7 -18-194.696 431.863   6
  -1   7 -19 114.955 121.956   3
  -1   7 -19-23.4519 356.882   6
  -1   7 -20 370.392 140.866   3
  -1   7 -20-7.98001 292.248   6
  -1   7 -21 367.589 123.403   3
  -1   7 -22 43.8574 90.7314   3
  -1   7 -23 59.4759 80.3742   3
  -1   7 -24 1555.99 122.083   3
   1   8 -23 223.933 99.9360   3
   1   8 -22 168.858 101.340   3
   1   8 -21 82.3136 96.2084   3
   1   8 -20 640.314 145.268   3
   1   8 -20-46.1889 283.782   6
   1   8 -19-9.32756 329.760   6
   1   8 -19 195.060 120.962   3
   1   8 -18 137.929 383.862   6
   1   8 -18 2860.72 250.524   3
   1   8 -17 226.590 422.887   6
   1   8 -17 810.206 174.235   3
   1   8 -16-59.5620 397.828   6
   1   8 -16 2520.86 254.817   3
   1   8 -15 17740.4 561.601   3
   1   8 -15-1.21177 395.008   6
   1   8 -14 3021.50 255.635   3
   1   8 -14-209.119 376.385   6
  -1  -8 -13 187.046 337.992   2
   1   8 -13-115.243 389.406   6
   1   8 -13 182.083 119.484   3
   1   8 -12 18618.3 534.190   3
  -1  -8 -12 22328.9 1768.56   2
  -1  -8 -11 1837.01 610.556   2
   1   8 -11-84.5681 365.731   6
  -1   8  10 652.203 430.601   1
  -1  -8 -10 742.314 498.281   2
  -1   8   9-139.392 345.837   1
  -1  -8  -9 63.8130 365.357   2
  -1   8   8 627.413 385.430   1
  -1   8   7 837.574 406.903   1
  -1   8   6 5400.58 766.700   1
  -1   8   5 3387.89 622.861   1
  -1   8   4 1271.54 439.999   1
  -1   8   3 8006.74 848.636   1
  -1   8   2 4725.94 679.507   1
   1   8  -1 1555.13 463.790   1
  -1   8   1 1715.71 472.445   1
   1   8   0 147099. 3436.43   1
  -1   8   0 146901. 3411.84   1
  -1   8  -1 1818.25 480.108   1
   1   8   1 1635.37 458.319   1
  -1   8  -2 4418.84 662.261   1
   1   8   2 4630.73 686.590   1
   1   8   3 8226.30 838.489   1
  -1   8  -3 8525.18 920.427   1
   1   8   4 1063.54 414.098   1
  -1   8  -4 1046.22 439.330   1
   1   8   5 3619.30 627.185   1
   1   8   6 5789.04 740.072   1
   1   8   7 698.121 340.887   1
   1   8   8 703.071 362.727   1
   1  -8  -9 30.1831 338.059   2
   1  -8 -10 796.641 459.001   2
  -1   8 -12 18338.4 516.174   3
  -1   8 -13 269.294 456.929   6
  -1   8 -13 225.069 150.698   3
  -1   8 -14 2847.10 240.839   3
  -1   8 -14 7.40583 386.317   6
  -1   8 -15-94.0985 397.508   6
  -1   8 -15 17248.7 539.130   3
  -1   8 -16 696.256 167.125   3
  -1   8 -16 10041.1 703.777   6
  -1   8 -17 558.096 156.673   3
  -1   8 -17 336.900 400.915   6
  -1   8 -18-48.8741 385.191   6
  -1   8 -18 3021.78 259.433   3
  -1   8 -19 180.193 127.968   3
  -1   8 -20-12.7122 286.922   6
  -1   8 -20 557.575 142.847   3
  -1   8 -21-107.501 258.258   6
  -1   8 -21 66.4056 90.9491   3
  -1   8 -22 136.843 86.8865   3
  -1   8 -23 185.467 83.8397   3
  -1   8 -24 613.570 80.7822   3
   1   9 -22-54.4207 81.3539   3
   1   9 -21 1146.41 139.305   3
   1   9 -20-121.662 283.305   6
   1   9 -20 607.132 124.971   3
   1   9 -19 246.905 112.597   3
   1   9 -19-10.8523 319.640   6
   1   9 -18 700.916 506.801   6
   1   9 -18 10541.5 406.335   3
   1   9 -17 143.556 374.880   6
   1   9 -17 19.9552 111.906   3
   1   9 -16 1042.08 186.120   3
   1   9 -15 56.9274 392.451   6
   1   9 -15 2052.58 225.129   3
   1   9 -14 8.23399 377.521   6
   1   9 -14 2178.07 230.845   3
   1   9 -13 1402.66 197.608   3
   1   9 -13-63.1327 388.087   6
   1   9 -12 5034.10 291.927   3
  -1  -9 -12 5605.46 986.386   2
   1   9 -11 115.850 101.803   3
  -1  -9 -11 342.330 464.784   2
   1   9 -10-30.4747 376.300   6
  -1   9  10 299.268 377.896   1
  -1  -9 -10 107.360 414.345   2
  -1   9   9 6409.84 905.306   1
  -1   9   8 908.878 475.315   1
  -1   9   7 1190.41 477.056   1
  -1   9   6 9123.16 971.509   1
  -1   9   5 7738.85 903.229   1
  -1   9   4 3724.08 668.933   1
  -1   9   3 2670.75 583.877   1
  -1   9   2 8000.82 900.437   1
  -1   9   1 4426.03 714.158   1
   1   9  -1 4681.07 776.397   1
   1   9   0 1913.13 547.403   1
  -1   9   0 7765.02 975.737   1
  -1   9  -1 4881.36 759.891   1
   1   9   1 5174.40 747.973   1
   1   9   2 8029.96 929.659   1
  -1   9  -2 7759.00 908.633   1
  -1   9  -3 2647.88 597.695   1
   1   9   3 2440.67 534.267   1
  -1   9  -4 3683.86 686.733   1
   1   9   4 3950.07 665.562   1
   1   9   5 8003.84 900.702   1
   1   9   6 9933.25 980.625   1
   1   9   7 1324.93 431.070   1
   1   9   8 968.767 420.827   1
  -1   9 -11 144.384 95.1747   3
  -1   9 -12-4.24877 370.195   6
  -1   9 -12 4839.27 278.068   3
  -1   9 -13 1348.87 186.234   3
  -1   9 -13 36.6443 385.816   6
  -1   9 -14-81.2851 414.212   6
  -1   9 -14 1893.65 206.482   3
  -1   9 -15-46.3333 401.215   6
  -1   9 -15 2000.93 209.197   3
  -1   9 -16 1074.11 173.716   3
  -1   9 -17 63.7654 127.009   3
  -1   9 -17-5.59853 366.882   6
  -1   9 -18 10393.1 409.545   3
  -1   9 -18-186.932 390.304   6
  -1   9 -19 329.361 128.687   3
  -1   9 -19-37.5858 314.198   6
  -1   9 -20 142.788 306.425   6
  -1   9 -20 664.738 126.127   3
  -1   9 -21 1671.65 159.869   3
  -1   9 -21-166.514 261.101   6
  -1   9 -22-32.8345 77.6839   3
  -1   9 -23 27.6782 61.6836   3
   1  10 -21 252.215 100.258   3
   1  10 -21-22.0838 211.944   6
   1  10 -20 9.22737 271.677   6
   1  10 -20 611.099 129.729   3
   1  10 -19 462.813 115.220   3
   1  10 -19-49.1173 306.282   6
   1  10 -18 1651.25 802.306   6
   1  10 -18 4933.85 279.772   3
   1  10 -17 205.925 103.070   3
   1  10 -17 31.7073 355.251   6
   1  10 -16 160.861 388.904   6
   1  10 -16 289.712 118.132   3
   1  10 -15 23538.0 619.414   3
   1  10 -14 897.014 165.672   3
   1  10 -14 162.970 396.423   6
   1  10 -13 115.388 120.399   3
   1  10 -13 6.54496 437.701   6
  -1 -10 -12 6168.34 1078.95   2
   1  10 -12 5204.06 302.304   3
   1  10 -12-0.16056 365.190   6
  -1 -10 -12-124.814 130.048   7
   1  10 -11 41.0968 98.7072   3
  -1 -10 -11 201.872 416.257   2
   1  10 -11-21.7470 370.785   6
  -1 -10 -11-6.28056 124.691   7
  -1 -10 -10-59.4048 129.104   7
   1  10 -10-211.826 378.658   6
  -1 -10 -10 589.236 514.675   2
  -1  10   9 2310.65 648.864   1
  -1  10   8 116.021 345.072   1
  -1  10   7 398.484 382.758   1
  -1  10   6 1501.76 515.395   1
  -1  10   5 609.982 419.002   1
  -1  10   4-187.837 342.389   1
  -1  10   3 14778.6 1266.33   1
  -1  10   2-111.700 373.450   1
  -1  10   1 20.9786 333.004   1
   1  10   0 13765.8 1247.75   1
  -1  10   0 13611.8 1216.75   1
  -1  10  -1 43.9596 333.230   1
   1  10   1 91.1260 313.138   1
   1  10   2 11.5580 322.231   1
  -1  10  -2-90.0990 336.219   1
   1  10   3 14886.4 1254.47   1
  -1  10  -3 14392.6 1295.19   1
  -1  10  -4 158.105 335.417   1
   1  10   4 50.4609 307.826   1
   1  10   5 339.974 344.511   1
   1  10   6 1203.22 487.703   1
   1  10   7 457.114 357.072   1
  -1  10  -9 440.912 360.484   6
  -1  10 -10 128.900 470.486   6
   1 -10 -10 2.64948 138.380   7
  -1  10 -11 4.73633 359.291   6
   1 -10 -11 18.3429 124.610   7
  -1  10 -12 5082.32 283.253   3
  -1  10 -12 3226.90 528.416   6
  -1  10 -13 227.951 118.321   3
  -1  10 -13-554.416 394.881   6
  -1  10 -14-12.2446 380.856   6
  -1  10 -14 841.277 157.984   3
  -1  10 -15 23169.0 606.592   3
  -1  10 -16-152.068 399.471   6
  -1  10 -16 282.048 135.375   3
  -1  10 -17 55.8021 383.711   6
  -1  10 -17 202.057 124.007   3
  -1  10 -18-83.2669 343.834   6
  -1  10 -18 4990.34 286.279   3
  -1  10 -19 675.747 121.045   3
  -1  10 -19 41.4754 303.022   6
  -1  10 -20 193.978 312.198   6
  -1  10 -20 566.041 114.663   3
  -1  10 -21 532.945 98.6470   3
  -1  10 -21 79.2985 237.997   6
  -1  10 -22 73.0893 68.3124   3
   1  11 -21-35.8160 198.377   6
   1  11 -20 72.6427 84.0694   3
   1  11 -20-36.9407 241.869   6
   1  11 -19 207.642 99.3928   3
   1  11 -19-10.3064 293.250   6
   1  11 -18 44.6504 325.266   6
   1  11 -18 26.9429 85.7679   3
   1  11 -17 1666.86 172.882   3
   1  11 -17 19.1783 364.752   6
   1  11 -16 71.6154 88.0360   3
   1  11 -16 72.9639 368.921   6
   1  11 -15 837.947 148.725   3
   1  11 -15 1822.57 472.406   6
   1  11 -14 183.397 101.214   3
   1  11 -13 68.9907 413.023   6
   1  11 -13 1663.81 176.712   3
  -1 -11 -12-11.6289 124.251   7
   1  11 -12 1917.53 504.809   6
  -1 -11 -11-34.9028 141.946   7
   1  11 -11 84.0594 360.631   6
  -1 -11 -10 583.469 580.396   2
  -1 -11 -10-109.142 151.812   7
   1  11 -10-60.6188 355.789   6
   1  11  -9 44.5848 364.867   6
  -1 -11  -9-99.1164 154.137   7
  -1  11   8-7.09752 335.821   1
   1  11  -8 0.19233 330.100   6
  -1 -11  -8-16.6137 137.042   7
  -1 -11  -7-27.5913 150.508   7
  -1  11   7 19.3717 334.090   1
  -1  11   6 306.942 351.380   1
  -1  11   5-109.772 343.174   1
  -1  11   4 265.445 355.116   1
  -1  11   3 27733.9 1822.01   1
  -1  11   2 17273.4 1454.66   1
  -1  11   1 606.193 414.681   1
  -1  11   0 15.2878 311.310   1
  -1  11  -1 473.149 413.120   1
   1  11   1 297.752 365.928   1
   1  11   2 17561.0 1456.69   1
  -1  11  -2 16901.2 1438.48   1
  -1  11  -3 27038.8 1819.08   1
   1  11   3 26545.1 1788.86   1
   1  11   4 136.168 364.710   1
   1  11   5-7.48101 305.385   1
   1  11   6 496.842 422.180   1
   1  11   7-69.3994 352.418   1
   1 -11  -7-41.3441 158.131   7
  -1  11  -8-31.9908 330.966   6
   1 -11  -8-4.19423 163.202   7
  -1  11  -9 5143.53 526.847   6
   1 -11  -9 5.48958 147.707   7
  -1  11 -10-1.84341 382.674   6
   1 -11 -10 119.060 157.566   7
  -1  11 -11 47.9245 379.815   6
   1 -11 -11 65.1156 174.497   7
   1 -11 -12 43.3118 141.188   7
  -1  11 -12-21.6804 363.499   6
  -1  11 -13 1534.34 186.653   3
  -1  11 -13 123.266 398.426   6
  -1  11 -14 241.964 125.787   3
  -1  11 -15-60.9556 397.652   6
  -1  11 -15 1326.56 170.509   3
  -1  11 -16 98.5955 113.752   3
  -1  11 -16-35.7528 373.280   6
  -1  11 -17 120.363 343.498   6
  -1  11 -17 1646.04 188.607   3
  -1  11 -18 5664.71 571.910   6
  -1  11 -18 0.28267 82.8282   3
  -1  11 -19 310.206 101.021   3
  -1  11 -19 2.70554 285.236   6
  -1  11 -20 1615.56 427.830   6
  -1  11 -20 118.211 77.0555   3
  -1  11 -21 4262.11 187.354   3
  -1  11 -21 126.624 222.250   6
   1  12 -21-14.5289 174.989   6
   1  12 -20 32.3939 236.448   6
   1  12 -19 113.977 85.4925   3
   1  12 -19 61.2266 278.296   6
   1  12 -18 2135.16 171.216   3
   1  12 -18 394.445 349.332   6
   1  12 -17-91.9721 342.301   6
   1  12 -17 10.0698 81.2251   3
   1  12 -16 162.708 88.9775   3
   1  12 -16 37.3016 361.920   6
   1  12 -15 7487.80 317.438   3
   1  12 -15 177.106 384.595   6
   1  12 -14-2.44263 383.541   6
  -1 -12 -13 62.9750 145.239   7
  -1 -12 -12-65.1253 144.703   7
   1  12 -12 1402.78 505.877   6
  -1 -12 -11-131.326 154.318   7
   1  12 -11-21.4225 394.205   6
  -1 -12 -10 83.4095 161.617   7
   1  12 -10 82.7017 394.056   6
  -1 -12  -9-30.9193 159.481   7
   1  12  -9 37.1757 366.276   6
  -1 -12  -8-54.9566 161.591   7
   1  12  -8 0.45205 340.552   6
   1  12  -7-1.94509 343.168   6
  -1  12   7 319.554 417.514   1
  -1 -12  -7-17.4849 149.864   7
  -1 -12  -6-0.17731 200.211   7
   1  12  -6-97.9899 346.541   6
  -1  12   5 458.435 416.989   1
  -1 -12  -5 13.2164 156.537   7
  -1 -12  -4-9.85544 164.774   7
  -1  12   4 1226.03 526.286   1
  -1  12   3 44143.5 2422.24   1
  -1  12   2 1617.58 553.935   1
  -1  12   1 742.960 467.769   1
  -1  12   0 34588.9 2119.31   1
  -1  12  -1 393.319 437.203   1
   1  12   2 1423.18 534.660   1
  -1  12  -2 1384.12 520.033   1
   1  12   3 44183.0 2422.65   1
   1 -12  -4 14.6812 171.225   7
   1  12   4 1093.79 503.055   1
   1 -12  -5-9.06988 161.437   7
   1  12   5 762.712 462.034   1
   1 -12  -6 48.3329 165.857   7
   1  12   6 847.343 482.553   1
   1 -12  -7-97.5091 179.099   7
   1  12   7 629.966 462.033   1
  -1  12  -7 1.29376 356.262   6
  -1  12  -8-10.1033 357.271   6
   1 -12  -8 1158.08 255.265   7
   1 -12  -9-84.9639 166.617   7
  -1  12  -9 47.1728 372.514   6
   1 -12 -10 32.5647 160.367   7
  -1  12 -10 1.57390 403.461   6
   1 -12 -11 3819.39 361.673   7
  -1  12 -11 78.5233 373.517   6
  -1  12 -12-12.4912 370.115   6
   1 -12 -12-163.937 162.708   7
   1 -12 -13 19.9470 141.029   7
  -1  12 -13 48.4036 374.956   6
  -1  12 -14-138.932 359.216   6
  -1  12 -15 22.6049 361.394   6
  -1  12 -15 6936.50 307.270   3
  -1  12 -16-64.1376 366.512   6
  -1  12 -16 138.288 76.7330   3
  -1  12 -17 107.474 362.332   6
  -1  12 -17-2.95820 72.9226   3
  -1  12 -18 110.778 326.528   6
  -1  12 -18 2271.18 164.571   3
  -1  12 -19 102.036 64.3398   3
  -1  12 -19 115.902 281.000   6
  -1  12 -20 1275.00 308.905   6
  -1  12 -20 217.320 70.0810   3
  -1  12 -21 7.35825 187.791   6
   1  13 -20-21.3781 216.666   6
   1  13 -19 129.540 253.535   6
   1  13 -18 98.8308 306.057   6
   1  13 -17-40.2586 315.097   6
   1  13 -16-0.19461 330.271   6
   1  13 -15 349.868 386.532   6
   1  13 -14 284.135 393.320   6
   1  13 -13 23.6422 388.682   6
  -1 -13 -13 312.312 203.455   7
   1  13 -12 4119.55 659.762   6
  -1 -13 -12 25.1173 153.196   7
  -1 -13 -11-27.3605 157.788   7
   1  13 -11 259.048 413.112   6
  -1 -13 -10 19.8571 174.605   7
  -1 -13  -9-29.6668 169.725   7
  -1 -13  -8 52.6374 177.841   7
  -1  13   8 1194.29 529.898   1
  -1  13   7 167.670 638.796   1
  -1 -13  -7 17.8163 164.630   7
   1  13  -6 11.9601 330.226   6
  -1 -13  -6-49.0978 168.372   7
   1  13  -5 41.6549 318.678   6
  -1 -13  -5-18.9212 164.392   7
  -1 -13  -4-495.888 184.447   7
  -1  13   4 343.793 405.504   1
   1  13  -4 29.9050 306.947   6
   1 -13   3 188.753 172.918   7
  -1 -13  -3-7.64346 170.520   7
   1 -13   2-18.2749 175.113   7
  -1 -13  -2-5.34549 157.629   7
  -1  13   2 198.640 386.971   1
  -1  13   1 18.1505 338.441   1
   1 -13   1 23.9079 167.002   7
  -1 -13  -1 76.3982 168.215   7
   1 -13   0-48.4118 173.298   7
  -1 -13   0 129.082 176.361   7
  -1  13   0 103.936 350.800   1
  -1 -13   1 20.5892 171.825   7
  -1  13  -1-0.86151 409.497   1
   1 -13  -1-2.03071 165.707   7
   1 -13  -2 43.7639 180.544   7
  -1  13  -2 194.810 387.742   1
   1 -13  -3-73.2718 179.623   7
  -1 -13   3-0.18589 154.136   7
   1 -13  -4-55.7602 174.763   7
   1 -13  -5 35.1834 188.608   7
  -1  13  -5 1.10170 300.542   6
   1 -13  -6-44.2492 195.123   7
   1 -13  -7 6.82302 174.907   7
  -1  13  -7 212.722 375.221   6
  -1  13  -8 21.6029 357.667   6
   1 -13  -8 27.5717 187.588   7
   1 -13  -9-90.6365 189.752   7
   1 -13 -10 56.8488 181.619   7
  -1  13 -11-51.4940 361.832   6
   1 -13 -11 2706.80 316.534   7
   1 -13 -12-205.363 158.259   7
  -1  13 -12 69.4165 363.895   6
   1 -13 -13 13.4976 151.317   7
  -1  13 -13-292.811 392.479   6
  -1  13 -14-1.74149 357.140   6
  -1  13 -15 322.763 355.508   6
  -1  13 -16 22.6115 337.701   6
  -1  13 -17 559.668 369.545   6
  -1  13 -18-10.1150 289.978   6
  -1  13 -19 71.7340 261.639   6
  -1  13 -20 195.370 216.488   6
  -1  13 -21-406.284 181.473   6
   1  14 -20 390.149 200.000   6
   1  14 -19-41.1690 215.149   6
   1  14 -18 70.9345 256.012   6
   1  14 -17 43.7881 346.352   6
   1  14 -16 49.8033 320.753   6
   1  14 -15 73.5638 341.900   6
  -1 -14 -14-31.4917 127.252   7
   1  14 -14 61.4620 366.830   6
  -1 -14 -13 23.1866 145.716   7
   1  14 -13-131.818 369.004   6
  -1 -14 -12 13.9842 161.167   7
   1  14 -12 1184.03 452.806   6
  -1 -14 -11-23.4718 169.130   7
   1  14 -11 484.071 398.244   6
  -1 -14 -10-43.8578 173.261   7
   1  14 -10-50.3392 380.869   6
   1  14  -9 434.975 457.443   6
  -1 -14  -9-22.4539 173.557   7
   1  14  -8-29.1560 378.054   6
  -1 -14  -8 46.4695 187.572   7
  -1  14   7 69.4729 358.593   1
   1  14  -7-4.54985 364.457   6
  -1 -14  -7 24.9868 181.094   7
  -1 -14  -6 76.9167 199.736   7
   1  14  -6-97.0464 344.409   6
  -1 -14  -5 556.551 426.121   7
   1  14  -5 4.65333 346.580   6
  -1  14   5 560.002 445.052   1
   1  14  -4-140.573 323.495   6
  -1 -14  -4 364.848 236.953   7
   1 -14   4-64.2120 181.614   7
   1 -14   3 4226.06 443.184   7
  -1  14   3 4000.62 813.898   1
  -1  14   2 216.932 375.908   1
   1 -14   2-1.14779 169.961   7
  -1 -14  -2 66.9845 183.039   7
   1 -14   1 0.39554 173.358   7
  -1 -14  -1-15.9621 172.697   7
  -1 -14   0-100.452 209.424   7
   1 -14   0 14.6506 191.205   7
  -1 -14   1-6.66381 169.775   7
   1 -14  -1-21.3080 193.320   7
   1 -14  -2 5.02246 193.947   7
  -1 -14   2 522.157 224.626   7
   1 -14  -3-16.0979 190.746   7
  -1 -14   3-30.7016 159.056   7
  -1 -14   4-26.1108 159.907   7
   1 -14  -4 5.96788 186.517   7
   1 -14  -5 4.86703 190.111   7
  -1  14  -5-47.8781 309.947   6
  -1  14  -6 36.8993 331.964   6
   1 -14  -6 123.001 209.561   7
  -1  14  -7-102.354 358.301   6
   1 -14  -7 47.5200 189.403   7
  -1  14  -8-136.113 363.858   6
   1 -14  -8 11.6492 191.629   7
   1 -14  -9 149.112 213.364   7
  -1  14  -9 192.168 472.729   6
  -1  14 -10 125.637 366.041   6
   1 -14 -10 105.066 188.635   7
  -1  14 -11 206.862 389.120   6
   1 -14 -11 15.4549 187.730   7
  -1  14 -12 185.763 380.048   6
   1 -14 -12 591.852 221.600   7
  -1  14 -13 96.0008 371.129   6
   1 -14 -13-79.1064 156.178   7
  -1  14 -15 122.580 334.560   6
  -1  14 -16-7.68344 310.864   6
  -1  14 -17 385.979 297.958   6
  -1  14 -18-8.29454 253.263   6
  -1  14 -19 17.9948 217.881   6
  -1  14 -20-176.580 190.891   6
   1  15 -19 206.258 200.233   6
   1  15 -18-8.14895 222.900   6
   1  15 -17 59.6283 279.001   6
   1  15 -16 67.1931 288.267   6
   1  15 -15 52.9004 317.679   6
   1  15 -14 110.415 346.523   6
  -1 -15 -14-23.5801 123.390   7
  -1 -15 -13-11.0555 140.701   7
   1  15 -13 80.0781 347.889   6
   1  15 -12 701.695 441.624   6
  -1 -15 -12 33.5101 161.783   7
  -1 -15 -11 2.85589 167.891   7
   1  15 -11 1371.17 484.045   6
   1  15 -10-169.451 393.456   6
  -1 -15 -10 29.3940 188.783   7
   1  15  -9 5108.44 685.607   6
  -1 -15  -9-40.0296 188.455   7
   1  15  -8 123.802 369.493   6
  -1 -15  -8 9.14405 190.580   7
   1  15  -7 66.8898 367.495   6
  -1 -15  -7-127.714 200.105   7
  -1  15   7 37.7341 367.563   1
   1  15  -6-100.876 353.153   6
  -1 -15  -6-26.0752 206.398   7
  -1 -15  -5 13.1778 199.774   7
   1  15  -5-81.2079 362.663   6
  -1 -15  -4 14.0036 201.805   7
   1  15  -4-74.8209 326.094   6
  -1  15   4 607.312 483.953   1
   1 -15   4-1.34560 171.407   7
   1 -15   3 9.83547 187.834   7
  -1 -15  -3 781.929 260.439   7
  -1 -15  -2-14.0465 194.651   7
   1 -15   2 61.8606 203.653   7
   1 -15   1-17.6559 205.237   7
  -1 -15  -1 758.122 272.130   7
   1 -15   0-1.04790 197.699   7
  -1 -15   0 25.6203 208.605   7
   1 -15  -1 6.55033 203.839   7
  -1 -15   1 95.2722 208.951   7
  -1 -15   2 5.89251 185.023   7
   1 -15  -2-10.6361 195.704   7
   1 -15  -3 16.0383 223.853   7
  -1 -15   3 19.3736 187.693   7
  -1 -15   4-77.4779 164.560   7
   1 -15  -4 21.6201 204.930   7
   1 -15  -5-3.48436 200.721   7
  -1  15  -5-103.724 328.637   6
   1 -15  -6 4.92661 201.836   7
  -1  15  -6 26.1011 337.104   6
  -1  15  -7 242.781 399.031   6
   1 -15  -7 51.8353 205.786   7
  -1  15  -8 164.621 358.690   6
   1 -15  -8 29.8917 245.499   7
   1 -15  -9 2.79301 209.855   7
  -1  15  -9 121.879 390.713   6
  -1  15 -10-102.134 366.138   6
   1 -15 -10-39.7692 192.345   7
   1 -15 -11 102.229 197.520   7
  -1  15 -11-21.2076 347.478   6
   1 -15 -12 150.003 204.632   7
  -1  15 -13 140.362 335.202   6
   1 -15 -13-25.6847 145.570   7
   1 -15 -14-4.27808 128.986   7
  -1  15 -14-55.9560 316.871   6
  -1  15 -15-31.0265 302.865   6
  -1  15 -16-22.4024 276.748   6
  -1  15 -17-61.0010 254.916   6
  -1  15 -18-85.8652 230.996   6
  -1  15 -19 194.581 197.050   6
  -1  15 -20-36.5489 141.869   6
   1  16 -18 129.007 191.422   6
   1  16 -17 1457.06 272.711   6
   1  16 -16-12.9612 249.020   6
   1  16 -15 0.76865 275.422   6
   1  16 -14 536.175 380.552   6
  -1 -16 -14-18.8580 122.182   7
   1  16 -13 104.685 321.123   6
  -1 -16 -13-5.39192 137.148   7
   1  16 -12 10.6588 320.513   6
  -1 -16 -12-26.3416 147.568   7
   1  16 -11 732.275 397.459   6
  -1 -16 -11 58.9318 192.048   7
  -1 -16 -10-13.3937 174.508   7
   1  16 -10-146.483 363.989   6
   1  16  -9 519.742 443.806   6
  -1 -16  -9 2.68555 197.435   7
  -1 -16  -8 63.3774 199.837   7
   1  16  -8-58.5371 363.372   6
   1  16  -7 8.47749 342.613   6
  -1 -16  -7 32.6403 203.356   7
  -1 -16  -6 78.0708 221.521   7
   1  16  -6 150.442 357.025   6
   1  16  -5 19.5516 336.474   6
  -1 -16  -5-103.153 219.818   7
   1 -16   4 16.9288 195.007   7
   1  16  -4-38.4105 331.151   6
  -1 -16  -4 58.7469 220.454   7
   1 -16   3-15.9786 198.469   7
  -1 -16  -3 56.6281 215.014   7
   1 -16   2 10298.7 619.783   7
  -1 -16  -2-48.2632 204.936   7
  -1 -16  -1 462.305 293.502   7
   1 -16   1-51.3156 196.199   7
  -1 -16   0 45.6865 246.589   7
   1 -16   0-105.617 218.483   7
  -1 -16   1 13.2527 204.103   7
   1 -16  -1 33.5250 218.774   7
   1 -16  -2 11.8488 222.357   7
  -1 -16   2 145.923 191.596   7
   1 -16  -3-151.160 225.111   7
  -1 -16   3-2.14644 185.741   7
   1 -16  -4-2.98736 210.407   7
  -1 -16   4-42.2676 178.279   7
  -1  16  -5-252.633 357.748   6
   1 -16  -5 2.97784 212.920   7
   1 -16  -6-59.7946 223.786   7
  -1  16  -6-214.386 332.122   6
   1 -16  -7-99.2245 215.971   7
  -1  16  -7-14.9268 333.651   6
   1 -16  -8-59.3932 195.541   7
  -1  16  -8-24.9990 358.750   6
  -1  16  -9 176.015 419.255   6
   1 -16  -9 36.2921 253.200   7
  -1  16 -10-84.1899 337.847   6
   1 -16 -10-26.2430 190.557   7
  -1  16 -11 15.7416 346.991   6
   1 -16 -11 41.4923 179.148   7
  -1  16 -12 80.6606 321.103   6
   1 -16 -12 11.9115 153.198   7
   1 -16 -13 2.30532 133.952   7
  -1  16 -13 93.1066 308.798   6
  -1  16 -14 87.4704 306.317   6
   1 -16 -14-21.2362 114.960   7
  -1  16 -15-44.5184 276.309   6
  -1  16 -16 90.7405 250.381   6
  -1  16 -17 16.0362 217.905   6
  -1  16 -18 156.108 192.006   6
  -1  16 -19 108.521 162.645   6
   1  17 -17 1045.09 245.353   6
   1  17 -16-46.6271 210.324   6
   1  17 -15-15.4644 239.614   6
   1  17 -14 3668.74 431.047   6
   1  17 -13 46.3256 283.244   6
  -1 -17 -13-9.87526 131.663   7
   1  17 -12-2.62247 301.039   6
  -1 -17 -12-11.9131 152.140   7
  -1 -17 -11 14.6607 163.977   7
   1  17 -11 412.482 381.131   6
  -1 -17 -10-29.7173 190.225   7
   1  17 -10 200.343 315.598   6
   1  17  -9 228.852 345.446   6
  -1 -17  -9 17.1203 194.097   7
  -1 -17  -8-49.3615 193.693   7
   1  17  -8 328.281 355.828   6
   1  17  -7 4.78308 319.082   6
  -1 -17  -7 47.4269 199.844   7
  -1 -17  -6 164.068 224.479   7
   1  17  -6-21.1442 331.148   6
   1  17  -5-148.538 328.006   6
  -1 -17  -5-24.2282 220.562   7
   1 -17   4-18.3613 193.981   7
  -1 -17  -4 817.815 306.019   7
   1 -17   3-7.70872 198.361   7
  -1 -17  -3 67.4999 205.282   7
  -1 -17  -2 8.30557 199.452   7
   1 -17   2 2679.10 353.236   7
  -1 -17  -1 544.576 359.927   7
   1 -17   1-56.9039 213.327   7
  -1 -17   0-1.86988 197.066   7
   1 -17   0-57.1119 213.371   7
  -1 -17   1-25.9714 192.884   7
   1 -17  -1-9.18488 215.012   7
  -1 -17   2-81.3926 210.672   7
   1 -17  -2 1.63344 217.113   7
  -1 -17   3 28.2715 177.018   7
   1 -17  -3 10.0897 229.077   7
  -1 -17   4-42.7658 200.566   7
   1 -17  -4-6.39958 216.352   7
   1 -17  -5 26.3584 226.927   7
   1 -17  -6-111.651 225.218   7
  -1  17  -6-218.189 300.392   6
  -1  17  -7-32.3023 313.168   6
   1 -17  -7-2.60364 197.377   7
   1 -17  -8 65.2698 196.811   7
  -1  17  -8 50.3532 319.061   6
   1 -17  -9 11.5924 201.944   7
  -1  17  -9 130.608 314.363   6
  -1  17 -10-107.302 314.033   6
   1 -17 -10 8.55273 181.900   7
  -1  17 -11 20.1630 300.946   6
   1 -17 -11 79.4909 168.974   7
  -1  17 -12 12.6337 292.594   6
   1 -17 -12 22.7207 152.623   7
  -1  17 -13-149.672 277.810   6
   1 -17 -13-13.3922 125.300   7
  -1  17 -14-20.2132 264.159   6
  -1  17 -15 25.7275 241.801   6
  -1  17 -16 9.74067 210.657   6
  -1  17 -17 707.138 225.883   6
  -1  17 -18 61.6609 147.403   6
   1  18 -15 84.8723 207.004   6
   1  18 -15 1279.33 98.0501   4
   1  18 -14 519.025 260.670   6
  -1 -18 -13-15.9513 112.578   7
   1  18 -13 127.733 261.624   6
  -1 -18 -12-45.5694 133.100   7
   1  18 -12 592.596 328.803   6
  -1 -18 -11 32.9220 150.436   7
   1  18 -11 261.089 283.125   6
  -1 -18 -10-13.5848 152.508   7
   1  18 -10-222.192 300.668   6
   1  18  -9 137.185 305.796   6
  -1 -18  -9 42.0379 180.821   7
   1  18  -8-1.13209 316.944   6
  -1 -18  -8-21.0197 192.155   7
  -1 -18  -7 459.297 223.277   7
   1  18  -7 98.0058 301.194   6
  -1 -18  -6 726.040 320.220   7
   1  18  -6-125.437 286.138   6
  -1 -18  -5-147.126 219.356   7
   1 -18   4-15.1698 186.718   7
  -1 -18  -4 60.4026 208.293   7
  -1 -18  -3 135.450 218.918   7
   1 -18   3-55.1246 201.624   7
  -1 -18  -2-54.4370 218.467   7
   1 -18   2 2321.07 287.585   7
   1 -18   1 0.67115 218.944   7
  -1 -18  -1 621.367 324.064   7
   1 -18   0-21.1440 209.760   7
  -1 -18   0-38.3748 200.851   7
  -1 -18   1-83.4101 200.284   7
   1 -18  -1-6.66474 222.872   7
  -1 -18   2-2.26863 199.868   7
   1 -18  -2 13.7582 216.591   7
   1 -18  -3 19.0147 220.367   7
  -1 -18   3 21.7768 192.798   7
   1 -18  -4-13.9121 206.809   7
  -1 -18   4-52.2421 171.405   7
   1 -18  -5 72.3193 216.101   7
   1 -18  -6-17.0331 201.228   7
  -1  18  -7-185.434 304.107   6
   1 -18  -7-9.03375 200.803   7
   1 -18  -8-7.45565 197.260   7
  -1  18  -8 193.059 293.233   6
   1 -18  -9 11.4374 182.743   7
  -1  18  -9 285.119 283.809   6
  -1  18 -10 150.994 286.785   6
   1 -18 -10 34.0924 172.178   7
   1 -18 -11 19.8506 152.290   7
  -1  18 -11-10.3448 278.564   6
  -1  18 -12-18.8623 260.089   6
   1 -18 -12-1.28202 123.033   7
  -1  18 -13-74.8122 245.209   6
   1 -18 -13 11.0179 106.838   7
  -1  18 -14-85.0540 219.641   6
  -1  18 -15 74.0834 200.176   6
  -1  18 -16 468.366 188.464   6
  -1  18 -17 571.174 162.108   6
   1  19 -13 208.677 225.033   6
   1  19 -12-12.1697 224.521   6
  -1 -19 -12-12.7260 115.988   7
  -1 -19 -11 6.77621 134.620   7
   1  19 -11 219.268 237.048   6
  -1 -19 -10-48.7752 157.164   7
   1  19 -10-139.379 261.856   6
   1  19  -9 586.576 298.180   6
  -1 -19  -9 33.6286 153.421   7
  -1 -19  -8 7.77048 167.708   7
   1  19  -8 1624.65 360.995   6
   1  19  -7 32.5124 254.861   6
  -1 -19  -7 61.0386 193.172   7
  -1 -19  -6 8.03962 182.146   7
  -1 -19  -5 25.3728 189.509   7
   1 -19   4 124.264 164.077   7
  -1 -19  -4 210.693 242.868   7
   1 -19   3 14.0140 168.967   7
  -1 -19  -3 164.129 210.576   7
   1 -19   2-30.2157 186.499   7
  -1 -19  -2 170.423 233.064   7
   1 -19   1 0.62350 180.344   7
  -1 -19  -1 25.7219 198.974   7
   1 -19   0-5.86136 199.710   7
  -1 -19   0-1.25141 178.843   7
   1 -19  -1-116.861 211.744   7
  -1 -19   1-1.49053 174.939   7
   1 -19  -2 79.8200 209.123   7
  -1 -19   2 9.51648 178.303   7
  -1 -19   3-15.6822 179.534   7
   1 -19  -3-72.6940 213.191   7
   1 -19  -4 48.9360 205.881   7
   1 -19  -5 100.336 216.445   7
   1 -19  -6 3.84011 189.280   7
   1 -19  -7 157.225 206.532   7
  -1  19  -8 32.9514 244.197   6
   1 -19  -8-30.2442 189.350   7
  -1  19  -9-51.7873 241.415   6
   1 -19  -9-17.4460 170.402   7
   1 -19 -10-42.3791 152.227   7
  -1  19 -10 18.1668 237.003   6
  -1  19 -11 26.8564 224.139   6
   1 -19 -11 15.3840 138.086   7
  -1  19 -12 48.9184 217.729   6
   1 -19 -12-25.1570 110.412   7
  -1  19 -13 95.1642 203.418   6
  -1  19 -14 317.184 194.491   6
  -1  19 -15 24.6583 147.913   6
   1  20 -13-12.6428 47.8815   4
  -1 -20 -10-34.9125 126.215   7
  -1 -20  -9 9.61125 133.441   7
  -1 -20  -8 23.9271 152.072   7
  -1 -20  -7 86.1844 184.242   7
  -1 -20  -6 68.0928 170.162   7
  -1 -20  -5 62.6532 172.673   7
  -1 -20  -4 167.390 199.194   7
  -1 -20  -3-16.2719 173.835   7
   1 -20   3 1.04545 152.928   7
  -1 -20  -2 91.9005 254.567   7
   1 -20   2-5.97766 158.684   7
   1 -20   1-106.579 189.672   7
  -1 -20  -1-93.5362 181.719   7
  -1 -20   0-3.50915 167.967   7
   1 -20   0-57.3174 189.298   7
   1 -20  -1 40.9260 182.175   7
  -1 -20   1-63.2979 176.651   7
  -1 -20   2 17.3682 154.560   7
   1 -20  -2 43.6253 194.883   7
  -1 -20   3-27.8822 147.700   7
   1 -20  -3-55.9286 184.285   7
   1 -20  -4-35.3776 181.695   7
   1 -20  -5-3.16733 173.947   7
   1 -20  -6-39.2280 174.155   7
   1 -20  -7 22.8608 172.019   7
   1 -20  -8-24.2937 167.216   7
  -1  20  -9-182.186 186.090   6
   1 -20  -9-44.8399 147.997   7
  -1  20 -10-85.5333 175.014   6
   1 -20 -10-13.3872 125.469   7
  -1  20 -11 169.228 175.471   6
   1 -20 -11 30.2529 109.262   7
  -1  20 -12-14.8163 157.882   6
   1 -20 -12 123.313 91.6590   7
  -1 -21  -9 68.3905 117.044   7
  -1 -21  -8 73.2096 132.323   7
  -1 -21  -7 223.458 149.184   7
  -1 -21  -6 25.8164 150.490   7
  -1 -21  -5 26.3298 158.575   7
  -1 -21  -4 973.845 233.157   7
  -1 -21  -3-91.8494 171.435   7
   1 -21   3-47.6901 123.996   7
  -1 -21  -2 8.30362 164.114   7
   1 -21   2 145.409 143.225   7
  -1 -21  -1 6.29038 156.521   7
   1 -21   1 28.2382 156.863   7
   1 -21   0-60.3642 160.631   7
  -1 -21   0 4.32167 143.461   7
  -1 -21   1-30.2467 147.392   7
   1 -21  -1 22.0756 167.854   7
   1 -21  -2 237.028 174.995   7
  -1 -21   2-17.7390 132.095   7
   1 -21  -3-50.2132 170.374   7
   1 -21  -4 7.89458 153.668   7
   1 -21  -5-7.29620 152.377   7
   1 -21  -6 25.5738 144.590   7
   1 -21  -7 27.9465 139.567   7
   1 -21  -8 12.5817 132.156   7
   1 -21  -9-94.0338 120.051   7
   1 -21 -10-27.3389 94.8217   7
  -1 -22  -6-16.7023 115.921   7
  -1 -22  -5-111.931 138.489   7
  -1 -22  -4 220.258 180.304   7
  -1 -22  -3 286.030 162.003   7
  -1 -22  -2 75.5016 132.667   7
   1 -22   2 26.1460 97.3168   7
   1 -22   1 180.616 126.848   7
  -1 -22  -1 52.0708 133.977   7
   1 -22   0 15.2133 124.941   7
  -1 -22   0 46.7167 126.303   7
   1 -22  -1-86.8035 138.006   7
   1 -22  -2 48.8616 131.764   7
   1 -22  -3 19.3529 135.292   7
   1 -22  -4 43.4061 135.873   7
   1 -22  -5-47.9044 129.352   7
   1 -22  -6 46.8095 121.548   7
   1 -22  -7 22.8853 108.680   7
   1 -22  -8 58.2011 90.6764   7
   1 -23  -2 38.9599 92.6250   7
   1 -23  -3-0.34118 93.0853   7
   1 -23  -4-5.62606 90.0589   7
  -2   0   0 196108. 1610.09   2
  -2   0  -1 14147.6 527.839   2
  -2   0  -2 513.593 205.601   2
  -2   0  -2 567.365 127.055   1
  -2   0  -3 223.859 218.822   2
  -2   0  -3 150.523 67.5819   1
  -2   0  -4 763.749 288.802   2
  -2   0  -5 250.649 245.439   2
  -2   0  -6 4022.99 474.135   2
  -2   0  -7 2349.73 439.138   2
  -2   0  -8-39.8400 264.167   2
  -2   0  -9 723.753 366.660   2
  -2   0 -10 377.493 334.189   2
  -2   0 -11 1025.73 420.555   2
  -2   0 -12 12738.3 1141.34   2
  -2   0 -13 47.5911 331.353   2
   2   0 -14 159.884 133.830   3
  -2   0 -14 182.391 357.156   2
  -2   0 -14 328.355 162.303   3
  -2   0 -15 256.603 404.784   2
  -2   0 -15 287.880 170.873   3
   2   0 -15 162.541 146.434   3
   2   0 -16 414.697 160.788   3
  -2   0 -16 448.844 167.864   3
  -2   0 -17 1460.98 220.028   3
   2   0 -17 1783.16 234.513   3
  -2   0 -18 6150.07 375.200   3
   2   0 -18 5869.18 378.573   3
  -2   0 -19 149.033 152.312   3
   2   0 -19 55.2007 143.004   3
  -2   0 -20 128.815 157.458   3
   2   0 -20 152.880 121.833   3
  -2   0 -21 30.8541 130.048   3
   2   0 -21-23.5300 122.450   3
  -2   0 -22 41.6623 121.664   3
   2   0 -22 30.3747 109.232   3
  -2   0 -23 166.850 110.105   3
   2   0 -23 207.592 122.965   3
  -2   0 -24 3369.01 194.946   3
  -2   0 -25 128.730 63.7502   3
  -2  -1 -24 774.409 112.032   3
   2   1 -24 682.493 125.849   3
  -2  -1 -23 430.981 118.840   3
   2   1 -23 237.659 121.166   3
   2   1 -22 182.332 119.649   3
  -2  -1 -22 249.021 129.339   3
   2   1 -21 314.358 148.571   3
  -2  -1 -21 273.224 159.385   3
   2   1 -20 292.294 146.026   3
  -2  -1 -20 50.8280 141.056   3
  -2  -1 -19 766.169 193.021   3
   2   1 -19 888.928 208.781   3
  -2  -1 -18 5459.33 350.906   3
   2   1 -18 5491.00 365.060   3
   2   1 -17 1320.20 218.342   3
  -2  -1 -17 998.775 207.625   3
   2   1 -16 330.695 161.262   3
  -2  -1 -16 382.497 172.926   3
  -2  -1 -16 222.887 396.472   2
  -2  -1 -15 1083.96 474.265   2
  -2  -1 -15 1452.23 210.882   3
   2   1 -15 1486.87 210.975   3
  -2  -1 -14 1953.42 219.928   3
  -2  -1 -14 2175.20 610.448   2
   2   1 -14 2139.20 227.990   3
  -2  -1 -13 3769.90 715.695   2
  -2  -1 -12 504.855 369.551   2
  -2  -1 -11 131.016 300.640   2
  -2  -1 -10 496.279 324.337   2
  -2  -1  -9 136.107 277.322   2
  -2  -1  -8 806.761 343.225   2
  -2  -1  -7 142.528 248.552   2
  -2  -1  -6 34176.4 1279.49   2
  -2  -1  -5 5693.11 550.142   2
  -2  -1  -4 673.827 273.470   2
  -2  -1  -3 117141. 1969.07   2
  -2   1   1 324.173 88.7777   2
  -2   1   0 26.0830 106.255   2
  -2   1  -1 428.300 159.692   2
  -2   1  -1 369.311 154.112   1
  -2   1  -2 14491.6 621.119   2
  -2   1  -2 14158.7 524.875   1
  -2   1  -3 120730. 1432.62   1
  -2   1  -3 119840. 1892.61   2
   2  -1  -4 575.452 120.337   2
  -2   1  -4 692.417 161.098   1
  -2   1  -4 696.490 252.817   2
  -2   1  -5 5590.04 533.127   2
   2  -1  -5 5777.73 349.947   2
  -2   1  -6 35570.8 1317.65   2
   2  -1  -6 35812.9 937.966   2
  -2   1  -7 109.532 266.246   2
   2  -1  -7 90.8990 178.717   2
   2  -1  -8 811.589 264.692   2
  -2   1  -8 811.864 343.386   2
  -2   1  -9 221.306 331.387   2
   2  -1  -9 198.141 233.511   2
  -2   1 -10 322.183 314.021   2
  -2   1 -11 281.448 285.458   2
  -2   1 -12 297.342 345.869   2
  -2   1 -13 3327.96 680.805   2
  -2   1 -14 2171.44 228.623   3
  -2   1 -14 1881.78 586.348   2
   2  -1 -14 2245.58 227.628   3
   2  -1 -15 1470.73 202.743   3
  -2   1 -15 1492.39 208.213   3
  -2   1 -16 372.793 165.212   3
   2  -1 -16 481.342 168.831   3
  -2   1 -17 1298.17 204.628   3
   2  -1 -17 1392.16 223.770   3
  -2   1 -18 5429.14 347.574   3
   2  -1 -18 5459.30 368.158   3
   2  -1 -19 988.503 200.413   3
  -2   1 -19 779.319 201.592   3
  -2   1 -20 281.641 155.565   3
   2  -1 -20 126.669 126.174   3
   2  -1 -21 175.142 129.685   3
  -2   1 -21 340.088 143.159   3
  -2   1 -22 73.9827 120.330   3
   2  -1 -22 234.836 129.955   3
   2  -1 -23 170.202 121.196   3
  -2   1 -23 257.583 112.779   3
  -2   1 -24 783.149 117.208   3
  -2   1 -25 16.9888 63.6762   3
   2   2 -24 258.615 103.156   3
  -2  -2 -23 520.081 113.561   3
   2   2 -23 503.670 139.663   3
  -2  -2 -22 374.861 138.818   3
   2   2 -22 335.187 134.486   3
   2   2 -21 548.257 154.369   3
  -2  -2 -21 317.561 148.762   3
   2   2 -20 817.426 178.820   3
  -2  -2 -20 413.704 181.151   3
   2   2 -19 2380.35 272.986   3
  -2  -2 -19 2158.32 249.730   3
   2   2 -18 8471.48 451.043   3
  -2  -2 -18 9649.16 448.191   3
   2   2 -17 380.887 170.357   3
  -2  -2 -17 421.448 169.155   3
   2   2 -16 81.9140 138.750   3
  -2  -2 -16 80.9041 142.068   3
  -2  -2 -16 20.2054 345.435   2
  -2  -2 -15 13476.1 505.961   3
   2   2 -15 14405.8 511.116   3
  -2  -2 -14 814.403 164.305   3
   2   2 -14 817.511 164.276   3
  -2  -2 -14 701.376 419.660   2
  -2  -2 -13 1199.38 497.068   2
  -2   2  12 17404.2 1432.29   1
  -2  -2 -12 14512.1 1235.83   2
  -2  -2 -11 1975.88 519.314   2
  -2  -2 -10 3932.87 601.959   2
  -2  -2  -9 1164.79 392.296   2
  -2  -2  -8 4208.97 614.953   2
  -2  -2  -7 384.465 313.900   2
  -2  -2  -6 3962.07 537.573   2
  -2  -2  -5 4096.04 526.367   2
  -2   2   2 948.045 273.861   1
  -2   2   1 1662.83 303.930   1
  -2   2   0 38689.6 1062.10   1
  -2   2  -1 1774.42 264.268   2
  -2   2  -1 1621.69 280.919   1
  -2   2  -2 956.955 249.085   2
  -2   2  -2 873.765 230.554   1
  -2   2  -3 238596. 2821.54   2
  -2   2  -3 240620. 2511.83   1
  -2   2  -4 37948.6 1050.62   1
   2  -2  -4 34531.0 695.562   2
  -2   2  -4 37522.2 1234.72   2
  -2   2  -5 4007.82 482.195   2
   2  -2  -5 4084.83 304.169   2
  -2   2  -6 4325.67 518.321   2
   2  -2  -6 4030.07 335.905   2
   2  -2  -7 475.631 208.978   2
  -2   2  -7 695.075 317.832   2
   2  -2  -8 5079.41 482.557   2
  -2   2  -8 4850.32 620.870   2
  -2   2  -9 1393.19 411.979   2
   2  -2  -9 1222.51 330.210   2
  -2   2 -10 803.783 368.896   2
   2  -2 -10 725.699 315.092   2
   2  -2 -11 1388.25 361.339   2
  -2   2 -11 2097.25 525.894   2
  -2   2 -12 12840.4 1188.56   2
  -2   2 -13 1261.13 618.697   2
  -2   2 -14 843.508 169.505   3
   2  -2 -14 664.190 161.705   3
   2  -2 -15 12930.2 495.829   3
  -2   2 -15 14358.5 519.216   3
  -2   2 -16 100.176 147.816   3
   2  -2 -16 1531.71 282.541   3
   2  -2 -17 501.435 168.558   3
  -2   2 -17 400.003 160.754   3
  -2   2 -18 9018.77 439.451   3
   2  -2 -18 8621.21 433.390   3
  -2   2 -19 2174.25 249.159   3
   2  -2 -19 2395.35 270.433   3
   2  -2 -20 921.554 176.513   3
  -2   2 -20 818.076 176.419   3
   2  -2 -21 448.780 139.463   3
  -2   2 -21 421.606 143.041   3
  -2   2 -22 341.597 136.987   3
   2  -2 -22 278.429 129.840   3
  -2   2 -23 660.220 138.942   3
  -2   2 -24 196.960 93.4794   3
  -2   2 -25 43.1838 62.3512   3
   2   3 -24 90.2779 99.8212   3
   2   3 -23 210.245 112.802   3
   2   3 -22 398.354 138.470   3
  -2  -3 -22 392.990 123.566   3
   2   3 -21 5306.81 326.005   3
  -2  -3 -21 5554.09 312.425   3
  -2  -3 -20 2043.84 226.361   3
   2   3 -20 1172.38 183.267   3
   2   3 -19 861.092 184.479   3
  -2  -3 -19 1016.75 194.284   3
   2   3 -18 1018.99 204.222   3
  -2  -3 -18 887.035 192.393   3
  -2  -3 -17 4143.21 313.930   3
   2   3 -17 4453.02 340.936   3
   2   3 -16 703.235 192.388   3
  -2  -3 -16 573.307 166.176   3
  -2  -3 -16 437.289 376.645   2
   2   3 -15 1945.05 224.738   3
  -2  -3 -15 1609.11 530.886   2
  -2  -3 -15 2070.95 222.092   3
  -2  -3 -14 107.316 356.741   2
   2   3 -14 130.134 124.848   3
  -2  -3 -14 78.4066 122.265   3
  -2  -3 -13 906.241 480.169   2
   2   3 -13 742.914 144.518   3
  -2  -3 -12 1792.64 513.645   2
  -2   3  12 2161.09 581.658   1
  -2   3  11 2528.99 568.881   1
  -2  -3 -11 2142.32 514.471   2
  -2  -3 -10 2147.27 489.578   2
  -2   3  10 2852.54 614.631   1
  -2  -3  -9 27443.9 1490.39   2
  -2   3   9 32704.7 1788.50   1
  -2   3   8 3364.72 620.123   1
  -2  -3  -8 3018.45 572.890   2
  -2  -3  -7 23.8492 290.871   2
  -2   3   7 197.912 266.782   1
  -2  -3  -6 1946.46 437.090   2
  -2   3   6 1743.95 441.139   1
  -2   3   5 1667.33 410.157   1
  -2   3   4 8568.72 726.765   1
  -2   3   3 199092. 2973.94   1
  -2   3   2 20436.2 928.806   1
  -2   3   1 177.080 233.283   1
  -2   3   0 313.172 226.888   1
  -2   3  -1 214.388 222.770   1
  -2   3  -2 19592.6 858.557   1
  -2   3  -3 197453. 2764.31   2
  -2   3  -3 196171. 2643.66   1
  -2   3  -4 7662.83 659.110   2
  -2   3  -4 8008.18 586.193   1
   2  -3  -5 1650.35 253.702   2
  -2   3  -5 1621.88 378.733   2
  -2   3  -5 1398.57 311.482   1
  -2   3  -6 1871.40 413.114   2
   2  -3  -6 1656.83 272.597   2
   2  -3  -7 52.9353 168.625   2
  -2   3  -7 24.5345 262.623   2
   2  -3  -8 2955.57 385.954   2
  -2   3  -8 2908.85 523.664   2
   2  -3  -9 27718.6 1127.85   2
  -2   3  -9 29503.4 1529.69   2
  -2   3 -10 3025.31 622.303   2
   2  -3 -10 1960.49 379.609   2
  -2   3 -11 2389.66 583.657   2
  -2   3 -13 796.058 169.167   3
  -2   3 -14 111.319 120.773   3
   2  -3 -14 108.107 112.656   3
  -2   3 -15 2072.26 224.094   3
   2  -3 -15 1811.59 216.278   3
   2  -3 -16 650.490 174.878   3
  -2   3 -16 787.532 182.095   3
   2  -3 -17 4119.69 312.855   3
  -2   3 -17 4324.84 375.255   3
   2  -3 -18 866.002 172.931   3
  -2   3 -18 907.418 192.924   3
   2  -3 -19 880.870 169.204   3
  -2   3 -19 997.136 190.393   3
   2  -3 -20 984.382 164.762   3
  -2   3 -20 947.787 183.437   3
   2  -3 -21 4560.60 279.844   3
  -2   3 -21 5296.64 320.678   3
  -2   3 -22 507.686 142.447   3
   2  -3 -22 190.352 120.232   3
  -2   3 -23 290.825 114.463   3
  -2   3 -24 56.4415 78.6657   3
  -2   3 -25 27.8698 61.3434   3
   2   4 -24 16.0958 91.1671   3
   2   4 -23 360.383 117.212   3
   2   4 -22 612.930 148.667   3
   2   4 -21 39.9796 118.474   3
  -2  -4 -21 141.285 118.541   3
   2   4 -20 293.199 141.983   3
  -2  -4 -20 305.780 140.564   3
   2   4 -19 760.944 182.286   3
  -2  -4 -19 719.228 176.853   3
  -2  -4 -18 7040.82 374.056   3
   2   4 -18 7301.30 405.596   3
  -2  -4 -17 447.938 159.779   3
   2   4 -17 295.832 171.355   3
   2   4 -16 624.987 171.886   3
  -2  -4 -16 584.781 161.797   3
  -2  -4 -16 428.119 403.680   2
   2   4 -15 10023.4 456.979   3
  -2  -4 -15 8641.02 398.259   3
  -2  -4 -15 8220.17 1109.90   2
  -2  -4 -14 946.894 299.294   3
  -2  -4 -14 184.706 395.090   2
   2   4 -14 97.5470 133.927   3
   2   4 -13 1000.74 156.026   3
  -2  -4 -13 348.949 370.111   2
  -2  -4 -12 25831.0 1627.63   2
  -2   4  12 27343.8 1724.90   1
  -2   4  11 5787.22 817.862   1
  -2  -4 -11 4672.22 723.149   2
  -2   4  10 285.304 339.854   1
  -2  -4 -10 204.515 335.570   2
  -2   4   9 20142.4 1389.86   1
  -2  -4  -9 19915.9 1317.82   2
  -2  -4  -8 332.493 330.919   2
  -2   4   8 466.336 363.191   1
  -2  -4  -7 1116.40 416.121   2
  -2   4   7 882.611 400.893   1
  -2   4   6 135.496 271.766   1
  -2   4   5 1931.53 441.586   1
  -2   4   4 5697.00 606.867   1
  -2   4   3 17473.4 956.762   1
  -2   4   2 17125.1 920.873   1
  -2   4   1 275.446 245.398   1
  -2   4   0 3546.82 456.518   1
  -2   4  -1 237.725 266.626   1
  -2   4  -2 17469.0 908.870   1
  -2   4  -3 18406.1 920.691   1
   2   4   3 16778.1 757.877   1
  -2   4  -4 5573.92 558.798   1
   2   4   4 4930.68 432.412   1
   2   4   5 1754.29 281.670   1
  -2   4  -5 1980.19 387.625   1
   2  -4  -6 102.290 204.240   2
   2   4   6 180.873 143.863   1
   2   4   7 568.042 154.753   1
   2  -4  -7 1108.72 304.182   2
   2  -4  -8 419.978 242.684   2
   2  -4  -9 17545.3 920.971   2
   2  -4 -10 73.8747 224.363   2
  -2   4 -13 318.768 128.234   3
  -2   4 -14 33.8970 119.132   3
   2  -4 -15 7856.89 385.808   3
  -2   4 -15 9936.89 425.333   3
  -2   4 -16 636.811 177.625   3
   2  -4 -16 643.717 177.075   3
  -2   4 -17 368.885 157.316   3
   2  -4 -17 336.115 129.963   3
  -2   4 -18 6686.38 377.993   3
   2  -4 -18 6238.80 353.036   3
  -2   4 -19 815.002 184.922   3
   2  -4 -19 585.790 134.636   3
  -2   4 -20 394.715 149.040   3
   2  -4 -20 431.563 132.793   3
  -2   4 -21 140.581 125.600   3
  -2   4 -22 601.157 146.433   3
  -2   4 -23 502.294 119.923   3
  -2   4 -24 235.757 91.4184   3
  -2   4 -25 24.1755 59.9966   3
   2   5 -23 372.986 131.898   3
   2   5 -22 94.8145 106.695   3
   2   5 -21 621.421 148.171   3
   2   5 -20 46.2735 128.678   3
   2   5 -19 866.986 181.229   3
   2   5 -18 13158.6 525.596   3
   2   5 -17 716.583 183.378   3
   2   5 -16 185.249 380.504   6
   2   5 -16 729.603 177.001   3
   2   5 -15 3631.65 287.432   3
  -2  -5 -15 3046.77 738.872   2
   2   5 -14 3538.52 281.634   3
  -2  -5 -14 3509.67 749.162   2
   2   5 -13 494.004 150.924   3
  -2  -5 -13 503.186 391.973   2
  -2   5  12 4657.44 800.254   1
  -2  -5 -12 4656.45 792.145   2
  -2  -5 -11 952.486 427.102   2
  -2   5  11 906.251 449.128   1
  -2  -5 -10 2375.31 577.153   2
  -2   5  10 2593.33 595.082   1
  -2  -5  -9 20605.3 1424.81   2
  -2   5   9 22599.9 1415.29   1
  -2   5   8 632.278 388.695   1
  -2  -5  -8 551.737 411.593   2
  -2   5   7 898.263 397.349   1
  -2   5   6 71351.0 2241.65   1
  -2   5   5 1435.79 413.080   1
  -2   5   4 7484.82 745.899   1
  -2   5   3 1033.68 354.681   1
  -2   5   2 4241.08 537.143   1
  -2   5   1 496.132 321.620   1
  -2   5   0 1220.39 356.066   1
  -2   5  -1 527.942 284.352   1
  -2   5  -2 4529.35 542.137   1
   2   5   2 4183.28 498.428   1
  -2   5  -3 1183.53 373.797   1
   2   5   3 1051.82 293.406   1
   2   5   4 7826.93 612.561   1
  -2   5  -4 7809.55 717.581   1
   2   5   5 1307.26 295.368   1
  -2   5  -5 1601.73 399.185   1
   2   5   6 66249.9 1588.58   1
   2  -5  -7 948.390 345.968   2
   2   5   7 876.482 248.596   1
   2  -5  -8 599.202 294.595   2
   2  -5  -9 18768.4 1010.12   2
  -2   5 -13 414.572 137.667   3
  -2   5 -14 3324.85 265.067   3
  -2   5 -15 3789.69 280.419   3
  -2   5 -16 727.748 170.214   3
  -2   5 -17 79.4609 492.763   6
  -2   5 -17 605.701 166.436   3
  -2   5 -18 129.021 356.011   6
  -2   5 -18 12922.1 500.759   3
  -2   5 -19 901.174 179.531   3
  -2   5 -19-204.028 361.974   6
  -2   5 -20 126.385 125.721   3
  -2   5 -21 545.743 145.433   3
  -2   5 -22 489.369 134.306   3
  -2   5 -23 238.077 101.579   3
  -2   5 -24 1229.27 127.564   3
  -2   5 -25 89.2614 56.9425   3
   2   6 -23 239.345 106.410   3
   2   6 -22 185.882 111.216   3
   2   6 -21 106.161 123.407   3
   2   6 -20 83.3341 124.788   3
   2   6 -19 279.752 130.955   3
   2   6 -18-78.3212 332.138   6
   2   6 -18 37.7551 131.807   3
   2   6 -17 1425.86 214.683   3
   2   6 -17-510.867 412.596   6
   2   6 -16-7.63216 361.788   6
   2   6 -16 2164.94 248.229   3
   2   6 -15 15797.3 544.834   3
  -2  -6 -15 11035.3 1305.40   2
  -2  -6 -14 58.5421 326.451   2
   2   6 -14 19.5456 342.618   6
   2   6 -14 1.47328 134.009   3
  -2  -6 -13 398.035 365.213   2
   2   6 -13 12.7796 344.920   6
   2   6 -13 281.242 125.461   3
   2   6 -12 18046.5 520.989   3
  -2  -6 -12 21796.1 1629.34   2
  -2  -6 -11 1772.09 536.140   2
  -2   6  11 2251.49 594.949   1
  -2  -6 -10 3509.79 696.307   2
  -2   6  10 3608.38 685.156   1
  -2  -6  -9 914.884 456.823   2
  -2   6   9 625.303 393.065   1
  -2   6   8 2648.62 699.809   1
  -2  -6  -8 2218.13 564.696   2
  -2   6   7 10906.2 1024.29   1
  -2   6   6 78588.7 2502.73   1
  -2   6   5 665.249 356.644   1
  -2   6   4 295.091 321.124   1
  -2   6   3 221.744 298.396   1
  -2   6   2 1356.05 411.002   1
  -2   6   1 554.445 340.339   1
  -2   6   0 21974.7 1166.07   1
  -2   6  -1 550.193 312.898   1
   2   6   2 1035.66 323.477   1
  -2   6  -2 1147.78 363.455   1
  -2   6  -3 196.565 296.383   1
   2   6   3 230.540 250.843   1
  -2   6  -4 145.503 275.426   1
   2   6   4 176.167 240.379   1
   2   6   5 585.528 286.936   1
  -2   6  -5 678.064 337.707   1
   2   6   6 78351.5 1961.83   1
   2   6   7 9675.67 698.380   1
   2  -6  -8 2340.21 471.549   2
   2  -6  -9 669.255 315.094   2
  -2   6 -12 17378.6 504.076   3
  -2   6 -13 269.065 125.213   3
  -2   6 -14-17.3098 122.565   3
  -2   6 -15 15645.3 527.781   3
  -2   6 -16 95.1854 384.844   6
  -2   6 -16 2151.15 234.009   3
  -2   6 -17 25.7654 379.419   6
  -2   6 -17 1186.68 199.437   3
  -2   6 -18 59.8818 130.999   3
  -2   6 -18 129.330 346.376   6
  -2   6 -19 304.771 144.928   3
  -2   6 -19-45.3753 342.325   6
  -2   6 -20-287.326 335.603   6
  -2   6 -20 188.661 127.558   3
  -2   6 -21 70.4777 115.676   3
  -2   6 -22 26.5335 101.666   3
  -2   6 -23 300.992 99.0354   3
  -2   6 -24 275.290 80.9643   3
   2   7 -23 232.229 101.978   3
   2   7 -22 149.888 103.770   3
   2   7 -21 1062.42 157.941   3
   2   7 -20 480.537 136.097   3
   2   7 -19 47.3091 310.913   6
   2   7 -19 448.535 140.528   3
   2   7 -18-70.6082 337.374   6
   2   7 -18 2105.40 229.977   3
   2   7 -17-178.804 413.548   6
   2   7 -17 842.858 181.858   3
   2   7 -16 774.267 188.836   3
   2   7 -16 106.248 377.133   6
   2   7 -15 9029.01 425.966   3
   2   7 -15-42.8706 379.500   6
   2   7 -14-10.7823 364.949   6
   2   7 -14 960.752 191.205   3
  -2  -7 -14 827.405 495.805   2
  -2  -7 -13 1573.37 611.027   2
   2   7 -13 1246.10 185.597   3
   2   7 -12-77.0318 345.348   6
   2   7 -12 405.558 139.299   3
  -2  -7 -12 451.333 433.402   2
  -2   7  11 316.815 368.473   1
  -2  -7 -11 547.801 435.630   2
  -2  -7 -10 16.8468 356.446   2
  -2   7  10-36.0803 333.324   1
  -2   7   9 20411.8 1469.48   1
  -2  -7  -9 20903.8 1579.94   2
  -2   7   8 2251.76 578.750   1
  -2   7   7 4207.99 691.774   1
  -2   7   6 111637. 3149.77   1
  -2   7   5 27121.2 1539.75   1
  -2   7   4 3280.36 597.985   1
  -2   7   3 8261.09 858.496   1
  -2   7   2 23004.2 1343.71   1
  -2   7   1 1076.15 397.643   1
  -2   7   0 1947.92 454.866   1
  -2   7  -1 1187.64 402.275   1
  -2   7  -2 23361.3 1335.51   1
   2   7   2 24123.6 1292.22   1
   2   7   3 8959.22 796.830   1
  -2   7  -3 9378.28 866.171   1
  -2   7  -4 3404.97 614.631   1
   2   7   4 3437.74 552.468   1
  -2   7  -5 26096.9 1479.65   1
   2   7   5 27175.1 1324.22   1
   2   7   6 112575. 2622.54   1
   2   7   7 3530.88 514.983   1
   2  -7  -8 1750.08 463.905   2
  -2   7 -12 367.718 128.187   3
  -2   7 -13 1138.30 167.501   3
  -2   7 -14 982.291 176.700   3
  -2   7 -15 8671.68 389.552   3
  -2   7 -16 7.06804 390.903   6
  -2   7 -16 761.748 166.847   3
  -2   7 -17 758.459 169.711   3
  -2   7 -17-181.984 422.621   6
  -2   7 -18 71.6359 365.728   6
  -2   7 -18 2082.90 218.338   3
  -2   7 -19 556.422 365.496   6
  -2   7 -19 292.120 128.143   3
  -2   7 -20 17.1629 299.058   6
  -2   7 -20 454.391 131.557   3
  -2   7 -21-34.9622 250.398   6
  -2   7 -21 1147.99 161.337   3
  -2   7 -22 200.609 98.1144   3
  -2   7 -23 230.142 88.4203   3
  -2   7 -24 1310.45 107.902   3
   2   8 -22 59.4989 95.2510   3
   2   8 -21 9.23374 96.6056   3
   2   8 -20 323.974 125.888   3
   2   8 -20-191.051 326.489   6
   2   8 -19 669.459 147.348   3
   2   8 -19 2.89321 312.244   6
   2   8 -18 44.5525 359.183   6
   2   8 -18-31.2096 111.364   3
   2   8 -17 228.323 131.173   3
   2   8 -17-131.148 374.050   6
   2   8 -16-95.7642 382.381   6
   2   8 -16 783.457 180.148   3
   2   8 -15 2765.26 260.616   3
   2   8 -15 39.8103 382.957   6
  -2  -8 -14-241.985 369.568   2
   2   8 -14 74.0194 135.673   3
   2   8 -13-379.128 382.004   6
   2   8 -13 663.587 167.532   3
  -2  -8 -13 605.924 470.527   2
  -2  -8 -12 1059.32 515.361   2
   2   8 -12 1335.64 205.725   3
  -2  -8 -11 303.884 428.512   2
   2   8 -11-3.35308 361.800   6
   2   8 -11 348.033 136.313   3
  -2   8  11 306.445 402.022   1
  -2  -8 -10 2523.16 734.440   2
  -2   8  10 2669.68 679.008   1
  -2  -8  -9 7203.35 1022.24   2
  -2   8   9 7772.77 970.104   1
  -2   8   8 212.083 355.931   1
  -2   8   7 576.066 392.652   1
  -2   8   6 6051.81 800.631   1
  -2   8   5 1348.77 476.310   1
  -2   8   4 11383.9 1049.74   1
  -2   8   3 130770. 3308.43   1
  -2   8   2 3090.79 634.809   1
  -2   8   1 1079.70 476.756   1
  -2   8   0 2013.30 491.919   1
  -2   8  -1 1100.98 460.769   1
   2   8   2 3424.36 596.401   1
  -2   8  -2 3637.80 634.108   1
   2   8   3 131477. 3167.15   1
  -2   8  -3 131172. 3314.16   1
  -2   8  -4 11363.0 1044.37   1
   2   8   4 11271.0 967.626   1
   2   8   5 1304.55 416.990   1
  -2   8  -5 1422.91 453.593   1
   2   8   6 5933.34 708.184   1
   2   8   7 358.247 304.198   1
  -2   8 -11 239.288 108.820   3
  -2   8 -12 817.247 152.758   3
  -2   8 -13 619.163 149.653   3
  -2   8 -14 31.6756 117.288   3
  -2   8 -15-10.8350 400.737   6
  -2   8 -15 2478.78 237.879   3
  -2   8 -16 203.860 522.101   6
  -2   8 -16 804.885 173.576   3
  -2   8 -17-174.377 400.424   6
  -2   8 -17 164.498 128.441   3
  -2   8 -18 43.0948 113.371   3
  -2   8 -18-27.3871 375.503   6
  -2   8 -19 764.433 160.778   3
  -2   8 -19 2380.90 587.113   6
  -2   8 -20 278.989 120.487   3
  -2   8 -21 67.1559 99.3000   3
  -2   8 -21-11.9069 245.422   6
  -2   8 -22-12.5081 81.2952   3
  -2   8 -23 528.359 95.7761   3
  -2   8 -24 81.7531 54.5714   3
   2   9 -21 3423.96 215.167   3
   2   9 -20 13.2406 274.522   6
   2   9 -20 408.306 125.159   3
   2   9 -19-1.05850 307.548   6
   2   9 -19 92.9798 107.793   3
   2   9 -18 130.988 116.544   3
   2   9 -18 57.8811 348.411   6
   2   9 -17 878.468 174.049   3
   2   9 -17-184.761 403.075   6
   2   9 -16-44.5381 389.303   6
   2   9 -16 680.839 155.823   3
   2   9 -15-2.85865 388.919   6
   2   9 -15 774.708 158.941   3
   2   9 -14-105.632 416.699   6
   2   9 -14 50.0846 120.957   3
  -2  -9 -13 523.337 458.279   2
   2   9 -13-267.511 394.091   6
   2   9 -13 618.525 160.507   3
  -2  -9 -12 885.139 556.335   2
   2   9 -12 853.047 158.119   3
   2   9 -12 10.1267 372.526   6
  -2  -9 -11 1791.55 654.121   2
   2   9 -11 1318.64 180.140   3
   2   9 -10-72.2437 355.923   6
  -2  -9 -10 1729.58 698.696   2
  -2   9  10 1375.95 555.554   1
  -2   9   9 19245.9 1605.79   1
  -2   9   8 741.655 443.803   1
  -2   9   7 54.4186 331.345   1
  -2   9   6 18156.6 1398.63   1
  -2   9   5 4917.10 774.617   1
  -2   9   4 470.414 373.147   1
  -2   9   3 26449.8 1591.03   1
  -2   9   2 13782.0 1152.84   1
  -2   9   1 340.539 369.082   1
  -2   9   0-94.3616 328.063   1
  -2   9  -1 239.528 371.155   1
  -2   9  -2 14111.0 1195.04   1
   2   9   3 26259.5 1557.36   1
  -2   9  -3 25497.5 1574.23   1
  -2   9  -4 269.226 365.348   1
   2   9   4 223.209 306.806   1
  -2   9  -5 4848.93 756.059   1
   2   9   5 4620.73 734.548   1
   2   9   6 17072.7 1271.14   1
   2   9   7-58.3927 307.939   1
  -2   9 -11 1054.30 150.142   3
  -2   9 -12 871.908 149.423   3
  -2   9 -13 634.599 149.032   3
  -2   9 -14-13.0903 385.987   6
  -2   9 -14 66.7871 119.444   3
  -2   9 -15 898.202 164.422   3
  -2   9 -15-75.9084 399.269   6
  -2   9 -16 228.250 406.919   6
  -2   9 -16 627.151 155.475   3
  -2   9 -17 848.444 162.081   3
  -2   9 -17 242.233 424.764   6
  -2   9 -18-65.1842 354.458   6
  -2   9 -18 162.897 116.727   3
  -2   9 -19 940.152 500.134   6
  -2   9 -19 7.90197 106.476   3
  -2   9 -20 103.924 314.543   6
  -2   9 -20 342.572 119.801   3
  -2   9 -21 22.4482 240.792   6
  -2   9 -21 3457.54 203.826   3
  -2   9 -22 218.668 79.0839   3
  -2   9 -23 7.83675 55.9026   3
   2  10 -20-175.012 262.755   6
   2  10 -20 113.785 99.5446   3
   2  10 -19 139.962 105.389   3
   2  10 -19 55.3142 307.028   6
   2  10 -18 3774.59 247.689   3
   2  10 -18-5.78720 330.855   6
   2  10 -17 90.2405 101.383   3
   2  10 -17-230.415 379.843   6
   2  10 -16-4.17347 377.854   6
   2  10 -16 223.092 114.590   3
   2  10 -15 2014.60 205.368   3
   2  10 -15-85.7826 387.525   6
   2  10 -14 51.7312 105.673   3
   2  10 -14-185.943 417.704   6
   2  10 -13 218.112 111.303   3
   2  10 -13-73.7029 410.131   6
  -2 -10 -13 184.433 365.288   2
  -2 -10 -12 7087.32 1196.72   2
   2  10 -12 6262.53 324.539   3
   2  10 -11 953.433 167.039   3
  -2 -10 -11 652.242 252.771   7
   2  10 -11 110.625 374.790   6
  -2 -10 -11 1367.70 608.185   2
  -2 -10 -10 3.43702 118.051   7
  -2  10  10 33.5461 335.276   1
  -2 -10 -10 88.0605 464.777   2
   2  10 -10 27.1861 349.699   6
  -2 -10  -9 109.945 256.109   7
   2  10  -9-134.429 333.224   6
  -2  10   8 38.8129 344.361   1
  -2  10   7 777.257 458.669   1
  -2  10   6 1200.94 472.669   1
  -2  10   5 701.438 439.322   1
  -2  10   4 398.464 414.694   1
  -2  10   3 5350.73 800.504   1
  -2  10   2 3501.93 690.974   1
  -2  10   1 657.765 409.815   1
  -2  10   0 28728.1 1749.19   1
  -2  10  -1 795.410 452.857   1
  -2  10  -2 3477.01 655.942   1
  -2  10  -3 5448.30 809.942   1
  -2  10  -4 266.948 341.788   1
  -2  10  -5 450.070 366.222   1
   2  10   5 416.295 356.955   1
   2 -10  -9 6.04263 134.428   7
   2 -10 -10-14.4546 144.542   7
   2 -10 -11-39.7638 135.659   7
  -2  10 -12 5938.79 301.517   3
  -2  10 -13 305.117 125.985   3
  -2  10 -13-67.2993 400.882   6
  -2  10 -14 78.1657 119.297   3
  -2  10 -14-235.776 400.710   6
  -2  10 -15 1952.31 206.179   3
  -2  10 -15 56.8076 388.165   6
  -2  10 -16 201.195 120.551   3
  -2  10 -16 70.2831 377.209   6
  -2  10 -17 53.7642 399.493   6
  -2  10 -17 6.66603 109.381   3
  -2  10 -18 4040.37 253.396   3
  -2  10 -18-42.0999 358.353   6
  -2  10 -19 137.916 332.751   6
  -2  10 -19 85.0575 103.293   3
  -2  10 -20 38.8610 273.293   6
  -2  10 -20 168.880 86.3700   3
  -2  10 -21-74.2526 234.261   6
  -2  10 -21 252.566 83.1627   3
  -2  10 -22 303.969 72.8746   3
   2  11 -20-65.4080 252.740   6
   2  11 -19 544.249 117.616   3
   2  11 -19 571.867 339.808   6
   2  11 -18 2927.54 208.574   3
   2  11 -18 3.86630 314.499   6
   2  11 -17 88.8835 343.805   6
   2  11 -17 40.4119 106.123   3
   2  11 -16-19.1085 362.679   6
   2  11 -16-37.5374 99.0201   3
   2  11 -15-78.0522 384.271   6
   2  11 -15 177.889 105.899   3
   2  11 -14-436.372 413.677   6
   2  11 -14 1400.34 175.090   3
   2  11 -13-48.8666 396.115   6
   2  11 -13 268.307 111.336   3
  -2 -11 -13 30.5659 116.612   7
  -2 -11 -12 2871.39 845.107   2
  -2 -11 -12 1759.14 226.371   7
  -2 -11 -11 14.5516 134.246   7
  -2 -11 -11 160.335 436.613   2
   2  11 -11 16.7318 375.225   6
  -2  11  10 619.850 466.697   1
  -2 -11 -10 5.48284 142.309   7
  -2 -11 -10 319.640 457.130   2
   2  11  -9-4.15888 369.292   6
  -2 -11  -9-40.5802 140.790   7
  -2  11   9 121.685 390.459   1
   2  11  -8 514.386 377.111   6
  -2 -11  -8-15.1920 145.945   7
  -2  11   8-13.6339 404.090   1
  -2 -11  -7 16.9670 142.866   7
  -2  11   7 378.977 403.974   1
  -2  11   6 32067.8 2047.79   1
  -2  11   5 6939.19 951.844   1
  -2  11   4 137.798 323.011   1
  -2  11   3 88.5313 375.433   1
  -2  11   2 90.2479 378.922   1
  -2  11   1 1943.73 557.120   1
  -2  11   0 754.856 426.161   1
  -2  11  -1 1962.63 559.336   1
  -2  11  -2-67.1449 316.685   1
  -2  11  -3 61.3097 310.986   1
  -2  11  -4 192.046 346.323   1
   2 -11  -7 3.60689 156.710   7
   2 -11  -8 89.5969 170.021   7
   2 -11  -9-86.8527 164.850   7
   2 -11 -10 57.2993 173.197   7
   2 -11 -11-90.7745 152.734   7
  -2  11 -11-48.3837 370.748   6
  -2  11 -12-109.735 404.666   6
   2 -11 -12 1103.35 327.410   7
  -2  11 -13 224.342 117.887   3
  -2  11 -13 45.3702 386.890   6
  -2  11 -14-45.3282 385.817   6
  -2  11 -14 1345.65 176.292   3
  -2  11 -15-14.5586 374.051   6
  -2  11 -15 141.033 113.880   3
  -2  11 -16 51.1588 358.513   6
  -2  11 -16-5.10256 105.344   3
  -2  11 -17 8.22492 101.840   3
  -2  11 -17 162.436 376.572   6
  -2  11 -18 22.8671 364.193   6
  -2  11 -18 2937.78 203.675   3
  -2  11 -19 1133.69 346.995   6
  -2  11 -19 706.624 120.212   3
  -2  11 -20-83.0631 268.521   6
  -2  11 -20 164.545 78.4561   3
  -2  11 -21-57.0684 216.692   6
  -2  11 -21 123.445 68.3900   3
   2  12 -20-52.0047 221.741   6
   2  12 -19 92.5773 264.114   6
   2  12 -18 67.0864 305.203   6
   2  12 -17 71.0541 324.791   6
   2  12 -17 21.3280 100.855   3
   2  12 -16 843.855 164.789   3
   2  12 -16 5.09803 350.540   6
   2  12 -15 2644.04 196.546   3
   2  12 -15-241.305 382.584   6
   2  12 -14-40.5542 373.667   6
   2  12 -13-224.793 413.343   6
  -2 -12 -13-41.6348 151.818   7
  -2 -12 -12 3167.34 259.069   7
   2  12 -12 105.202 406.582   6
   2  12 -11-16.9909 381.045   6
  -2 -12 -11-123.060 162.026   7
  -2 -12 -11 385.844 474.052   2
  -2 -12 -10-37.3448 149.852   7
   2  12 -10-86.0127 368.493   6
  -2 -12 -10 9.19789 455.056   2
   2  12  -9 3.37452 375.804   6
  -2 -12  -9 2.85887 156.188   7
  -2  12   9 431.118 448.294   1
   2  12  -8-5.07498 363.267   6
  -2  12   8 20.3185 381.637   1
  -2 -12  -8 9.45888 155.372   7
  -2 -12  -7-20.6635 154.501   7
  -2  12   7 728.237 491.046   1
   2  12  -7-24.1713 341.614   6
   2  12  -6-9.97375 342.839   6
  -2 -12  -6-17.1772 151.559   7
  -2  12   6 111.675 413.198   1
  -2  12   5 421.196 449.724   1
  -2 -12  -5-70.3471 152.538   7
  -2 -12  -4-16.4045 143.481   7
  -2  12   4 1435.19 557.727   1
  -2 -12  -3-39.8205 160.047   7
  -2  12   3 9103.92 1346.38   1
  -2  12   2 385.134 417.391   1
  -2  12   1 1107.65 494.187   1
  -2  12   0 71642.9 3025.15   1
  -2  12  -1 827.252 427.564   1
  -2  12  -2 398.963 406.452   1
   2 -12  -3-2.58507 163.353   7
  -2  12  -3 5066.78 871.165   1
   2 -12  -4 33.7470 176.915   7
  -2  12  -4 1431.63 557.119   1
   2 -12  -5-11.6406 175.374   7
   2 -12  -6-9.70763 168.419   7
  -2  12  -6-2.09784 307.141   6
   2 -12  -7 0.08594 168.910   7
  -2  12  -7-12.6565 344.780   6
   2 -12  -8-20.6419 181.665   7
  -2  12  -8 35.5781 343.315   6
   2 -12  -9-0.80346 167.849   7
  -2  12  -9-44.4947 364.828   6
  -2  12 -10-23.8420 366.157   6
   2 -12 -10-5.56627 163.807   7
   2 -12 -11-105.237 171.935   7
  -2  12 -11 64.7122 373.805   6
   2 -12 -12 131.565 167.302   7
  -2  12 -12 62.3519 381.910   6
  -2  12 -13 285.919 447.231   6
  -2  12 -14 152.743 394.991   6
  -2  12 -15-2.31967 364.083   6
  -2  12 -16 2657.26 476.399   6
  -2  12 -16 323.369 106.561   3
  -2  12 -17 67.5555 324.691   6
  -2  12 -17 42.6321 70.3567   3
  -2  12 -18 1455.93 131.663   3
  -2  12 -19 101.311 304.245   6
  -2  12 -19 65.3554 64.7827   3
  -2  12 -20 25.6063 230.651   6
  -2  12 -20 150.087 58.3446   3
  -2  12 -21-119.529 187.139   6
   2  13 -19 572.622 307.405   6
   2  13 -18 44.6275 276.904   6
   2  13 -17 4.29315 307.076   6
   2  13 -16 66.4443 327.929   6
   2  13 -15 9.57514 348.665   6
  -2 -13 -14-35.1548 120.254   7
   2  13 -14-616.936 391.195   6
   2  13 -13 191.857 399.419   6
  -2 -13 -13 111.928 164.203   7
   2  13 -12-14.4533 370.212   6
  -2 -13 -12-4.66110 138.053   7
   2  13 -11 122.191 398.761   6
  -2 -13 -11-0.61629 151.742   7
   2  13 -10-126.488 392.136   6
  -2 -13 -10 45.8142 156.981   7
   2  13  -9-150.170 377.315   6
  -2 -13  -9 48.0323 190.323   7
  -2 -13  -8-64.3491 173.145   7
   2  13  -8-14.3538 370.444   6
  -2  13   8 595.938 427.535   1
  -2 -13  -7-28.0836 171.101   7
   2  13  -7-65.3374 362.271   6
  -2  13   7 579.480 460.380   1
   2  13  -6 1.55748 344.264   6
  -2 -13  -6 207.715 196.394   7
  -2  13   5 610.788 408.962   1
  -2 -13  -5 27.9044 168.935   7
   2  13  -5 936.109 392.689   6
  -2 -13  -4 34.0820 165.697   7
  -2  13   4 504.778 431.618   1
   2  13  -4-12.4259 316.916   6
   2 -13   3-2.09738 175.273   7
  -2 -13  -3 8.55546 160.200   7
  -2 -13  -2-14.9653 176.804   7
   2 -13   2-60.2003 171.991   7
  -2 -13  -1-11.2608 157.616   7
   2 -13   1 450.080 214.586   7
  -2  13   1 449.147 436.121   1
  -2 -13   0-8.49448 151.536   7
   2 -13   0-80.9626 187.276   7
  -2  13   0 232.719 351.620   1
  -2 -13   1-48.5820 167.716   7
   2 -13  -1-6.73702 183.791   7
  -2  13  -1 341.553 379.901   1
   2 -13  -2-59.4436 195.332   7
  -2 -13   2 1129.95 249.693   7
  -2 -13   3-105.282 158.399   7
   2 -13  -3 3.83849 181.183   7
   2 -13  -4-12.6208 174.834   7
  -2  13  -5 78.3395 326.336   6
   2 -13  -5 85.4986 212.234   7
  -2  13  -6-1.19236 329.314   6
   2 -13  -6-37.3513 194.587   7
   2 -13  -7 32.1396 187.737   7
  -2  13  -7-15.6143 329.249   6
   2 -13  -8 18.9514 182.881   7
  -2  13  -8-180.803 360.059   6
  -2  13  -9-19.6562 361.765   6
   2 -13  -9-51.1055 187.948   7
  -2  13 -10-47.8202 367.395   6
   2 -13 -10-34.7038 182.740   7
   2 -13 -11-2.34448 172.482   7
  -2  13 -11-113.618 370.527   6
  -2  13 -12-193.184 384.867   6
   2 -13 -12-98.3990 167.652   7
   2 -13 -13-14.8235 154.126   7
  -2  13 -14-143.963 383.269   6
  -2  13 -15 12.0581 351.857   6
  -2  13 -16 928.319 376.567   6
  -2  13 -18-59.6637 273.046   6
  -2  13 -19 6.18485 242.105   6
  -2  13 -20-35.9302 206.018   6
  -2  13 -21 126.762 161.319   6
   2  14 -19 334.503 255.847   6
   2  14 -18 29.2640 250.274   6
   2  14 -17-32.3563 292.003   6
   2  14 -16 52.1042 308.983   6
   2  14 -15-0.19272 337.907   6
   2  14 -14 14.2801 355.891   6
  -2 -14 -14-54.3582 130.505   7
  -2 -14 -13-5.23431 142.825   7
   2  14 -13 53.9193 365.084   6
  -2 -14 -12 110.926 167.288   7
   2  14 -12 289.577 387.900   6
   2  14 -11-261.517 405.875   6
  -2 -14 -11 23.4138 169.976   7
   2  14 -10-37.8446 385.949   6
  -2 -14 -10 60.6866 183.598   7
  -2 -14  -9 232.682 208.386   7
   2  14  -9-0.60157 380.072   6
  -2 -14  -8 79.2911 181.564   7
   2  14  -8 90.2919 373.626   6
  -2  14   8 109.634 374.954   1
  -2  14   7 285.201 414.516   1
   2  14  -7 109.899 381.487   6
  -2 -14  -7-32.0382 175.679   7
   2  14  -6 86.3296 378.821   6
  -2 -14  -6-1.32604 186.653   7
  -2  14   6 123.974 359.146   1
  -2 -14  -5 62.3163 193.438   7
  -2  14   5 684.455 442.961   1
   2  14  -5 133.526 402.297   6
  -2 -14  -4-88.6746 177.034   7
   2  14  -4 228.767 359.105   6
   2 -14   4 52.4391 165.733   7
   2 -14   3 24.4404 190.748   7
   2  14  -3 715.215 721.417   6
  -2  14   2 319.796 515.026   1
   2 -14   2 3.52218 175.507   7
  -2 -14  -1-20.9013 180.282   7
  -2  14   1 125.670 371.502   1
  -2  14   0 216.140 365.822   1
   2 -14   0-2.14937 194.058   7
  -2 -14   0-262.044 181.674   7
  -2 -14   1-21.0298 176.015   7
  -2  14  -1 45.1627 350.531   1
   2 -14  -1 21.6953 189.779   7
  -2 -14   2-98.6421 190.620   7
   2 -14  -2 38.9105 212.298   7
  -2  14  -2 171.471 364.742   1
  -2 -14   3-26.2958 181.942   7
   2 -14  -3-71.0224 205.138   7
  -2 -14   4 553.861 347.443   7
   2 -14  -4 6.74819 200.864   7
  -2  14  -5-112.436 306.513   6
   2 -14  -5-30.7697 208.323   7
   2 -14  -6 67.6599 200.535   7
   2 -14  -7 45.0108 197.340   7
  -2  14  -7-290.479 359.894   6
  -2  14  -8 231.180 381.774   6
   2 -14  -8-42.4969 200.834   7
   2 -14  -9 487.155 390.384   7
   2 -14 -10-16.3949 189.461   7
  -2  14 -11-68.2789 370.447   6
   2 -14 -11-11.0132 186.343   7
   2 -14 -12 65.9920 174.598   7
  -2  14 -12 216.198 378.734   6
   2 -14 -13-62.1450 159.616   7
  -2  14 -13 716.333 426.796   6
  -2  14 -14-157.294 347.123   6
  -2  14 -15 42.2481 333.354   6
  -2  14 -16 61.3605 339.327   6
  -2  14 -17 37.3726 280.566   6
  -2  14 -18 32.2644 252.884   6
  -2  14 -19-4.46524 217.955   6
  -2  14 -20-182.272 187.541   6
   2  15 -18 109.091 231.800   6
   2  15 -17-5.43115 254.158   6
   2  15 -16 87.7279 283.673   6
   2  15 -15-127.331 322.713   6
   2  15 -14 108.632 343.821   6
  -2 -15 -14-27.8466 124.280   7
   2  15 -13 235.320 378.896   6
  -2 -15 -13-30.0958 148.585   7
  -2 -15 -12 684.166 244.105   7
   2  15 -12-27.1168 352.190   6
  -2 -15 -11 36.7784 176.186   7
   2  15 -11-19.9092 364.348   6
   2  15 -10-11.0397 363.856   6
  -2 -15 -10-50.4634 177.793   7
  -2 -15  -9 54.8076 185.031   7
   2  15  -9 3126.22 676.625   6
   2  15  -8-213.349 388.390   6
  -2 -15  -8-103.318 189.873   7
   2  15  -7-176.960 395.245   6
  -2 -15  -7 12.4693 180.609   7
  -2  15   7 87.2582 328.213   1
  -2 -15  -6-20.4775 201.054   7
   2  15  -6 181.645 390.639   6
  -2 -15  -5 6.79558 195.876   7
   2  15  -5-10.4081 365.905   6
   2  15  -4-77.1641 335.507   6
  -2  15   4 161.320 349.348   1
  -2 -15  -4-15.6643 189.094   7
   2 -15   4-0.38387 172.316   7
   2  15  -3 454.897 356.419   6
  -2 -15  -3 47.4617 201.862   7
  -2  15   3 529.066 365.062   1
   2 -15   3 37.0985 192.476   7
  -2 -15  -2 21.0402 197.570   7
   2 -15   2 45.3205 199.765   7
  -2 -15  -1-11.1510 198.296   7
   2 -15   1 723.068 244.884   7
  -2  15   1 1017.01 546.833   1
  -2 -15   0 18.2237 206.588   7
  -2  15   0 90.7575 364.960   1
   2 -15   0-13.7257 210.186   7
  -2  15  -1 835.141 507.789   1
  -2 -15   1 1472.29 291.257   7
  -2 -15   2 22.9108 188.903   7
   2 -15  -2 170.275 241.201   7
   2 -15  -3-6.52863 209.333   7
  -2 -15   3-33.3238 180.665   7
   2 -15  -4-9.04716 202.256   7
  -2 -15   4 437.068 350.520   7
  -2  15  -5-94.1425 333.537   6
   2 -15  -5-5.53273 207.038   7
   2 -15  -6-65.5982 235.976   7
  -2  15  -6 73.2228 364.641   6
  -2  15  -7 517.513 379.292   6
   2 -15  -7 22.2010 213.972   7
  -2  15  -8-154.714 363.633   6
   2 -15  -8-20.4165 198.004   7
   2 -15  -9 20.0028 203.947   7
  -2  15  -9-73.7468 337.711   6
   2 -15 -10 1.09868 191.386   7
  -2  15 -10 22.1279 348.689   6
   2 -15 -11-53.3541 189.559   7
  -2  15 -11 36.1665 345.835   6
  -2  15 -12 184.918 362.725   6
   2 -15 -12 6.43570 169.972   7
   2 -15 -13-6.17494 143.492   7
  -2  15 -13 69.6576 330.949   6
  -2  15 -15 5.01383 300.046   6
  -2  15 -16 132.667 301.176   6
  -2  15 -17 100.110 253.702   6
  -2  15 -18 82.2205 221.963   6
  -2  15 -19 304.455 195.880   6
  -2  15 -20 94.7066 148.648   6
   2  16 -17-25.3866 218.927   6
   2  16 -16-83.8689 248.735   6
   2  16 -15 290.050 297.433   6
   2  16 -14 19.0936 299.312   6
   2  16 -13 108.673 340.029   6
  -2 -16 -13 161.908 160.629   7
  -2 -16 -12 4.65095 165.651   7
   2  16 -12-39.8514 336.477   6
  -2 -16 -11 10.7396 169.838   7
   2  16 -11 146.372 342.468   6
  -2 -16 -10-12.5282 173.083   7
   2  16 -10 29.7239 355.871   6
  -2 -16  -9-37.4782 178.620   7
   2  16  -9-42.7767 364.661   6
  -2 -16  -8 25.9489 184.757   7
   2  16  -8 46.8668 355.908   6
  -2 -16  -7 115.372 207.474   7
   2  16  -7 8.38495 355.166   6
   2  16  -6 113.217 358.891   6
  -2 -16  -6 6.86311 209.306   7
  -2  16   5 691.620 486.783   1
  -2 -16  -5 1.80655 196.168   7
   2  16  -5 218.450 370.855   6
   2  16  -4 92.2927 330.467   6
  -2  16   4 111.874 374.694   1
  -2 -16  -4-8.43435 218.160   7
   2 -16   4-4.46888 176.949   7
  -2 -16  -3-12.1427 205.559   7
   2 -16   3 34.1224 197.429   7
  -2  16   2 35.6501 365.429   1
  -2 -16  -2-17.5233 210.248   7
   2 -16   2-34.9082 205.444   7
  -2 -16  -1 116.337 202.252   7
   2 -16   1 150.830 315.794   7
  -2 -16   0-28.1668 192.619   7
   2 -16   0 1337.82 491.635   7
   2 -16  -1 54.6428 212.053   7
  -2 -16   1 18.4282 215.506   7
  -2 -16   2 139.197 203.571   7
   2 -16  -2 5.07239 214.705   7
   2 -16  -3 7.42530 244.776   7
  -2 -16   3 367.707 282.710   7
  -2 -16   4 4.77383 190.893   7
   2 -16  -4-9.07582 222.112   7
   2 -16  -5-19.5844 220.651   7
   2 -16  -6-33.2157 206.669   7
   2 -16  -7-37.9375 217.869   7
  -2  16  -8-272.568 339.264   6
   2 -16  -8-20.8492 211.423   7
   2 -16  -9 86.5259 225.724   7
  -2  16  -9-66.3655 342.748   6
   2 -16 -10-0.76990 198.473   7
  -2  16 -10-11.0288 328.814   6
   2 -16 -11-106.262 187.529   7
  -2  16 -12-32.0569 319.895   6
   2 -16 -12 14.0740 151.312   7
   2 -16 -13 27.9485 162.048   7
  -2  16 -13-181.909 308.094   6
  -2  16 -14-69.0759 285.411   6
  -2  16 -15 74.1508 270.186   6
  -2  16 -16 64.2192 249.519   6
  -2  16 -17-92.9568 220.333   6
  -2  16 -18 112.703 188.594   6
  -2  16 -19 344.759 153.903   6
   2  17 -16 270.770 240.556   6
   2  17 -15 10.7670 68.6310   4
   2  17 -15 94.3524 253.724   6
   2  17 -14-21.2803 271.306   6
   2  17 -13 156.075 306.282   6
  -2 -17 -13 332.425 157.786   7
   2  17 -12 31.2474 303.669   6
  -2 -17 -12-19.4405 151.927   7
  -2 -17 -11-9.67447 164.111   7
   2  17 -11-133.143 327.162   6
   2  17 -10 19.5775 326.926   6
  -2 -17 -10 6.12496 206.474   7
  -2 -17  -9 47.0946 187.667   7
   2  17  -9-22.8837 321.555   6
  -2 -17  -8-89.1434 199.353   7
   2  17  -8 81.3103 329.685   6
   2  17  -7-149.208 330.294   6
  -2 -17  -7-25.0132 191.045   7
  -2 -17  -6 13.3525 194.064   7
   2  17  -6 166.140 346.273   6
   2  17  -5-48.3699 321.349   6
  -2 -17  -5-23.9239 198.605   7
  -2 -17  -4 3.54220 197.884   7
   2  17  -4-161.780 333.209   6
   2 -17   4 45.6441 194.021   7
   2 -17   3 113.212 211.371   7
  -2 -17  -3-9.39870 196.096   7
   2 -17   2-41.0790 207.075   7
  -2 -17  -2 17.6902 198.467   7
  -2 -17  -1-55.0081 202.249   7
   2 -17   1-2.37129 203.461   7
  -2 -17   0-12.6321 191.621   7
   2 -17   0 1283.55 307.391   7
  -2 -17   1 9.38319 185.480   7
   2 -17  -1-37.7768 218.271   7
  -2 -17   2 17.1710 191.876   7
   2 -17  -2 1.98030 229.552   7
  -2 -17   3-112.457 190.106   7
   2 -17  -3 92.9355 254.918   7
   2 -17  -4-0.75217 218.398   7
  -2 -17   4 1.42024 173.459   7
   2 -17  -5 137.721 284.274   7
  -2  17  -6-70.2430 304.593   6
   2 -17  -6-34.7435 224.566   7
  -2  17  -7-100.237 307.651   6
   2 -17  -7 69.0601 214.852   7
  -2  17  -8 18.7867 303.903   6
   2 -17  -8-37.0662 197.895   7
   2 -17  -9 6.96464 190.973   7
  -2  17  -9-21.1644 293.986   6
   2 -17 -10 7.94793 184.702   7
  -2  17 -10-79.4213 305.260   6
  -2  17 -11-184.441 307.125   6
   2 -17 -11-9.17902 161.255   7
  -2  17 -12-15.0678 278.358   6
   2 -17 -12-3.56439 157.999   7
   2 -17 -13-49.1743 139.080   7
  -2  17 -13 79.0672 277.550   6
  -2  17 -14-145.753 258.158   6
  -2  17 -15 1162.81 290.591   6
  -2  17 -16 322.682 221.508   6
  -2  17 -17-75.2505 178.526   6
  -2  17 -18 183.643 147.477   6
   2  18 -15 1848.64 112.100   4
   2  18 -14-121.881 232.771   6
   2  18 -13-29.5082 246.878   6
   2  18 -12 78.9639 261.632   6
  -2 -18 -12 9.26047 135.744   7
   2  18 -11 56.7329 287.908   6
  -2 -18 -11-21.6602 147.462   7
  -2 -18 -10-49.5164 180.583   7
   2  18 -10 64.6708 280.785   6
  -2 -18  -9-22.3963 176.014   7
   2  18  -9 78.3814 288.914   6
  -2 -18  -8 20.9656 186.666   7
   2  18  -8 108.813 303.622   6
  -2 -18  -7 31.8284 183.648   7
   2  18  -7 8.01522 300.564   6
   2  18  -6 3.60929 290.990   6
  -2 -18  -6 136.479 208.113   7
  -2 -18  -5 12.7314 192.926   7
   2 -18   4-8.38380 184.060   7
  -2 -18  -4-136.542 207.506   7
   2 -18   3 18.2073 219.811   7
  -2 -18  -3-74.3313 202.830   7
  -2 -18  -2-22.4833 192.085   7
   2 -18   2-1.87444 199.501   7
  -2 -18  -1-23.9818 201.013   7
   2 -18   1 69.7246 210.827   7
   2 -18   0 945.918 315.291   7
  -2 -18   0-27.6090 189.014   7
   2 -18  -1 36.3129 215.272   7
  -2 -18   1 4.71761 270.929   7
   2 -18  -2 158.596 240.510   7
  -2 -18   2-30.6154 196.783   7
  -2 -18   3 59.6416 207.211   7
   2 -18  -3 119.258 248.150   7
   2 -18  -4-59.9052 217.766   7
   2 -18  -5 67.3896 210.113   7
   2 -18  -6 21.3357 212.664   7
  -2  18  -7-147.364 274.629   6
   2 -18  -7 110.745 212.963   7
  -2  18  -8 86.3663 292.811   6
   2 -18  -8 11.4028 199.860   7
  -2  18  -9-114.885 276.515   6
   2 -18  -9-21.8107 176.672   7
  -2  18 -10 1193.22 367.806   6
   2 -18 -10-167.602 183.096   7
   2 -18 -11 21.7575 159.641   7
  -2  18 -11-102.925 270.350   6
   2 -18 -12 79.5162 138.801   7
  -2  18 -12 88.5905 265.388   6
  -2  18 -13 410.472 270.594   6
  -2  18 -14 26.6900 217.735   6
  -2  18 -15 3443.70 329.007   6
  -2  18 -16 1.96235 165.144   6
  -2  18 -17 153.053 131.740   6
   2  19 -14 101.609 55.5546   4
  -2 -19 -11-25.4688 135.100   7
  -2 -19 -10-52.7453 151.220   7
  -2 -19  -9 23.9942 156.263   7
  -2 -19  -8 12.0701 162.581   7
  -2 -19  -7-11.2597 173.505   7
  -2 -19  -6 2.89424 181.171   7
  -2 -19  -5-17.0947 184.597   7
  -2 -19  -4 69.2614 194.329   7
   2 -19   4-6.50016 160.319   7
  -2 -19  -3 62.9301 192.907   7
   2 -19   3 31.7532 191.315   7
  -2 -19  -2 2.15357 186.793   7
   2 -19   2 29.5713 191.302   7
   2 -19   1 40.3348 194.999   7
  -2 -19  -1 65.0797 195.492   7
   2 -19   0 114.427 210.001   7
  -2 -19   0 609.231 230.345   7
   2 -19  -1-25.0703 196.742   7
  -2 -19   1 1.83744 182.467   7
   2 -19  -2-12.4592 202.158   7
  -2 -19   2-21.0164 174.829   7
  -2 -19   3 49.5336 179.747   7
   2 -19  -3-5.13720 221.412   7
   2 -19  -4-11.2830 199.308   7
   2 -19  -5 131.884 209.793   7
   2 -19  -6 134.515 221.324   7
   2 -19  -7 89.8403 193.710   7
   2 -19  -8 1.26161 182.125   7
  -2  19  -8-161.178 239.482   6
   2 -19  -9-16.0262 154.079   7
  -2  19  -9 104.906 222.768   6
   2 -19 -10-47.3005 156.477   7
  -2  19 -10 335.534 243.273   6
  -2  19 -11 54.5107 226.711   6
   2 -19 -11-7.10997 124.391   7
   2 -19 -12-151.390 118.842   7
  -2  19 -12 118.242 206.909   6
  -2  19 -13-7.96573 189.168   6
  -2  19 -14 412.834 182.198   6
  -2  19 -15 498.554 162.528   6
  -2 -20  -9-10.7947 136.762   7
  -2 -20  -8-23.3952 151.727   7
  -2 -20  -7 31.4183 157.430   7
  -2 -20  -6 66.4172 170.974   7
  -2 -20  -5-23.4014 169.131   7
  -2 -20  -4 44.9880 171.408   7
   2 -20   3-53.9206 162.918   7
  -2 -20  -3 24.6351 170.754   7
   2 -20   2 7.62434 167.641   7
  -2 -20  -2-49.5015 173.932   7
  -2 -20  -1-55.7404 180.129   7
   2 -20   1-4.71220 169.108   7
   2 -20   0 429.465 220.649   7
  -2 -20   0 2417.62 478.414   7
  -2 -20   1 23.4630 175.380   7
   2 -20  -1-138.927 207.066   7
   2 -20  -2 3706.57 401.605   7
  -2 -20   2-18.6239 162.724   7
  -2 -20   3 68.5272 160.515   7
   2 -20  -3-36.5548 190.003   7
   2 -20  -4 6.74003 189.981   7
   2 -20  -5-11.4710 178.640   7
   2 -20  -6-187.903 192.892   7
   2 -20  -7 18.6159 157.440   7
   2 -20  -8-23.0785 148.580   7
   2 -20  -9-36.3922 148.877   7
  -2  20 -10-78.7681 167.593   6
   2 -20 -10 5.36442 128.711   7
  -2  20 -11 154.301 164.042   6
   2 -20 -11 89.5990 108.191   7
  -2  20 -12 983.813 204.772   6
   2  21 -11 60.1895 51.6673   4
  -2 -21  -7-31.9250 139.917   7
  -2 -21  -6 27.2354 146.198   7
  -2 -21  -5 1.49281 140.611   7
  -2 -21  -4-49.8373 156.726   7
  -2 -21  -3-76.5536 162.389   7
   2 -21   3-17.5609 121.115   7
   2 -21   2-13.4390 134.862   7
  -2 -21  -2 612.619 178.100   7
   2 -21   1 8.53901 148.949   7
  -2 -21  -1 12.4561 147.647   7
   2 -21   0 77.7661 163.866   7
  -2 -21   0 644.424 225.459   7
   2 -21  -1-75.0523 164.346   7
  -2 -21   1 249.716 178.545   7
   2 -21  -2 0.39158 165.636   7
   2 -21  -3 301.959 182.885   7
   2 -21  -4-60.5312 166.387   7
   2 -21  -5 29.9771 147.925   7
   2 -21  -6-4.39888 152.034   7
   2 -21  -7-41.6141 134.899   7
   2 -21  -8 3.64677 130.320   7
   2 -21  -9 67.8964 112.495   7
   2 -21 -10 30.8987 88.8341   7
   2 -22   2 1.42548 94.2173   7
   2 -22   1 15.5367 108.402   7
   2 -22   0 49.3377 124.134   7
   2 -22  -1 12.7680 132.718   7
   2 -22  -2-99.4481 137.369   7
   2 -22  -3 2533.99 214.241   7
   2 -22  -4 30.4255 158.670   7
   2 -22  -5-37.0766 119.630   7
   2 -22  -6 67.8548 118.166   7
   2 -22  -7-80.6563 107.452   7
   2 -22  -8 59.8535 86.5821   7
  -3   0   0 25.6039 156.750   2
  -3   0  -1 538.698 197.774   2
  -3   0  -2 2327.88 325.880   2
  -3   0  -3 151.649 126.721   1
  -3   0  -3 240.385 230.187   2
  -3   0  -4 5519.64 538.480   2
  -3   0  -4 3595.69 210.371   1
  -3   0  -5 9256.99 692.887   2
  -3   0  -6 150.555 250.641   2
  -3   0  -7 296.631 262.172   2
  -3   0  -8 17082.5 1082.97   2
  -3   0  -9 7588.13 782.011   2
  -3   0 -10 116.598 274.911   2
  -3   0 -11 1546.84 482.864   2
  -3   0 -12 94.2623 321.613   2
  -3   0 -13-128.823 319.432   2
   3   0 -14 1798.07 218.591   3
  -3   0 -14 1792.88 208.937   3
  -3   0 -14 1518.36 543.112   2
  -3   0 -15 20285.5 604.748   3
   3   0 -15 19350.5 605.777   3
   3   0 -16 84.9198 153.078   3
  -3   0 -16 46.6975 326.915   2
  -3   0 -16 8.87823 140.100   3
   3   0 -17-35.2014 148.855   3
  -3   0 -17 11.7953 138.189   3
  -3   0 -18 61.1828 147.169   3
   3   0 -18 80.1953 147.712   3
   3   0 -19-59.1651 145.890   3
  -3   0 -19-30.2034 143.433   3
  -3   0 -20 4119.85 327.041   3
   3   0 -20 4437.61 329.869   3
  -3   0 -21-2.41665 126.396   3
   3   0 -21 13.2185 121.206   3
  -3   0 -22 80.9830 113.997   3
   3   0 -22 33.2842 125.434   3
  -3   0 -23 372.428 122.612   3
  -3   0 -24 738.326 115.013   3
  -3  -1 -24 318.988 88.1376   3
  -3  -1 -23 311.225 110.970   3
   3   1 -23 348.810 135.853   3
  -3  -1 -22 792.308 152.381   3
   3   1 -22 854.754 167.819   3
  -3  -1 -21 5591.95 340.636   3
   3   1 -21 6294.14 367.908   3
  -3  -1 -20 3810.10 515.739   3
   3   1 -20 1675.43 218.063   3
   3   1 -19 1010.23 193.543   3
  -3  -1 -19 947.620 193.069   3
  -3  -1 -18 2662.11 271.902   3
   3   1 -18 3025.85 281.212   3
  -3  -1 -17 3250.26 311.297   3
   3   1 -17 3538.50 306.800   3
  -3  -1 -16 376.176 155.472   3
  -3  -1 -16 263.307 376.265   2
   3   1 -16 209.301 154.089   3
   3   1 -15 1236.97 209.818   3
  -3  -1 -15 1207.74 203.676   3
  -3  -1 -15 1341.08 539.899   2
  -3  -1 -14 452.116 366.048   2
  -3  -1 -14 375.533 147.415   3
   3   1 -14 348.611 154.812   3
   3   1 -13 1711.62 237.062   3
  -3  -1 -13 1618.98 540.458   2
  -3  -1 -12 10459.0 1100.28   2
  -3  -1 -11 720.000 388.631   2
  -3  -1 -10 7899.93 846.949   2
  -3  -1  -9 16278.3 1107.89   2
  -3  -1  -8 311.241 305.331   2
  -3  -1  -7 659.277 324.742   2
  -3  -1  -6 39826.6 1475.03   2
  -3  -1  -5 10580.8 778.762   2
  -3  -1  -4 49734.8 1489.80   2
  -3  -1  -3 114516. 2131.80   2
  -3   1   1 5785.70 303.196   2
  -3   1   0 784.257 187.120   2
  -3   1  -1 6154.50 409.811   2
  -3   1  -1 6532.52 465.909   1
  -3   1  -2 524.031 210.071   2
  -3   1  -2 448.529 196.483   1
  -3   1  -3 113551. 1972.84   2
  -3   1  -3 117432. 1632.18   1
  -3   1  -4 49969.6 1439.55   2
  -3   1  -4 49726.5 1018.11   1
  -3   1  -5 10645.8 462.594   1
  -3   1  -5 10899.9 734.986   2
  -3   1  -6 40632.7 1468.21   2
  -3   1  -7 668.157 325.935   2
  -3   1  -8 595.057 351.770   2
  -3   1  -9 17255.2 1146.89   2
  -3   1 -10 8760.27 922.708   2
  -3   1 -11 548.086 370.728   2
  -3   1 -12 11188.7 1071.36   2
  -3   1 -13 1433.78 203.132   3
  -3   1 -13 1466.47 509.068   2
  -3   1 -14 422.633 371.559   2
  -3   1 -14 462.465 146.519   3
   3  -1 -14 366.597 152.087   3
   3  -1 -15 1290.67 204.930   3
  -3   1 -15 1255.49 538.426   2
  -3   1 -15 1301.63 196.969   3
   3  -1 -16 268.564 150.531   3
  -3   1 -16 210.617 141.350   3
   3  -1 -17 3708.33 302.230   3
  -3   1 -17 3720.80 304.521   3
  -3   1 -18 2992.81 273.781   3
   3  -1 -18 2779.34 278.539   3
  -3   1 -19 934.910 191.035   3
   3  -1 -19 872.168 187.110   3
  -3   1 -20 1659.60 214.192   3
   3  -1 -20 1579.03 208.059   3
  -3   1 -21 6449.87 343.361   3
   3  -1 -21 5959.12 337.914   3
  -3   1 -22 796.811 169.419   3
   3  -1 -22 592.719 152.634   3
  -3   1 -23 383.724 118.130   3
  -3   1 -24 347.058 98.9084   3
  -3   1 -25-17.3804 56.6053   3
  -3  -2 -23 496.772 107.853   3
   3   2 -23 487.708 133.820   3
   3   2 -22 287.288 135.391   3
  -3  -2 -22 321.616 132.576   3
  -3  -2 -21 1217.72 186.184   3
   3   2 -21 1090.65 188.318   3
  -3  -2 -20 333.422 170.734   3
   3   2 -20 470.622 156.797   3
  -3  -2 -19 609.785 175.742   3
   3   2 -19 465.062 155.412   3
   3   2 -18 7984.01 428.732   3
  -3  -2 -18 9163.27 427.862   3
  -3  -2 -17 48.0022 327.857   2
  -3  -2 -17 23.2708 145.477   3
   3   2 -17 37.4385 140.332   3
  -3  -2 -16 509.704 421.915   2
   3   2 -16 474.126 169.206   3
  -3  -2 -16 467.505 161.691   3
   3   2 -15 5383.21 354.741   3
  -3  -2 -15 5538.83 337.693   3
  -3  -2 -15 4839.98 876.534   2
  -3  -2 -14 1315.43 559.850   2
  -3  -2 -14 1332.57 194.692   3
   3   2 -14 1337.75 195.836   3
  -3   2  13 3234.72 778.092   1
   3   2 -13 2590.03 237.157   3
  -3  -2 -13 2707.30 621.023   2
  -3   2  12 55981.2 2664.70   1
  -3  -2 -12 47800.8 2205.03   2
  -3  -2 -11 6994.46 840.295   2
  -3  -2 -10 919.521 377.968   2
  -3  -2  -9 20346.5 1241.84   2
  -3  -2  -8 10305.3 896.951   2
  -3  -2  -7 1855.80 443.416   2
  -3  -2  -6 1548.91 391.416   2
  -3  -2  -5 503.774 323.875   2
  -3  -2  -4 1677.51 367.438   2
  -3   2   1 9748.89 657.796   1
  -3   2   0 54262.5 1108.72   2
  -3   2   0 53350.1 1376.28   1
  -3   2  -1 8938.68 595.995   1
  -3   2  -1 9663.75 542.657   2
  -3   2  -2 7328.35 517.942   1
  -3   2  -2 7902.08 550.854   2
  -3   2  -3 7337.35 577.614   2
  -3   2  -3 7433.46 510.446   1
  -3   2  -4 1896.71 291.406   1
  -3   2  -4 1663.79 358.680   2
  -3   2  -5 496.491 210.649   1
  -3   2  -5 669.818 306.850   2
  -3   2  -6 1831.22 410.894   2
  -3   2  -7 1944.55 433.614   2
  -3   2  -8 11163.9 941.001   2
  -3   2  -9 20659.4 1287.42   2
  -3   2 -10 1034.73 400.641   2
  -3   2 -11 6893.09 870.743   2
  -3   2 -12 47837.3 2203.55   2
  -3   2 -13 2539.28 225.783   3
  -3   2 -13 2432.18 630.742   2
  -3   2 -14 1214.85 188.045   3
   3  -2 -14 1174.28 189.928   3
  -3   2 -14 1271.54 522.896   2
   3  -2 -15 4791.45 320.076   3
  -3   2 -15 5347.89 323.968   3
   3  -2 -16 400.718 139.702   3
  -3   2 -16 488.294 158.541   3
   3  -2 -17 18.6713 129.996   3
  -3   2 -17 26.1636 141.785   3
  -3   2 -18 8368.52 413.619   3
   3  -2 -18 8367.18 423.273   3
  -3   2 -19 600.807 171.723   3
   3  -2 -19 415.095 142.399   3
   3  -2 -20 431.365 144.552   3
  -3   2 -20 509.151 159.070   3
  -3   2 -21 1108.27 179.133   3
   3  -2 -21 962.703 175.840   3
  -3   2 -22 324.906 130.246   3
  -3   2 -23 582.780 131.280   3
  -3   2 -24 1622.34 140.619   3
  -3   2 -25 102.882 62.6293   3
   3   3 -23 638.853 143.577   3
  -3  -3 -22 143.167 114.095   3
   3   3 -22 140.308 127.255   3
  -3  -3 -21 191.376 126.524   3
   3   3 -21 210.246 134.400   3
   3   3 -20 467.864 160.875   3
  -3  -3 -20 795.825 176.675   3
  -3  -3 -19 332.860 151.221   3
   3   3 -19 392.752 145.260   3
  -3  -3 -18 4293.77 306.801   3
   3   3 -18 4081.54 316.789   3
   3   3 -17 757.854 188.006   3
  -3  -3 -17 842.054 187.237   3
  -3  -3 -17 592.427 464.049   2
   3   3 -16 341.204 162.231   3
  -3  -3 -16 415.453 426.071   2
  -3  -3 -16 528.255 157.304   3
   3   3 -15 1422.97 220.325   3
  -3  -3 -15 1188.56 198.011   3
  -3  -3 -14 3686.32 286.412   3
   3   3 -14 3821.57 298.907   3
  -3  -3 -14 4005.64 800.870   2
  -3   3  13 6605.50 995.845   1
   3   3 -13 6057.03 337.013   3
  -3  -3 -13 6219.65 882.773   2
  -3   3  12 16243.0 1446.04   1
  -3  -3 -12 13578.7 1232.98   2
  -3   3  11 262.816 397.343   1
  -3  -3 -11 262.282 335.339   2
  -3   3  10 1640.36 559.132   1
  -3  -3 -10 1570.56 455.829   2
  -3  -3  -9 1405.69 447.807   2
  -3   3   9 1500.03 543.638   1
  -3  -3  -8 845.789 402.708   2
  -3   3   8 769.479 435.215   1
  -3  -3  -7 1754.45 472.055   2
  -3  -3  -6 77829.6 2262.57   2
  -3   3   5 20748.8 1191.80   1
  -3   3   4 2386.36 458.427   1
  -3   3   3 1957.51 432.467   1
  -3   3   2 3540.47 496.377   1
  -3   3   1 1586.44 364.595   1
  -3   3   0 1165.03 324.152   1
  -3   3  -1 1729.86 345.171   1
  -3   3  -2 3471.80 427.882   1
  -3   3  -2 3871.18 434.126   2
  -3   3  -3 1877.50 362.633   2
  -3   3  -3 1735.89 335.715   1
  -3   3  -4 2435.07 361.888   1
  -3   3  -4 2425.68 410.809   2
  -3   3  -5 20429.3 916.528   1
  -3   3  -5 19997.2 1025.27   2
  -3   3  -6 80982.5 1817.68   1
  -3   3  -6 77976.6 2099.64   2
   3  -3  -7 796.739 140.839   2
  -3   3  -7 1586.42 429.561   2
  -3   3  -8 739.379 353.523   2
  -3   3  -9 1753.20 491.904   2
  -3   3 -10 1617.68 458.975   2
  -3   3 -11 259.812 318.690   2
  -3   3 -12 13219.0 1183.80   2
  -3   3 -13 5621.62 316.066   3
   3  -3 -14 3266.96 269.717   3
  -3   3 -14 3626.88 279.333   3
  -3   3 -15 1270.72 195.890   3
   3  -3 -15 1037.40 183.522   3
  -3   3 -16 405.853 154.839   3
   3  -3 -16 418.275 150.974   3
  -3   3 -17 854.925 186.539   3
   3  -3 -17 813.035 172.373   3
  -3   3 -18 4052.27 301.579   3
   3  -3 -18 3772.57 291.307   3
  -3   3 -19 227.111 140.630   3
   3  -3 -19 241.085 126.587   3
  -3   3 -20 694.139 172.199   3
   3  -3 -20 568.800 164.477   3
   3  -3 -21 151.577 137.226   3
  -3   3 -21 184.876 134.177   3
  -3   3 -22 170.991 116.003   3
  -3   3 -23 761.685 133.734   3
  -3   3 -24 1387.99 132.558   3
  -3   3 -25 152.943 64.9444   3
   3   4 -23 756.710 163.012   3
   3   4 -22 112.971 124.732   3
   3   4 -21 284.392 134.905   3
  -3  -4 -21 114.047 112.709   3
  -3  -4 -20 675.000 157.023   3
   3   4 -20 978.969 182.547   3
  -3  -4 -19 517.468 169.155   3
   3   4 -19 165.265 141.417   3
   3   4 -18 5183.11 344.277   3
  -3  -4 -18 5156.52 329.150   3
  -3  -4 -17 193.787 144.236   3
  -3  -4 -17 152.472 325.708   2
   3   4 -17 230.568 144.600   3
   3   4 -16 30.5226 145.976   3
  -3  -4 -16 130.397 134.052   3
  -3  -4 -16 198.348 343.901   2
  -3  -4 -15 9418.11 415.164   3
   3   4 -15 9679.77 449.288   3
   3   4 -14 2226.53 378.991   3
  -3  -4 -14 1509.91 577.947   2
  -3  -4 -14 1209.64 272.246   3
   3   4 -13 2488.91 229.880   3
  -3  -4 -13 2105.62 652.111   2
  -3   4  13 2452.46 710.369   1
  -3   4  12 32366.9 2020.62   1
  -3  -4 -12 27681.3 1732.04   2
  -3   4  11 5797.04 907.544   1
  -3  -4 -11 4503.93 756.153   2
  -3  -4 -10 3335.10 638.646   2
  -3   4  10 3636.61 700.683   1
  -3  -4  -9 15649.2 1230.85   2
  -3   4   9 15872.4 1299.18   1
  -3  -4  -8 1000.12 481.093   2
  -3   4   8 776.350 432.664   1
  -3  -4  -7 375.162 411.870   2
  -3   4   7 154.968 324.854   1
  -3   4   6 2637.74 543.775   1
  -3   4   5 2179.57 494.611   1
  -3   4   4 6515.99 720.419   1
  -3   4   3 5580.16 619.104   1
  -3   4   2 2093.89 416.338   1
  -3   4   1 2723.43 445.371   1
  -3   4   0 1943.18 368.430   1
  -3   4  -1 2733.41 429.512   1
  -3   4  -2 1888.03 371.252   1
  -3   4  -3 5677.77 564.814   1
  -3   4  -4 6949.63 626.800   1
  -3   4  -5 2107.75 385.766   1
  -3   4  -5 2356.51 444.917   2
   3  -4  -6 1894.91 234.531   2
  -3   4  -6 2980.25 457.015   1
  -3   4  -6 2773.56 482.917   2
  -3   4  -7 263.641 328.565   2
   3  -4  -7 112.876 128.717   2
  -3   4  -8 929.380 425.618   2
  -3   4  -9 15506.1 1162.06   2
  -3   4 -13 2090.87 223.188   3
  -3   4 -14 1533.27 200.294   3
   3  -4 -14 935.640 170.775   3
  -3   4 -15 10105.5 429.443   3
   3  -4 -15 7785.83 389.499   3
   3  -4 -16 152.082 132.045   3
  -3   4 -16 126.689 142.216   3
   3  -4 -17 152.006 119.539   3
  -3   4 -17 193.901 139.574   3
  -3   4 -18 5008.35 323.231   3
   3  -4 -18 4436.78 296.380   3
   3  -4 -19 384.044 169.836   3
  -3   4 -19 256.627 149.726   3
   3  -4 -20 1106.95 211.264   3
  -3   4 -20 717.482 168.038   3
  -3   4 -21 226.237 124.097   3
  -3   4 -22 341.853 135.767   3
  -3   4 -23 524.040 117.988   3
  -3   4 -24 478.735 96.8658   3
  -3   4 -25 199.074 63.1199   3
   3   5 -22 258.735 121.328   3
   3   5 -21 933.640 169.894   3
   3   5 -20 862.544 170.866   3
   3   5 -19 180.362 132.595   3
   3   5 -18 903.018 192.882   3
  -3  -5 -17 3107.02 269.032   3
   3   5 -17 3314.67 285.036   3
  -3  -5 -16 294.214 377.295   2
   3   5 -16 975.175 444.421   6
   3   5 -16 551.064 172.980   3
   3   5 -15-56.5261 332.395   6
  -3  -5 -15 125.843 330.548   2
   3   5 -15 361.112 207.320   3
   3   5 -14 2304.80 242.660   3
  -3  -5 -14 2302.77 660.235   2
  -3  -5 -13 1187.31 503.157   2
   3   5 -13 1012.51 179.534   3
  -3  -5 -12 2131.54 587.633   2
   3   5 -12 1890.71 215.330   3
  -3   5  12 2430.76 652.027   1
  -3   5  11 1385.56 511.333   1
  -3  -5 -11 1553.91 526.382   2
  -3  -5 -10 6824.27 910.433   2
  -3   5  10 7202.51 943.110   1
  -3  -5  -9 59480.2 2425.22   2
  -3   5   9 63575.5 2527.41   1
  -3  -5  -8 2628.33 594.643   2
  -3   5   8 2852.69 612.211   1
  -3  -5  -7 1451.30 484.995   2
  -3   5   7 1645.42 515.374   1
  -3   5   6 1983.98 526.506   1
  -3   5   5 500.767 336.113   1
  -3   5   4 3118.98 547.903   1
  -3   5   3 19343.4 1125.94   1
  -3   5   2 469.732 302.933   1
  -3   5   1 4129.21 550.428   1
  -3   5   0 10.9832 251.948   1
  -3   5  -1 3927.67 531.638   1
  -3   5  -2 426.642 296.145   1
  -3   5  -3 19081.4 1049.15   1
  -3   5  -4 3083.60 497.851   1
  -3   5  -5 507.324 307.675   1
  -3   5  -6 2269.79 455.695   1
   3  -5  -7 1007.44 243.486   2
  -3   5 -12 1915.89 204.261   3
  -3   5 -13 971.532 171.655   3
  -3   5 -14 2216.48 228.218   3
  -3   5 -15 371.107 167.338   3
  -3   5 -16 525.126 158.806   3
  -3   5 -17 3404.74 280.754   3
  -3   5 -18 850.384 185.159   3
  -3   5 -18 162.097 374.550   6
  -3   5 -19 330.421 141.959   3
  -3   5 -19-0.04892 351.682   6
  -3   5 -20 854.218 169.960   3
  -3   5 -21 1049.89 165.977   3
  -3   5 -22 314.699 116.879   3
  -3   5 -23 81.4581 92.4016   3
  -3   5 -24 115.987 79.6151   3
   3   6 -22 53.0247 110.722   3
   3   6 -21 36.5066 113.158   3
   3   6 -20 1018.50 175.877   3
   3   6 -19 377.924 144.908   3
   3   6 -18-88.1170 129.221   3
   3   6 -17-2.46936 346.416   6
   3   6 -17 234.562 138.675   3
  -3  -6 -16 247.193 411.021   2
   3   6 -16 141.093 133.807   3
   3   6 -15 12479.1 503.109   3
  -3  -6 -15 9378.57 1239.52   2
   3   6 -14 1589.77 214.277   3
  -3  -6 -14 1134.00 503.699   2
   3   6 -13 759.721 165.047   3
  -3  -6 -13 391.006 377.737   2
  -3  -6 -12 708.794 450.559   2
  -3   6  12 589.616 413.637   1
   3   6 -12 847.723 169.694   3
  -3   6  11 3117.20 727.457   1
  -3  -6 -11 2970.14 705.914   2
  -3   6  10 2838.12 672.069   1
  -3  -6 -10 2725.33 645.081   2
  -3   6   9 31330.1 1813.04   1
  -3  -6  -9 30937.9 1861.40   2
  -3  -6  -8 2174.53 595.264   2
  -3   6   8 2373.81 582.950   1
  -3   6   7 9990.41 1019.88   1
  -3   6   6 12450.9 1077.87   1
  -3   6   5 4083.17 667.164   1
  -3   6   4 4302.91 650.157   1
  -3   6   3 51786.8 1918.43   1
  -3   6   2 4897.08 620.656   1
  -3   6   1 635.590 353.148   1
  -3   6   0 6.05102 259.778   1
  -3   6  -1 659.714 330.450   1
  -3   6  -2 5009.77 627.056   1
  -3   6  -3 53256.6 1859.60   1
  -3   6  -4 4275.13 592.620   1
  -3   6  -5 4273.37 606.079   1
  -3   6  -6 12973.2 981.966   1
   3  -6  -7 9026.17 682.349   2
  -3   6 -12 619.091 147.902   3
  -3   6 -13 606.243 145.708   3
  -3   6 -14 1491.78 198.648   3
  -3   6 -15 12953.9 476.189   3
  -3   6 -16 190.635 144.477   3
  -3   6 -17 275.940 141.331   3
  -3   6 -17 107.561 419.926   6
  -3   6 -18 833.445 427.505   6
  -3   6 -18-37.1629 129.784   3
  -3   6 -19 149.157 396.349   6
  -3   6 -19 424.099 152.375   3
  -3   6 -20-63.5950 295.767   6
  -3   6 -20 807.456 157.356   3
  -3   6 -21 51.6616 105.502   3
  -3   6 -22 74.0491 102.056   3
  -3   6 -23 417.578 99.5219   3
  -3   6 -24 266.422 74.3184   3
   3   7 -22 846.192 154.811   3
   3   7 -21 412.100 134.078   3
   3   7 -20 80.7500 121.728   3
   3   7 -19-159.120 307.947   6
   3   7 -19 301.119 127.534   3
   3   7 -18-856.059 366.975   6
   3   7 -18 653.770 168.840   3
   3   7 -17 727.643 175.800   3
   3   7 -17-20.3994 361.107   6
   3   7 -16 1420.82 202.488   3
   3   7 -16 890.369 449.439   6
  -3  -7 -15 1099.56 505.221   2
   3   7 -15 1590.04 209.836   3
   3   7 -14 34.6505 384.120   6
   3   7 -14 827.726 182.529   3
  -3  -7 -14 869.743 492.925   2
   3   7 -13 59.3950 122.776   3
  -3  -7 -13 36.0687 350.868   2
  -3  -7 -12 1877.57 620.700   2
   3   7 -12 1331.38 193.716   3
  -3   7  12 1639.72 590.727   1
   3   7 -12 84.7530 357.480   6
  -3  -7 -11 585.553 485.040   2
   3   7 -11 660.000 149.300   3
  -3   7  11 776.748 490.345   1
  -3  -7 -10 3844.57 814.763   2
  -3   7  10 4113.37 777.629   1
  -3  -7  -9 17759.9 1541.22   2
  -3   7   9 17319.5 1450.92   1
  -3   7   8 1555.09 518.049   1
  -3   7   7 2633.19 614.149   1
  -3   7   6 37479.4 1900.55   1
  -3   7   5 13516.3 1152.59   1
  -3   7   4 4190.79 669.444   1
  -3   7   3 1202.04 472.067   1
  -3   7   2 728.121 380.149   1
  -3   7   1 4360.09 633.810   1
  -3   7   0 854.012 369.468   1
  -3   7  -1 4614.83 667.117   1
  -3   7  -2 793.188 388.056   1
  -3   7  -3 1294.30 452.979   1
  -3   7  -4 4588.11 655.311   1
  -3   7  -5 14455.3 1103.47   1
  -3   7  -6 40023.8 1818.11   1
  -3   7 -11 517.561 148.441   3
  -3   7 -12 1285.12 169.107   3
  -3   7 -13 36.8765 112.031   3
  -3   7 -14 770.800 162.812   3
  -3   7 -15 1758.93 209.565   3
  -3   7 -16 1422.31 191.502   3
  -3   7 -17 436.529 154.611   3
  -3   7 -17-67.6434 385.973   6
  -3   7 -18 1920.94 234.487   3
  -3   7 -18 1108.82 615.770   6
  -3   7 -19 0.48144 381.206   6
  -3   7 -19 382.653 140.816   3
  -3   7 -20 1.64507 290.711   6
  -3   7 -20 22.6216 110.288   3
  -3   7 -21 434.769 125.259   3
  -3   7 -22 373.891 110.331   3
  -3   7 -23 28.1635 71.5457   3
  -3   7 -24 822.725 88.5679   3
   3   8 -21 80.2672 107.908   3
   3   8 -20 261.961 130.329   3
   3   8 -19 192.181 307.842   6
   3   8 -19 27.8408 113.515   3
   3   8 -18 2134.61 218.010   3
   3   8 -18-134.474 362.510   6
   3   8 -17-7.29690 124.385   3
   3   8 -17-74.9564 363.252   6
   3   8 -16-19.1983 377.209   6
   3   8 -16 549.260 156.217   3
  -3  -8 -15 9398.20 1284.51   2
   3   8 -15 14762.6 530.122   3
   3   8 -14 1638.89 203.534   3
  -3  -8 -14 1164.31 559.010   2
  -3  -8 -13 817.118 459.469   2
   3   8 -13 880.524 169.961   3
  -3  -8 -12 35523.1 2358.83   2
   3   8 -12 30336.2 699.096   3
   3   8 -11 5758.60 312.150   3
  -3  -8 -11 7745.02 1130.71   2
  -3   8  11 6735.62 1091.27   1
  -3  -8 -10 311.974 520.635   2
  -3   8  10 381.468 424.174   1
  -3   8   9 2880.25 696.636   1
  -3  -8  -9 2728.92 740.658   2
  -3   8   8 4597.71 800.701   1
  -3   8   7 7283.83 951.697   1
  -3   8   6 2273.49 585.138   1
  -3   8   5 2460.47 609.542   1
  -3   8   4 6109.17 819.967   1
  -3   8   3 10898.5 1015.89   1
  -3   8   2 1681.30 499.895   1
  -3   8   1 6958.09 855.492   1
  -3   8   0 14914.0 1141.02   1
  -3   8  -1 6709.95 803.614   1
  -3   8  -2 2024.08 516.331   1
  -3   8  -3 11432.4 1044.46   1
  -3   8  -4 6536.09 796.792   1
  -3   8  -5 2548.65 547.897   1
  -3   8  -6 2232.44 520.424   1
  -3   8 -11 5130.84 282.560   3
  -3   8 -12 28837.5 648.000   3
  -3   8 -13 725.218 154.901   3
  -3   8 -14 1354.03 183.958   3
  -3   8 -15 14716.5 491.072   3
  -3   8 -16 144.086 457.037   6
  -3   8 -16 583.241 150.141   3
  -3   8 -17-24.5466 118.168   3
  -3   8 -17 2.18799 433.076   6
  -3   8 -18 699.788 523.836   6
  -3   8 -18 2463.77 225.272   3
  -3   8 -19-0.06195 107.817   3
  -3   8 -19 100.089 325.176   6
  -3   8 -20 264.875 120.080   3
  -3   8 -20-33.7594 307.967   6
  -3   8 -21 29.2459 248.745   6
  -3   8 -21 71.7528 93.0064   3
  -3   8 -22 228.775 87.4795   3
  -3   8 -23 361.228 84.1344   3
   3   9 -20 28.4339 251.386   6
   3   9 -20 246.053 115.291   3
   3   9 -19 29.4444 304.964   6
   3   9 -19 804.432 154.621   3
   3   9 -18-196.935 360.511   6
   3   9 -18 5325.68 302.291   3
   3   9 -17 2763.09 239.402   3
   3   9 -17 23.6465 381.074   6
   3   9 -16 350.460 165.194   3
   3   9 -16 122.216 367.900   6
   3   9 -15 2141.58 231.296   3
   3   9 -15 1576.01 741.460   6
   3   9 -14 851.831 190.594   3
   3   9 -14 82.4757 391.922   6
  -3  -9 -14 543.012 486.084   2
   3   9 -13 1048.15 521.211   6
   3   9 -13 1930.93 218.290   3
  -3  -9 -13 1682.32 654.066   2
  -3  -9 -12 19246.6 1852.82   2
   3   9 -12 16500.1 524.337   3
  -3   9  11 310.564 391.199   1
  -3  -9 -11 155.158 404.893   2
   3   9 -11-22.6160 359.630   6
   3   9 -11 222.011 114.292   3
  -3  -9 -11 221.481 112.547   7
   3   9 -10 172.964 97.4985   3
  -3   9  10 192.029 360.574   1
  -3  -9 -10 171.932 496.704   2
  -3  -9  -9 8347.83 1218.82   2
  -3   9   9 8555.25 1129.84   1
  -3   9   8 259.589 403.365   1
  -3   9   7 4990.97 839.126   1
  -3   9   6 6698.16 894.214   1
  -3   9   5 845.643 422.635   1
  -3   9   4 2443.59 602.243   1
  -3   9   3 19316.7 1416.18   1
  -3   9   2 7352.54 912.410   1
  -3   9   1 159.263 323.895   1
  -3   9   0 129.067 323.610   1
  -3   9  -1-58.4594 351.742   1
  -3   9  -2 7574.97 920.583   1
  -3   9  -3 18975.4 1374.91   1
  -3   9  -4 2375.60 553.764   1
  -3   9  -5 714.169 404.368   1
  -3   9  -6 6948.31 870.388   1
  -3   9 -11 205.380 106.868   3
  -3   9 -12 15179.9 471.726   3
  -3   9 -13 1740.77 194.540   3
  -3   9 -14 991.735 176.882   3
  -3   9 -15 2070.81 212.553   3
  -3   9 -16-1.56414 380.262   6
  -3   9 -16 139.333 121.876   3
  -3   9 -17 235.317 436.538   6
  -3   9 -17 2646.18 221.451   3
  -3   9 -18 2269.23 541.487   6
  -3   9 -18 5644.67 292.284   3
  -3   9 -19-77.7968 340.340   6
  -3   9 -19 772.827 137.307   3
  -3   9 -20 288.331 104.524   3
  -3   9 -20-8.26398 273.563   6
  -3   9 -21 592.259 107.591   3
  -3   9 -21-12.4059 236.342   6
  -3   9 -22 122.821 74.9835   3
  -3   9 -23 64.7926 54.6508   3
   3  10 -20-7.04834 244.368   6
   3  10 -19 411.731 129.896   3
   3  10 -19 35.8152 287.492   6
   3  10 -18 4257.08 265.870   3
   3  10 -18-179.407 397.665   6
   3  10 -17 17963.4 830.925   6
   3  10 -17 53.8024 105.140   3
   3  10 -16 1855.11 203.142   3
   3  10 -16-80.6690 383.229   6
   3  10 -15 12218.0 454.139   3
   3  10 -15 18.7688 386.505   6
   3  10 -14 663.762 154.025   3
   3  10 -14 43.3487 407.327   6
  -3 -10 -13 107.795 389.777   2
   3  10 -13 237.760 121.203   3
   3  10 -13 276.285 435.996   6
   3  10 -12 3643.73 261.452   3
   3  10 -12 162.343 398.096   6
  -3 -10 -12 3987.08 935.467   2
  -3 -10 -12 101.845 126.348   7
  -3 -10 -11 3954.33 260.166   7
   3  10 -11 2417.52 209.320   3
  -3 -10 -11 3481.54 918.719   2
  -3  10  11 2820.13 766.530   1
  -3  10  10 1194.49 562.070   1
  -3 -10 -10 1241.60 680.965   2
   3  10  -9-46.3203 358.346   6
  -3 -10  -9-53.4968 142.709   7
   3  10  -8-21.2558 339.912   6
  -3  10   8 1131.73 561.133   1
  -3  10   7 628.795 446.430   1
  -3  10   6 4682.20 812.480   1
  -3  10   5 1718.62 521.198   1
  -3  10   4 4398.00 779.157   1
  -3  10   3 12005.7 1165.16   1
  -3  10   2 490.465 357.003   1
  -3  10   1 421.564 398.875   1
  -3  10   0 14061.0 1236.07   1
  -3  10  -1 311.902 353.584   1
  -3  10  -2 289.838 355.082   1
  -3  10  -3 11370.8 1136.73   1
  -3  10  -4 4346.31 750.979   1
  -3  10  -5 1628.31 519.974   1
  -3  10  -6 4494.99 760.879   1
   3 -10  -8-8.69552 200.639   7
   3 -10  -9-25.8972 154.897   7
   3 -10 -10-4.14061 147.071   7
   3 -10 -11-1.26600 138.587   7
  -3  10 -12 3444.14 228.094   3
  -3  10 -13 398.788 134.196   3
  -3  10 -14 509.268 140.813   3
  -3  10 -14 98.4080 392.139   6
  -3  10 -15 12173.0 428.475   3
  -3  10 -15 3435.99 614.233   6
  -3  10 -16-44.6111 376.273   6
  -3  10 -16 1710.32 187.624   3
  -3  10 -17 132.232 114.813   3
  -3  10 -17 32.6160 367.231   6
  -3  10 -18 4635.35 257.762   3
  -3  10 -18 450.644 392.712   6
  -3  10 -19 442.477 116.872   3
  -3  10 -19-87.9992 304.713   6
  -3  10 -20 400.768 99.9892   3
  -3  10 -21 117.800 232.563   6
  -3  10 -21 1.96022 67.2372   3
  -3  10 -22-29.8493 56.0501   3
   3  11 -19 168.572 274.476   6
   3  11 -18-174.445 344.912   6
   3  11 -18 54.5100 112.675   3
   3  11 -17-6.79925 336.532   6
   3  11 -17 1729.35 202.709   3
   3  11 -16 827.184 158.271   3
   3  11 -16-146.059 369.367   6
   3  11 -15 10.6890 399.615   6
   3  11 -15 357.261 128.937   3
   3  11 -14 930.503 160.533   3
   3  11 -14-2.67419 388.907   6
   3  11 -13-39.2838 402.592   6
   3  11 -13 649.950 142.302   3
  -3 -11 -13 522.056 488.352   2
  -3 -11 -13-16.6702 118.930   7
   3  11 -12 293.057 152.324   3
  -3 -11 -12 106.655 443.238   2
  -3 -11 -12 131.334 138.588   7
  -3 -11 -11 9.01962 128.537   7
   3  11 -11 27.4295 392.624   6
  -3 -11 -11 218.431 470.757   2
   3  11 -10 1189.16 474.122   6
  -3  11  10 325.956 384.667   1
  -3 -11 -10 30.0631 139.273   7
  -3 -11 -10 373.976 509.645   2
  -3 -11  -9 2.96381 130.275   7
   3  11  -9 9.46031 362.435   6
  -3 -11  -8 17.6371 134.984   7
   3  11  -8 34.8382 361.286   6
  -3 -11  -7 22.5691 135.982   7
  -3  11   7 863.153 508.732   1
  -3 -11  -6-35.4667 148.495   7
   3  11  -6-2.60001 334.162   6
  -3  11   6 62.1203 350.569   1
  -3  11   5 565.026 382.733   1
  -3  11   4 4328.24 767.273   1
  -3  11   3 29961.8 1937.84   1
  -3  11   2 2550.42 622.798   1
  -3  11   1 2120.55 584.945   1
  -3  11   0 2033.89 586.728   1
  -3  11  -1 2230.99 590.860   1
  -3  11  -2 2122.39 592.739   1
  -3  11  -3 29346.3 1891.56   1
  -3  11  -4 3892.69 736.165   1
  -3  11  -5 521.008 390.605   1
   3 -11  -6 6.43982 180.493   7
   3 -11  -7 26.8605 177.995   7
   3 -11  -8-24.7365 174.908   7
   3 -11  -9 58.5212 174.660   7
   3 -11 -10-17.3002 167.647   7
   3 -11 -11 48.6694 160.094   7
   3 -11 -12-18.2475 154.116   7
  -3  11 -13 125.401 375.299   6
  -3  11 -13 623.471 142.303   3
  -3  11 -14 789.333 141.238   3
  -3  11 -14 178.532 378.951   6
  -3  11 -15 448.565 127.941   3
  -3  11 -15 1651.96 488.979   6
  -3  11 -16 327.940 364.649   6
  -3  11 -16 674.252 137.416   3
  -3  11 -17 1389.22 162.000   3
  -3  11 -18 76.6359 94.5611   3
  -3  11 -18 51.3871 319.930   6
  -3  11 -19-64.8265 299.364   6
  -3  11 -19 37.2032 79.3659   3
  -3  11 -20 30.8855 291.588   6
  -3  11 -20 404.737 84.0618   3
  -3  11 -21 107.718 229.509   6
  -3  11 -21 1726.78 114.107   3
   3  12 -19-95.3774 265.045   6
   3  12 -18-136.804 308.537   6
   3  12 -17 2544.51 673.586   6
   3  12 -16-9.85828 349.588   6
   3  12 -16 546.889 130.355   4
   3  12 -15 42.0716 378.673   6
   3  12 -15 2440.36 208.882   3
   3  12 -14 54.2895 124.963   3
   3  12 -14 59.5206 371.814   6
   3  12 -13 66.2830 416.004   6
  -3 -12 -13-1.46972 132.498   7
   3  12 -12 195.672 428.577   6
  -3 -12 -12-22.4692 150.110   7
  -3 -12 -11 13.8165 144.382   7
   3  12 -11-138.220 419.770   6
   3  12 -10 344.492 479.366   6
  -3 -12 -10 647.973 520.560   2
  -3 -12 -10 102.289 203.312   7
  -3  12  10 802.413 491.728   1
  -3 -12  -9 7.03031 152.301   7
   3  12  -9 195.777 465.520   6
  -3 -12  -8 1108.15 204.732   7
   3  12  -8-77.1312 380.227   6
  -3  12   8 1087.71 595.640   1
  -3 -12  -7 15.3186 148.035   7
  -3  12   7 770.353 497.294   1
  -3 -12  -6 539.397 191.366   7
   3  12  -6 0.09949 335.662   6
  -3  12   6 922.950 476.751   1
   3  12  -5-10.9227 355.712   6
  -3 -12  -5 95.6408 180.612   7
  -3  12   5 739.067 450.055   1
  -3 -12  -4-28.0954 158.381   7
   3  12  -4 1418.40 373.270   6
  -3  12   4 848.897 498.245   1
  -3 -12  -3-62.4901 153.485   7
  -3  12   3 10794.9 1226.99   1
  -3  12   2 2599.12 645.306   1
  -3 -12  -2-57.0725 155.836   7
  -3  12   1 593.515 453.382   1
  -3  12   0 4478.21 825.873   1
  -3  12  -1 614.711 425.114   1
  -3  12  -2 2402.37 641.269   1
  -3  12  -3 10627.8 1229.41   1
  -3  12  -4 932.416 416.874   1
   3 -12  -4 13.7523 187.034   7
  -3  12  -5 834.278 472.588   1
   3 -12  -5 354.778 226.559   7
   3 -12  -6 34.5012 194.090   7
   3 -12  -7 16.7059 184.186   7
   3 -12  -8-17.8919 186.454   7
   3 -12  -9 479.688 225.764   7
   3 -12 -10-36.9117 172.690   7
   3 -12 -11-16.0818 181.181   7
  -3  12 -11 415.699 490.432   6
   3 -12 -12 6.49804 161.553   7
  -3  12 -12 5455.94 678.491   6
  -3  12 -13-952.224 399.357   6
  -3  12 -14 436.226 407.192   6
  -3  12 -15 122.734 373.778   6
  -3  12 -16 569.771 118.450   3
  -3  12 -17-81.3416 320.434   6
  -3  12 -17 52.9106 88.7851   3
  -3  12 -18 1921.60 141.528   3
  -3  12 -18 86.5178 304.750   6
  -3  12 -19-162.884 282.737   6
  -3  12 -19 126.616 63.2208   3
  -3  12 -20 100.012 236.395   6
  -3  12 -21 105.989 185.119   6
   3  13 -18 95.6875 286.380   6
   3  13 -17 51.5205 314.906   6
   3  13 -16-4.27209 323.508   6
   3  13 -16 63.1362 100.022   4
   3  13 -15-16.5198 361.040   6
  -3 -13 -14-7.40633 127.635   7
   3  13 -14-151.786 380.111   6
  -3 -13 -13-19.1826 136.011   7
   3  13 -13 84.9650 381.053   6
   3  13 -12-9.00972 389.074   6
  -3 -13 -12-40.9122 149.539   7
   3  13 -11-62.2956 391.593   6
  -3 -13 -11 274.437 452.322   2
  -3 -13 -11 160.967 200.620   7
   3  13 -10-114.452 392.365   6
  -3 -13 -10-223.522 508.107   2
  -3 -13 -10 94.8392 184.353   7
   3  13  -9 451.078 444.933   6
  -3 -13  -9 70.7140 164.010   7
  -3  13   8 174.441 377.323   1
   3  13  -8 121.177 384.041   6
  -3 -13  -7 55.0504 174.752   7
  -3  13   7 949.964 534.878   1
  -3 -13  -6 143.442 245.511   7
   3  13  -6 1361.87 457.961   6
  -3 -13  -5-12.4005 162.301   7
   3  13  -5 8.07772 381.492   6
   3 -13   4-0.65742 154.658   7
   3  13  -4 125.955 361.670   6
  -3  13   4 543.067 432.419   1
  -3 -13  -4 10.9957 163.490   7
  -3 -13  -3 0.05339 161.214   7
   3  13  -3 24.8874 327.655   6
   3 -13   3 26.8968 183.810   7
  -3 -13  -2-1.97535 156.749   7
   3 -13   2 105.560 190.039   7
  -3  13   2 499.536 413.529   1
  -3 -13  -1-52.6848 171.962   7
   3 -13   1-27.0274 179.253   7
  -3 -13   0-14.6052 154.000   7
   3 -13   0-91.6752 204.633   7
  -3  13   0-93.5324 389.561   1
   3 -13  -1 268.601 220.084   7
  -3 -13   1 25.4561 150.159   7
  -3 -13   2 3.18299 149.953   7
   3 -13  -2-8.14802 191.167   7
  -3 -13   3 7.09972 164.466   7
   3 -13  -3 1529.61 301.225   7
  -3  13  -4 456.016 388.576   1
   3 -13  -4 45.0726 225.046   7
   3 -13  -5 120.343 218.872   7
  -3  13  -5 25.0530 306.640   6
  -3  13  -6 9.60506 331.095   6
   3 -13  -6 179.666 225.291   7
  -3  13  -7-56.2767 345.526   6
   3 -13  -7-11.1558 198.592   7
   3 -13  -8 22.6064 203.152   7
  -3  13  -8-7.02403 354.539   6
   3 -13  -9 77.3960 208.094   7
  -3  13  -9 264.124 395.393   6
  -3  13 -10-176.965 393.630   6
   3 -13 -10-9.31030 182.626   7
   3 -13 -11-142.344 198.496   7
  -3  13 -11 3606.44 676.729   6
  -3  13 -12 287.372 410.155   6
   3 -13 -12 4.40742 174.981   7
  -3  13 -13-231.909 367.344   6
   3 -13 -13-102.641 154.523   7
  -3  13 -14-266.371 366.118   6
  -3  13 -15 310.573 374.140   6
  -3  13 -16-67.3529 315.208   6
  -3  13 -17-33.5502 308.357   6
  -3  13 -19-54.8533 248.443   6
  -3  13 -20 354.944 227.219   6
  -3  13 -21-82.9597 150.717   6
   3  14 -18 11.1506 238.947   6
   3  14 -17 50.0911 269.395   6
   3  14 -16 285.023 104.348   4
   3  14 -16-45.6407 324.299   6
   3  14 -15-15.0958 343.220   6
   3  14 -14-50.8460 352.411   6
   3  14 -13-149.459 373.495   6
  -3 -14 -13-17.1579 146.771   7
  -3 -14 -12-39.1998 158.402   7
   3  14 -12 166.510 382.225   6
   3  14 -11-345.439 400.727   6
  -3 -14 -11 371.725 249.776   7
   3  14 -10 267.591 413.598   6
  -3 -14 -10-68.4145 183.034   7
   3  14  -9 207.757 431.714   6
  -3 -14  -9-134.501 172.133   7
  -3 -14  -8 173.787 212.919   7
  -3  14   8 776.048 489.614   1
   3  14  -8-9.25238 374.129   6
   3  14  -7 2218.28 529.005   6
  -3  14   7 1437.19 589.071   1
  -3 -14  -6 249.170 215.117   7
  -3  14   6 377.863 391.503   1
  -3  14   5 719.248 500.391   1
  -3 -14  -5 21.1041 176.887   7
   3  14  -5-39.6900 362.835   6
   3  14  -4 474.993 413.298   6
  -3 -14  -4 21.4434 191.598   7
   3 -14   4-55.4709 193.365   7
  -3 -14  -3 45.5211 174.013   7
   3  14  -3 19.7825 332.178   6
   3 -14   3 29.6600 191.176   7
  -3 -14  -2 24.0905 176.476   7
   3  14  -2-159.522 345.815   6
   3 -14   2-97.2671 204.458   7
  -3  14   2 663.179 459.500   1
   3 -14   1-12.9157 190.009   7
  -3 -14  -1-8.83671 171.226   7
  -3 -14   0 227.183 194.344   7
   3 -14   0-25.7741 216.668   7
  -3  14  -1 7891.29 1160.05   1
   3 -14  -1 3914.00 510.574   7
  -3  14  -2 590.525 471.484   1
  -3 -14   2-20.2231 177.679   7
   3 -14  -2 8.36489 205.837   7
  -3 -14   3-37.6259 183.319   7
   3 -14  -3-5.42888 204.102   7
   3 -14  -4 584.205 321.715   7
   3 -14  -5-17.6572 230.337   7
  -3  14  -5-35.1667 317.425   6
  -3  14  -6 149.706 351.885   6
   3 -14  -6 562.369 271.123   7
   3 -14  -7-203.338 221.790   7
  -3  14  -7-80.7616 337.086   6
  -3  14  -8 53.4937 347.613   6
   3 -14  -8-51.6135 210.239   7
   3 -14  -9 78.1753 203.359   7
  -3  14  -9 505.706 555.361   6
   3 -14 -10 16.1152 182.342   7
  -3  14 -10 1769.65 636.780   6
   3 -14 -11-5.16738 185.376   7
  -3  14 -11 4533.30 590.077   6
   3 -14 -12-12.2201 161.283   7
  -3  14 -12-73.4378 354.754   6
   3 -14 -13 27.7092 152.609   7
  -3  14 -13-93.3422 346.570   6
  -3  14 -14-182.652 333.145   6
  -3  14 -15 306.732 332.514   6
  -3  14 -16-114.108 315.215   6
  -3  14 -17 54.9293 281.571   6
  -3  14 -18 33.0821 244.438   6
  -3  14 -19-74.9449 213.322   6
  -3  14 -20-170.216 175.188   6
   3  15 -17-3.88596 246.384   6
   3  15 -16 40.1027 278.920   6
   3  15 -16 208.381 87.2563   4
   3  15 -15-247.573 327.270   6
   3  15 -14-12.7851 319.452   6
   3  15 -13-19.3007 334.278   6
  -3 -15 -13-41.4245 141.850   7
  -3 -15 -12 81.2395 170.619   7
   3  15 -12 6.95920 350.947   6
  -3 -15 -11 20.1168 154.638   7
   3  15 -11-23.3215 358.047   6
   3  15 -10-49.3420 366.647   6
  -3 -15 -10-22.8437 173.089   7
  -3 -15  -9 206.057 239.085   7
   3  15  -9 145.839 455.168   6
  -3 -15  -8-32.0563 183.261   7
   3  15  -8 2986.29 589.785   6
   3  15  -7 358.352 393.747   6
  -3 -15  -7 26.4574 180.428   7
  -3 -15  -6-15.0420 190.578   7
   3  15  -6 1827.17 517.919   6
  -3 -15  -5 52.5859 184.404   7
   3  15  -5 106.997 373.026   6
   3 -15   5 35.0802 191.302   7
  -3  15   5 241.061 387.984   1
   3 -15   4 88.0813 231.658   7
  -3 -15  -4 2.46465 181.695   7
   3  15  -3 196.049 338.780   6
  -3 -15  -3-12.2287 181.688   7
   3 -15   3 5.18747 195.067   7
  -3 -15  -2-27.1086 190.636   7
   3 -15   2 74.1091 209.211   7
  -3 -15  -1-28.7492 184.150   7
   3 -15   1 10.0635 201.985   7
  -3 -15   0 48.2370 187.116   7
   3 -15   0 109.326 226.607   7
  -3 -15   1 4.82035 177.735   7
   3 -15  -1 48.3813 217.899   7
   3 -15  -2-9.84080 211.155   7
  -3 -15   2-84.4206 202.081   7
   3 -15  -3-112.028 220.723   7
  -3 -15   3 949.485 258.367   7
   3 -15  -4 389.800 251.306   7
  -3 -15   4-16.2539 161.532   7
   3 -15  -5-130.336 229.357   7
  -3  15  -5-26.5689 307.927   6
   3 -15  -6 748.430 285.492   7
  -3  15  -6 251.072 336.483   6
   3 -15  -7 65.0065 237.061   7
  -3  15  -7-135.062 342.602   6
   3 -15  -8 5.19934 202.761   7
   3 -15  -9 17.2839 218.208   7
  -3  15  -9-5.45660 349.300   6
   3 -15 -10-2.65978 182.082   7
  -3  15 -10 142.797 358.025   6
   3 -15 -11-0.53355 186.223   7
  -3  15 -11 315.287 365.231   6
   3 -15 -12 6.19461 154.848   7
  -3  15 -12 226.422 325.412   6
   3 -15 -13 35.5842 142.618   7
  -3  15 -13-250.429 341.532   6
  -3  15 -14 51.0367 301.303   6
  -3  15 -15 308.272 316.939   6
  -3  15 -16-13.1363 264.686   6
  -3  15 -17 127.789 241.538   6
  -3  15 -18-0.67267 204.146   6
  -3  15 -19-54.4228 175.507   6
  -3  15 -20 370.407 132.732   6
   3  16 -16-12.5442 246.135   6
   3  16 -15-80.6988 271.252   6
   3  16 -15 3283.13 185.917   4
   3  16 -14-87.4000 304.928   6
   3  16 -13-235.610 332.161   6
  -3 -16 -12 30.6883 159.443   7
   3  16 -12 79.7843 322.860   6
   3  16 -11-144.803 359.683   6
  -3 -16 -11 23.4638 172.029   7
   3  16 -10 142.344 353.583   6
  -3 -16 -10-0.39749 177.157   7
   3  16  -9 117.357 375.495   6
  -3 -16  -9 5.21482 175.115   7
  -3 -16  -8 95.3419 190.740   7
   3  16  -8 87.5029 360.371   6
   3  16  -7 989.852 408.089   6
  -3 -16  -7 34.1785 188.903   7
  -3 -16  -6 19.3050 195.473   7
   3  16  -6 166.636 388.225   6
   3  16  -5 88.8809 348.575   6
   3 -16   5-115.885 193.178   7
  -3 -16  -5 0.12975 190.468   7
  -3 -16  -4-8.04352 197.189   7
   3  16  -4 1307.70 508.226   6
  -3  16   4 1802.49 632.673   1
   3 -16   4-8.13719 205.664   7
   3 -16   3 24.5954 201.134   7
  -3 -16  -3 8.70099 194.696   7
   3 -16   2-5.31511 202.060   7
  -3 -16  -2-8.80755 193.127   7
  -3  16   2 411.530 380.423   1
   3 -16   1 94.8070 219.090   7
  -3 -16  -1-36.8597 208.140   7
  -3 -16   0-236.634 217.285   7
   3 -16   0 87.2154 241.055   7
  -3 -16   1 24.8078 196.172   7
   3 -16  -1 270.454 277.265   7
  -3 -16   2 2.03600 177.828   7
   3 -16  -2 119.978 244.721   7
  -3 -16   3-1.80901 167.724   7
   3 -16  -3 1354.96 428.129   7
   3 -16  -4 66.8187 301.935   7
  -3 -16   4 35.1910 173.902   7
   3 -16  -5 8.50629 215.734   7
  -3  16  -6-175.435 328.807   6
   3 -16  -6 56.8514 235.712   7
   3 -16  -7 408.237 263.936   7
  -3  16  -7-250.407 342.035   6
   3 -16  -8-19.1642 214.043   7
  -3  16  -8-113.722 326.599   6
   3 -16  -9 17.4059 210.593   7
  -3  16  -9 2408.81 420.327   6
  -3  16 -10 45.7340 321.165   6
   3 -16 -10 22.3024 199.045   7
   3 -16 -11 52.7238 179.802   7
  -3  16 -11 33.5416 324.018   6
  -3  16 -12 139.493 325.837   6
   3 -16 -12 20.8798 162.353   7
   3 -16 -13-37.4186 140.944   7
  -3  16 -14 3937.90 417.035   6
  -3  16 -15-105.954 271.591   6
  -3  16 -16 23.5017 235.999   6
  -3  16 -17 272.884 222.621   6
  -3  16 -18 56.4480 176.149   6
  -3  16 -19 48.2306 131.201   6
   3  17 -15 164.716 73.5212   4
   3  17 -14 102.022 262.338   6
   3  17 -13-41.5750 278.209   6
  -3 -17 -12-14.0005 142.441   7
   3  17 -12-81.5693 293.191   6
  -3 -17 -11 167.643 173.436   7
   3  17 -11 80.2257 316.271   6
   3  17 -10-111.286 329.631   6
  -3 -17 -10 34.3347 180.278   7
   3  17  -9 475.073 334.979   6
  -3 -17  -9 13.5149 176.052   7
  -3 -17  -8 62.9670 214.977   7
   3  17  -8-135.631 343.492   6
   3  17  -7 22.4793 332.567   6
  -3 -17  -7 140.045 207.611   7
   3  17  -6 77.3254 346.269   6
  -3 -17  -6 58.4237 193.021   7
  -3 -17  -5-82.5705 199.387   7
   3 -17   4-108.266 194.844   7
  -3 -17  -4-87.5980 195.670   7
   3 -17   3 40.0929 213.218   7
  -3 -17  -3-76.8878 207.038   7
  -3 -17  -2 15.3392 205.432   7
   3 -17   2-43.6234 205.581   7
   3 -17   1-18.1244 216.282   7
  -3 -17  -1 44.5763 193.992   7
   3 -17   0 11.1687 222.056   7
  -3 -17   0-26.6368 186.070   7
   3 -17  -1-10.1337 230.865   7
  -3 -17   1-53.9530 184.594   7
  -3 -17   2-33.4937 197.142   7
   3 -17  -2-12.2260 226.199   7
  -3 -17   3 1.17122 178.658   7
   3 -17  -3 3.31025 215.413   7
  -3 -17   4-22.9199 173.362   7
   3 -17  -4 99.6536 228.574   7
   3 -17  -5 20.6719 220.109   7
   3 -17  -6 85.8784 225.430   7
  -3  17  -7-153.215 286.797   6
   3 -17  -7 304.001 368.859   7
   3 -17  -8 4.92318 198.353   7
  -3  17  -8-4.21744 307.759   6
  -3  17  -9 937.691 386.975   6
   3 -17  -9 1450.62 293.560   7
   3 -17 -10 46.2145 213.854   7
  -3  17 -10-24.5211 291.851   6
   3 -17 -11 27.7203 176.613   7
  -3  17 -11 889.689 300.385   6
  -3  17 -12 32.1599 270.697   6
   3 -17 -12 37.9997 151.491   7
  -3  17 -13 33.9830 264.682   6
   3 -17 -13-19.9187 123.646   7
  -3  17 -14 789.974 280.739   6
  -3  17 -15-168.735 229.350   6
  -3  17 -16-70.7739 196.673   6
  -3  17 -17 1.32856 166.500   6
  -3  17 -18 13.5398 125.916   6
   3  18 -15 1265.67 93.2734   4
   3  18 -14 122.259 76.8664   4
  -3 -18 -11 209.907 156.731   7
  -3 -18 -10-42.5695 160.250   7
   3  18 -10-221.473 302.636   6
  -3 -18  -9 118.446 182.610   7
  -3 -18  -8 90.8271 196.784   7
  -3 -18  -7-23.5023 178.876   7
  -3 -18  -6 30.4328 188.089   7
  -3 -18  -5-4.60474 182.121   7
  -3 -18  -4-28.9247 192.835   7
   3 -18   4-29.3540 180.313   7
   3 -18   3-12.2965 183.991   7
  -3 -18  -3 76.2954 212.923   7
   3 -18   2 3.93697 210.888   7
  -3 -18  -2 15.9688 196.754   7
   3 -18   1-80.3074 227.032   7
  -3 -18  -1-20.5930 190.105   7
   3 -18   0-63.6452 207.469   7
  -3 -18   0-2.54537 184.233   7
  -3 -18   1 3.83755 178.544   7
   3 -18  -1 8.49672 214.249   7
  -3 -18   2 1.88122 181.036   7
   3 -18  -2-8.89752 213.818   7
  -3 -18   3-2.76611 162.236   7
   3 -18  -3 688.113 267.442   7
   3 -18  -4 572.339 321.842   7
   3 -18  -5 68.9214 219.913   7
   3 -18  -6 126.881 258.464   7
   3 -18  -7 175.265 226.007   7
   3 -18  -8-1.27363 184.733   7
  -3  18  -8 13830.6 643.306   6
   3 -18  -9-30.7393 184.435   7
  -3  18  -9 440.177 318.385   6
   3 -18 -10 16.2996 160.772   7
  -3  18 -10-294.981 282.174   6
  -3  18 -11 2768.37 377.963   6
   3 -18 -11 40.9902 147.770   7
  -3  18 -12 87.4246 245.718   6
   3 -18 -12-13.6753 127.383   7
  -3  18 -13 479.659 255.040   6
  -3  18 -14 79.9015 215.160   6
  -3  18 -15 14.9918 181.948   6
  -3  18 -16-164.304 166.885   6
   3  19 -13 341.252 79.5951   4
  -3 -19  -9 110.193 175.452   7
  -3 -19  -8-33.8969 163.153   7
  -3 -19  -7 2.02832 171.020   7
  -3 -19  -6-13.8117 181.080   7
  -3 -19  -5-5.75364 187.325   7
  -3 -19  -4-47.4531 177.323   7
   3 -19   4-60.5150 166.856   7
  -3 -19  -3 146.851 195.277   7
   3 -19   3-5.33009 178.534   7
   3 -19   2 46.5989 193.686   7
  -3 -19  -2 23.6969 179.350   7
  -3 -19  -1 137.264 193.475   7
   3 -19   1 12.4812 190.955   7
   3 -19   0 294.890 223.353   7
  -3 -19   0 50.1227 184.201   7
   3 -19  -1-61.7751 197.849   7
  -3 -19   1-39.9058 180.628   7
  -3 -19   2-64.1540 175.795   7
   3 -19  -2 92.8172 202.185   7
  -3 -19   3 10.0814 160.114   7
   3 -19  -3 25.4832 213.043   7
   3 -19  -4 37.7721 203.189   7
   3 -19  -5-29.9811 207.961   7
   3 -19  -6 26.8053 210.863   7
   3 -19  -7 55.6267 200.905   7
   3 -19  -8-2.72740 167.497   7
   3 -19  -9 8.00855 164.805   7
  -3  19  -9-38.3162 212.599   6
   3 -19 -10-64.9939 148.384   7
  -3  19 -10-200.313 216.675   6
  -3  19 -11 216.865 230.865   6
   3 -19 -11 54.6394 131.715   7
  -3  19 -12 43.1813 191.564   6
   3 -19 -12-11.8332 94.6189   7
  -3  19 -13 29.3281 174.190   6
  -3  19 -14 95.4593 153.273   6
   3  20 -12 1988.57 120.711   4
   3  20 -11 123.193 72.3095   4
  -3 -20  -8-4.36294 147.571   7
  -3 -20  -7 19.5905 148.312   7
  -3 -20  -6 147.364 166.489   7
  -3 -20  -5 65.0866 167.785   7
  -3 -20  -4 119.932 188.380   7
   3 -20   3-48.6034 155.908   7
  -3 -20  -3 44.3741 176.235   7
   3 -20   2-18.4490 173.661   7
  -3 -20  -2-122.344 184.044   7
   3 -20   1-16.1536 177.301   7
  -3 -20  -1-28.8629 171.853   7
  -3 -20   0-25.3165 163.292   7
   3 -20   0-95.3945 188.654   7
  -3 -20   1-55.8271 166.398   7
   3 -20  -1-24.0601 175.630   7
   3 -20  -2-3.89178 175.484   7
   3 -20  -3-0.62546 178.920   7
   3 -20  -4 4225.66 373.160   7
   3 -20  -5 18.6543 175.999   7
   3 -20  -6-29.9918 170.570   7
   3 -20  -7 1547.49 257.202   7
   3 -20  -8-24.2055 144.855   7
   3 -20  -9-3.65638 137.829   7
   3 -20 -10 121.250 136.120   7
   3 -20 -11-12.7355 92.5775   7
   3  21 -10 234.849 68.3839   4
   3  21  -9 3217.15 156.465   4
  -3 -21  -4 61.3889 154.499   7
   3 -21   3-76.2360 123.859   7
  -3 -21  -3 130.964 160.138   7
   3 -21   2-78.5035 143.025   7
  -3 -21  -2-18.8842 144.377   7
   3 -21   1-53.0186 150.501   7
   3 -21   0-54.5060 153.885   7
   3 -21  -1-117.616 163.255   7
   3 -21  -2 4.97632 151.765   7
   3 -21  -3-44.0874 164.024   7
   3 -21  -4-16.7021 146.740   7
   3 -21  -5-54.2443 146.880   7
   3 -21  -6-60.3730 149.966   7
   3 -21  -7 468.919 169.424   7
   3 -21  -8-10.3336 125.613   7
   3 -21  -9-2.77657 103.340   7
   3  22  -7 44.6027 55.5700   4
   3  22  -6 235.928 70.1883   4
   3  22  -5 129.360 66.4327   4
   3  22  -4 519.523 83.5498   4
   3  22  -3 1554.63 114.934   4
   3 -22   1-16.7691 104.974   7
   3 -22   0-98.6790 124.563   7
   3 -22  -1 8.66608 125.757   7
   3 -22  -2 49.3960 125.868   7
   3 -22  -3-59.6069 126.987   7
   3 -22  -4 116.524 132.856   7
   3 -22  -5 174.961 128.812   7
   3 -22  -6-120.011 114.451   7
   3 -22  -7 337.050 108.886   7
  -4   0   0 999999. 5129.02   2
  -4   0  -1 231453. 2708.81   2
  -4   0   1 229455. 2244.65   2
  -4   0  -2 10281.7 661.357   2
  -4   0   2 9745.22 439.696   2
  -4   0  -3 3114.57 435.469   2
  -4   0  -3 3129.40 325.314   1
  -4   0   3 2199.85 186.279   2
  -4   0  -4 1154.17 190.643   1
  -4   0  -4 1445.51 334.425   2
  -4   0  -5 1250.69 337.844   2
  -4   0  -5 567.975 79.6350   1
  -4   0  -6 824.579 314.952   2
  -4   0  -7 88.2814 284.383   2
  -4   0  -8 357.951 318.060   2
  -4   0  -9 290.419 289.351   2
  -4   0 -10-222.947 303.444   2
  -4   0 -11 1910.40 498.134   2
  -4   0 -12 394.913 344.603   2
   4   0 -13 4695.65 310.956   3
  -4   0 -13 3732.58 266.172   3
  -4   0 -13 3577.14 694.721   2
   4   0 -14 2326.06 244.652   3
  -4   0 -14 2078.09 240.288   3
  -4   0 -14 1899.21 611.604   2
   4   0 -15 960.477 191.706   3
  -4   0 -15 607.239 481.930   2
  -4   0 -15 903.255 187.987   3
  -4   0 -16 8.96174 361.785   2
  -4   0 -16 28.5998 151.115   3
   4   0 -16 123.117 150.374   3
   4   0 -17 534.830 170.308   3
  -4   0 -17 419.479 383.651   2
  -4   0 -17 546.209 174.704   3
   4   0 -18 733.798 179.737   3
  -4   0 -18 810.843 188.509   3
  -4   0 -19 956.553 190.372   3
   4   0 -19 653.515 192.798   3
  -4   0 -20 588.495 188.605   3
   4   0 -20 883.616 202.174   3
  -4   0 -21 179.591 130.212   3
   4   0 -21 106.336 136.928   3
  -4   0 -22 43.4280 109.976   3
  -4   0 -23 1188.49 151.280   3
  -4   0 -24 2712.41 162.953   3
  -4  -1 -24 269.647 76.9377   3
  -4  -1 -23-0.37651 90.5711   3
  -4  -1 -22 565.770 141.154   3
   4   1 -21 1202.13 200.564   3
  -4  -1 -21 1112.56 175.366   3
   4   1 -20 298.779 157.057   3
  -4  -1 -20 334.243 165.904   3
   4   1 -19 1812.29 227.464   3
  -4  -1 -19 1130.54 230.396   3
  -4  -1 -18 878.666 186.213   3
   4   1 -18 815.449 182.060   3
  -4  -1 -17 691.850 411.874   2
   4   1 -17 1294.94 213.167   3
  -4  -1 -17 1170.00 223.763   3
  -4  -1 -16 558.104 174.890   3
   4   1 -16 643.234 173.369   3
  -4  -1 -16 598.639 460.621   2
   4   1 -15 524.042 161.932   3
  -4  -1 -15 488.242 361.853   2
  -4  -1 -15 569.069 174.466   3
   4   1 -14 1897.47 228.345   3
  -4  -1 -14 1859.96 604.566   2
  -4  -1 -14 1975.42 231.120   3
   4   1 -13 1004.62 176.581   3
  -4  -1 -13 1233.20 478.659   2
  -4  -1 -13 1033.33 177.703   3
  -4  -1 -12 10050.4 1093.63   2
  -4  -1 -11 2081.51 529.546   2
  -4  -1 -10 789.525 370.908   2
  -4  -1  -9 4192.74 695.097   2
  -4  -1  -8 2399.46 495.387   2
  -4  -1  -7 1566.06 422.829   2
  -4  -1  -6 24325.6 1223.67   2
  -4  -1  -5 18787.0 1056.23   2
  -4  -1  -4 19290.2 536.858   1
  -4  -1  -4 29597.9 1233.48   2
  -4  -1  -3 93337.6 2076.84   2
  -4  -1  -2 26587.3 1076.10   2
  -4   1   2 20240.4 551.791   2
  -4   1   1 40531.4 891.013   2
  -4   1   0 935.308 229.372   2
  -4   1  -1 41797.8 1105.87   2
  -4   1  -2 26356.0 975.930   1
  -4   1  -2 26085.3 956.823   2
  -4   1  -3 96811.2 1660.94   1
  -4   1  -3 92427.4 1902.44   2
  -4   1  -4 28558.9 1158.42   2
  -4   1  -4 28916.9 896.910   1
  -4   1  -5 17172.8 632.095   1
  -4   1  -5 18001.8 990.820   2
  -4   1  -6 24236.6 1198.28   2
  -4   1  -7 1436.86 413.743   2
  -4   1  -8 2417.76 517.920   2
  -4   1  -9 4803.08 675.655   2
  -4   1 -10 561.324 386.029   2
  -4   1 -11 2311.09 534.367   2
  -4   1 -12 9947.68 1076.22   2
  -4   1 -13 1183.06 210.231   3
   4  -1 -13 925.286 184.871   3
  -4   1 -13 1070.05 451.759   2
   4  -1 -14 1852.22 229.235   3
  -4   1 -14 1607.32 580.605   2
  -4   1 -14 2258.28 243.067   3
  -4   1 -15 457.214 405.492   2
  -4   1 -15 578.031 173.845   3
   4  -1 -15 562.105 169.263   3
   4  -1 -16 764.725 182.101   3
  -4   1 -16 691.769 172.780   3
  -4   1 -16 541.423 440.426   2
   4  -1 -17 1150.02 197.549   3
  -4   1 -17 1411.11 222.274   3
  -4   1 -18 1015.43 201.003   3
   4  -1 -18 834.371 182.798   3
  -4   1 -19 1683.50 218.354   3
   4  -1 -19 1292.41 228.934   3
  -4   1 -20 262.963 147.556   3
   4  -1 -20 376.599 171.786   3
  -4   1 -21 1167.77 180.393   3
   4  -1 -21 1059.71 190.506   3
  -4   1 -22 470.925 131.562   3
  -4   1 -23 59.5383 92.3089   3
  -4   1 -24 361.871 90.2790   3
  -4  -2 -23 275.994 98.5080   3
   4   2 -22 270.999 138.803   3
  -4  -2 -22 256.385 116.544   3
  -4  -2 -21 506.666 143.762   3
   4   2 -21 458.230 155.738   3
  -4  -2 -20 513.080 170.290   3
   4   2 -20 771.383 183.455   3
  -4  -2 -19 257.106 159.100   3
   4   2 -19 343.736 166.237   3
  -4  -2 -18 1709.51 238.523   3
   4   2 -18 1609.28 216.488   3
   4   2 -17 1506.36 227.744   3
  -4  -2 -17 1430.71 229.658   3
  -4  -2 -17 821.280 461.333   2
  -4  -2 -16 497.858 392.997   2
  -4  -2 -16 677.767 193.549   3
   4   2 -16 832.391 189.506   3
  -4  -2 -15 12249.8 1387.93   2
  -4  -2 -15 14886.7 530.878   3
   4   2 -15 13454.0 521.749   3
   4   2 -14 4390.15 317.153   3
  -4   2  14 4679.75 971.871   1
  -4  -2 -14 5031.57 332.134   3
  -4  -2 -14 4518.21 830.615   2
  -4   2  13 4773.89 976.127   1
  -4  -2 -13 4305.50 295.920   3
   4   2 -13 4124.32 296.501   3
  -4  -2 -13 4459.67 797.268   2
  -4  -2 -12 22080.7 1604.80   2
  -4  -2 -11 2396.20 585.891   2
  -4  -2 -10 1036.63 405.687   2
  -4  -2  -9 18026.9 1235.65   2
  -4  -2  -8 183.439 321.767   2
  -4  -2  -7 4635.00 673.390   2
  -4  -2  -6 2162.32 482.010   2
  -4  -2  -5 5998.14 671.991   2
  -4  -2  -4 9270.37 754.511   2
  -4   2   1 6814.91 409.622   2
  -4   2   0 44720.9 1450.98   1
  -4   2   0 41569.5 1067.08   2
  -4   2  -1 6501.53 576.790   1
  -4   2  -1 7127.97 516.082   2
  -4   2  -2 2749.30 389.780   1
  -4   2  -2 2905.31 390.640   2
  -4   2  -3 26256.9 989.400   1
  -4   2  -3 26665.4 1067.95   2
  -4   2  -4 9299.66 707.361   2
  -4   2  -4 9358.84 591.313   1
  -4   2  -5 6067.67 481.630   1
  -4   2  -5 5974.70 603.981   2
  -4   2  -6 2248.84 311.003   1
  -4   2  -6 2570.93 471.804   2
  -4   2  -7 4647.95 649.505   2
  -4   2  -8 392.691 321.872   2
  -4   2  -9 19613.7 1258.91   2
  -4   2 -10 1015.40 408.329   2
  -4   2 -11 2433.37 537.419   2
  -4   2 -12 21886.2 1581.02   2
   4  -2 -13 3665.07 273.823   3
  -4   2 -13 4372.03 290.114   3
  -4   2 -13 4185.18 774.932   2
   4  -2 -14 4206.91 299.675   3
  -4   2 -14 4798.12 310.030   3
  -4   2 -14 3986.82 805.388   2
  -4   2 -15 13698.5 518.639   3
   4  -2 -15 13476.4 509.794   3
   4  -2 -16 835.790 181.772   3
  -4   2 -16 759.330 178.238   3
  -4   2 -17 1625.35 218.548   3
   4  -2 -17 1314.95 209.338   3
   4  -2 -18 1964.65 247.235   3
  -4   2 -18 1889.09 233.806   3
  -4   2 -19 410.687 161.487   3
   4  -2 -19 523.904 173.359   3
   4  -2 -20 754.689 188.460   3
  -4   2 -20 646.690 170.392   3
  -4   2 -21 461.127 141.831   3
  -4   2 -22 297.107 118.451   3
  -4   2 -23 349.335 113.496   3
  -4   2 -24 365.335 90.2706   3
   4   3 -22 1283.07 180.973   3
  -4  -3 -22 1062.97 146.335   3
   4   3 -21 2798.62 253.170   3
  -4  -3 -21 3035.07 231.699   3
   4   3 -20-8.54738 132.336   3
  -4  -3 -20-39.7436 129.487   3
  -4  -3 -19 315.135 156.891   3
   4   3 -19 255.384 145.443   3
  -4  -3 -18 442.858 174.096   3
   4   3 -18 486.700 192.658   3
   4   3 -17 1379.95 230.100   3
  -4  -3 -17 811.574 487.294   2
  -4  -3 -17 1601.61 226.136   3
  -4  -3 -16 429.039 396.503   2
   4   3 -16 648.790 177.813   3
  -4  -3 -16 661.635 175.922   3
  -4  -3 -15 32.8351 131.821   3
  -4  -3 -15 154.488 409.196   2
   4   3 -15 101.981 138.670   3
   4   3 -14 1074.39 178.359   3
  -4  -3 -14 1280.55 190.813   3
  -4   3  14 1244.50 609.518   1
  -4  -3 -14 1154.40 527.084   2
   4   3 -13 953.839 182.585   3
  -4  -3 -13 1048.38 510.395   2
  -4   3  13 987.359 564.555   1
  -4  -3 -13 932.529 169.805   3
  -4  -3 -12 602.065 407.145   2
   4   3 -12 658.143 149.913   3
  -4   3  12 580.000 508.791   1
  -4   3  11 2902.56 744.278   1
  -4  -3 -11 2182.35 594.820   2
  -4   3  10 5437.63 902.117   1
  -4  -3 -10 4447.95 735.222   2
  -4  -3  -9 43985.5 1980.11   2
  -4   3   9 47330.3 2336.70   1
  -4  -3  -8 433.786 368.124   2
  -4  -3  -7 1115.18 411.222   2
  -4  -3  -6 2866.00 562.766   2
  -4  -3  -5 348.287 291.336   2
  -4   3   4 4802.54 646.251   1
  -4   3   3 2781.49 495.045   1
  -4   3   2 194.426 296.540   1
  -4   3   1 332.665 262.484   1
  -4   3   0 177.917 238.691   1
  -4   3  -1 354.707 201.930   2
  -4   3  -1 335.142 243.062   1
  -4   3  -2 40.2114 210.609   1
  -4   3  -2 108.952 216.943   2
  -4   3  -3 2784.65 399.075   2
  -4   3  -3 2559.98 402.785   1
  -4   3  -4 5122.55 553.269   2
  -4   3  -4 5015.09 505.518   1
  -4   3  -5 421.133 295.739   2
  -4   3  -5 436.448 248.806   1
  -4   3  -6 2939.58 404.666   1
  -4   3  -6 3154.80 504.705   2
  -4   3  -7 1117.76 393.417   2
  -4   3  -8 315.111 309.597   2
  -4   3  -9 44412.2 1894.90   2
  -4   3 -10 4815.86 766.522   2
  -4   3 -11 2315.00 555.034   2
  -4   3 -12 574.066 389.824   2
  -4   3 -12 554.800 136.214   3
  -4   3 -13 962.647 177.115   3
  -4   3 -13 838.227 440.405   2
   4  -3 -13 720.136 160.212   3
   4  -3 -14 959.143 167.517   3
  -4   3 -14 1224.17 186.940   3
   4  -3 -15 198.854 146.545   3
  -4   3 -15 87.2073 130.530   3
  -4   3 -16 616.421 173.611   3
   4  -3 -16 472.694 145.653   3
   4  -3 -17 1272.45 200.460   3
  -4   3 -17 1448.57 212.624   3
   4  -3 -18 544.739 230.774   3
  -4   3 -18 357.884 157.337   3
   4  -3 -19 150.477 148.595   3
  -4   3 -19 405.554 149.759   3
  -4   3 -20 80.8618 134.097   3
  -4   3 -21 3051.79 239.252   3
  -4   3 -22 1179.96 159.507   3
  -4   3 -23 74.3079 92.1870   3
  -4   3 -24 517.029 94.6139   3
   4   4 -22 86.4109 124.143   3
   4   4 -21 159.645 137.630   3
  -4  -4 -21 180.466 117.417   3
  -4  -4 -20 427.417 152.547   3
   4   4 -20 408.380 153.046   3
   4   4 -19 144.000 131.261   3
  -4  -4 -19 90.5740 140.474   3
   4   4 -18 2716.13 268.068   3
  -4  -4 -18 3202.64 302.778   3
   4   4 -17 395.603 160.951   3
  -4  -4 -17 348.733 167.059   3
  -4  -4 -17-24.5786 373.714   2
   4   4 -16 711.769 183.486   3
  -4  -4 -16 790.883 177.772   3
  -4  -4 -16 453.437 445.116   2
  -4  -4 -15 6213.17 358.612   3
   4   4 -15 5826.63 356.046   3
  -4  -4 -15 5513.00 972.421   2
   4   4 -14 4646.82 311.148   3
  -4  -4 -14 4416.39 306.533   3
  -4  -4 -14 4499.38 858.757   2
   4   4 -13 2754.35 253.604   3
  -4   4  13 3343.34 799.179   1
  -4  -4 -13 3263.67 730.610   2
  -4  -4 -13 2398.09 239.589   3
   4   4 -12 15420.0 497.336   3
  -4   4  12 18303.5 1666.85   1
  -4  -4 -12 16771.9 1415.78   2
  -4   4  11 10103.8 1264.06   1
  -4  -4 -11 8975.66 1045.55   2
  -4  -4 -10 1369.86 510.628   2
  -4   4  10 1768.49 600.826   1
  -4  -4  -9 11713.5 1103.18   2
  -4   4   9 13021.6 1248.90   1
  -4  -4  -8 23773.9 1508.29   2
  -4   4   8 26633.3 1722.85   1
  -4  -4  -7 6805.74 843.618   2
  -4   4   7 6350.96 902.268   1
  -4  -4  -6 2939.32 606.640   2
  -4   4   6 2702.13 592.744   1
  -4   4   5 6136.41 790.848   1
  -4   4   4 6717.54 755.530   1
  -4   4   3 36343.8 1565.38   1
  -4   4   2 5388.12 609.493   1
  -4   4   1 236.125 268.763   1
  -4   4   0 225.981 282.100   1
  -4   4  -1 25.8557 261.357   1
  -4   4  -2 5218.80 578.824   1
  -4   4  -3 36827.9 1379.91   2
  -4   4  -3 36049.2 1366.69   1
  -4   4  -4 7109.30 661.106   2
  -4   4  -4 6494.83 618.860   1
  -4   4  -5 6256.45 616.465   1
  -4   4  -5 6503.37 671.948   2
  -4   4  -6 2765.04 443.073   1
  -4   4  -6 3176.52 537.288   2
  -4   4  -7 10631.6 1012.12   2
  -4   4  -8 24172.7 1392.04   2
  -4   4  -9 11675.9 1027.29   2
  -4   4 -10 1516.51 444.361   2
  -4   4 -12 15373.9 485.383   3
  -4   4 -13 2878.37 247.605   3
   4  -4 -14 3674.23 270.464   3
  -4   4 -14 4735.54 307.192   3
   4  -4 -15 5120.42 320.324   3
  -4   4 -15 6132.46 361.468   3
   4  -4 -16 574.415 163.949   3
  -4   4 -16 740.337 175.358   3
   4  -4 -17 354.500 168.542   3
  -4   4 -17 264.518 146.840   3
  -4   4 -18 2693.45 253.898   3
   4  -4 -18 2772.55 288.817   3
  -4   4 -19 100.870 129.921   3
  -4   4 -19 0.29155 323.229   6
  -4   4 -20 425.576 144.744   3
  -4   4 -21 156.189 113.123   3
  -4   4 -22 32.6854 100.619   3
  -4   4 -23 379.566 105.024   3
  -4   4 -24 225.651 80.7152   3
   4   5 -21 771.382 171.139   3
   4   5 -20 357.553 150.044   3
   4   5 -19 1543.25 206.171   3
   4   5 -18 5166.76 338.238   3
  -4  -5 -18 5276.21 317.980   3
  -4  -5 -17 1341.37 197.480   3
   4   5 -17 1543.84 221.305   3
   4   5 -16 2257.75 254.256   3
  -4  -5 -16 2147.66 723.502   2
  -4  -5 -16 2167.44 241.099   3
  -4  -5 -15 273.940 368.959   2
   4   5 -15 7.49853 338.694   6
  -4  -5 -15 265.148 136.490   3
   4   5 -15 364.282 150.685   3
   4   5 -14 1.06912 334.635   6
  -4  -5 -14 982.392 174.645   3
   4   5 -14 1033.83 194.045   3
  -4  -5 -14 972.987 533.271   2
   4   5 -13 786.710 176.222   3
  -4  -5 -13 963.091 494.245   2
   4   5 -13 13.2444 333.115   6
  -4   5  13 924.522 565.170   1
   4   5 -12 9576.87 409.064   3
  -4   5  12 10824.3 1309.27   1
  -4  -5 -12 9792.84 1143.47   2
  -4  -5 -11 91.2092 329.195   2
  -4   5  11 370.829 424.934   1
  -4  -5 -10 231.671 378.044   2
  -4   5  10 233.461 360.939   1
  -4  -5  -9 5744.73 881.416   2
  -4   5   9 5958.53 899.326   1
  -4   5   8 1981.47 585.877   1
  -4  -5  -8 2291.66 597.225   2
  -4  -5  -7 16989.8 1331.21   2
  -4   5   7 16186.5 1339.63   1
  -4   5   6 39862.7 1917.44   1
  -4   5   5 16345.6 1217.57   1
  -4   5   4 2222.88 531.604   1
  -4   5   3 5092.33 669.083   1
  -4   5   2 2410.93 471.823   1
  -4   5   1 754.541 334.456   1
  -4   5   0-45.0248 260.609   1
  -4   5  -1 890.394 357.432   1
  -4   5  -2 2233.67 456.625   1
  -4   5  -3 4505.45 581.670   1
  -4   5  -4 2427.04 454.472   1
  -4   5  -5 16434.9 1033.18   1
  -4   5  -6 39718.5 1584.25   1
  -4   5  -7 17169.4 1066.62   1
  -4   5 -12 8449.78 374.062   3
  -4   5 -13 765.346 165.787   3
  -4   5 -14 1072.98 181.523   3
  -4   5 -15 305.082 146.854   3
  -4   5 -16 2087.90 256.724   3
  -4   5 -17 1518.84 208.007   3
  -4   5 -18 5094.05 323.689   3
  -4   5 -19 1536.28 203.848   3
  -4   5 -19 64.4361 350.909   6
  -4   5 -20 210.121 122.312   3
  -4   5 -20-140.736 309.827   6
  -4   5 -21 689.169 143.212   3
  -4   5 -22 346.856 114.764   3
  -4   5 -23 52.7792 83.9334   3
  -4   5 -24 572.222 89.1498   3
   4   6 -21 253.587 134.893   3
   4   6 -20 257.727 148.656   3
   4   6 -19 1119.72 188.634   3
   4   6 -18 199.426 154.252   3
   4   6 -17 784.836 187.486   3
   4   6 -17-71.4226 346.164   6
  -4  -6 -16 1285.01 583.462   2
   4   6 -16 1936.18 242.426   3
   4   6 -15 7188.93 393.081   3
  -4  -6 -15 4973.34 963.707   2
   4   6 -14 3384.51 341.496   3
  -4  -6 -14 1890.18 789.424   2
   4   6 -13 3940.69 288.016   3
  -4   6  13 4157.16 869.362   1
  -4  -6 -13 3492.97 804.933   2
   4   6 -12 18675.9 578.043   3
  -4   6  12 21573.4 1834.24   1
  -4  -6 -12 22378.5 1760.36   2
  -4  -6 -11 5186.32 921.147   2
  -4   6  11 5738.27 995.472   1
   4   6 -11 4505.70 289.419   3
  -4  -6 -10 749.543 446.138   2
  -4   6  10 891.529 500.046   1
  -4  -6  -9 1115.51 517.307   2
  -4   6   9 1212.15 512.514   1
  -4   6   8 13253.5 1253.63   1
  -4  -6  -8 13827.6 1300.94   2
  -4   6   7 12385.9 1171.34   1
  -4   6   6 7368.23 877.415   1
  -4   6   5 1234.48 451.232   1
  -4   6   4 816.012 412.847   1
  -4   6   3 1156.93 438.320   1
  -4   6   2 794.486 396.339   1
  -4   6   1 7171.50 760.701   1
  -4   6   0 11207.4 924.484   1
  -4   6  -1 7436.32 750.493   1
  -4   6  -2 664.024 355.504   1
  -4   6  -3 1197.35 409.857   1
  -4   6  -4 893.438 382.538   1
  -4   6  -5 1450.85 401.299   1
  -4   6  -6 8159.33 790.135   1
  -4   6  -7 13110.7 1017.65   1
  -4   6 -11 4409.05 267.286   3
  -4   6 -12 18773.3 539.995   3
  -4   6 -13 3758.39 269.001   3
  -4   6 -14 2302.03 238.741   3
  -4   6 -15 7042.26 367.054   3
  -4   6 -16 1935.62 217.564   3
  -4   6 -17 682.363 170.436   3
  -4   6 -18-48.6866 375.804   6
  -4   6 -18 332.292 146.414   3
  -4   6 -19 1021.30 168.967   3
  -4   6 -19 5.47911 358.727   6
  -4   6 -20 363.029 131.323   3
  -4   6 -21 257.734 112.695   3
  -4   6 -21-291.881 252.921   6
  -4   6 -22 10.8621 89.3784   3
  -4   6 -23 902.355 115.465   3
  -4   6 -24 364.528 71.6836   3
   4   7 -20 107.200 129.213   3
   4   7 -19 0.02416 129.156   3
   4   7 -18 1105.80 179.668   3
   4   7 -18 73.4636 313.245   6
   4   7 -17 122.514 128.365   3
   4   7 -17 319.375 429.658   6
   4   7 -16 39.3296 366.849   6
   4   7 -16 830.669 176.707   3
   4   7 -15 100.793 407.650   6
  -4  -7 -15 507.614 448.181   2
   4   7 -15 776.560 174.631   3
   4   7 -14 5214.92 369.155   3
  -4  -7 -14 3647.43 839.539   2
   4   7 -13 196.146 138.206   3
   4   7 -13-143.409 376.529   6
  -4  -7 -13 236.788 389.860   2
   4   7 -12 2131.02 219.085   3
  -4  -7 -12 2387.69 712.072   2
  -4   7  12 2645.91 717.245   1
   4   7 -11-25.8346 340.773   6
  -4  -7 -11 870.359 485.453   2
   4   7 -11 729.863 157.659   3
  -4   7  11 1083.05 565.904   1
  -4  -7 -10 4972.36 934.862   2
  -4   7  10 5131.74 913.591   1
  -4  -7  -9 31930.7 2073.01   2
  -4   7   9 30304.6 1989.42   1
  -4  -7  -8 5562.63 902.024   2
  -4   7   8 5420.63 872.748   1
  -4   7   7 12953.8 1251.68   1
  -4   7   6 34170.8 1885.72   1
  -4   7   5 194.333 452.949   1
  -4   7   4 6286.38 826.364   1
  -4   7   3 9570.68 1012.82   1
  -4   7   2 3566.62 648.418   1
  -4   7   1 2815.72 580.405   1
  -4   7   0 36.3329 301.289   1
  -4   7  -1 2810.57 530.547   1
  -4   7  -2 3411.15 584.868   1
  -4   7  -3 8935.59 869.501   1
  -4   7  -4 7286.46 806.034   1
  -4   7  -5 85.6218 284.810   1
  -4   7  -6 34061.8 1694.67   1
  -4   7  -7 12443.0 1055.30   1
  -4   7 -11 692.809 138.760   3
  -4   7 -12 2177.06 209.863   3
  -4   7 -13 250.297 135.067   3
  -4   7 -14 4467.69 290.066   3
  -4   7 -15 930.238 172.889   3
  -4   7 -16 1727.53 312.117   3
  -4   7 -17 229.408 142.980   3
  -4   7 -18 1161.88 179.916   3
  -4   7 -18 107.084 360.081   6
  -4   7 -19 28.3172 116.915   3
  -4   7 -19 109.507 326.102   6
  -4   7 -20 253.589 115.876   3
  -4   7 -20 135.654 307.864   6
  -4   7 -21 1378.82 158.042   3
  -4   7 -21 10.6303 246.023   6
  -4   7 -22 172.541 88.1675   3
  -4   7 -23 53.2779 64.2086   3
   4   8 -20 771.485 158.504   3
   4   8 -19 5.56539 129.910   3
   4   8 -19-111.115 300.907   6
   4   8 -18 19.1762 328.070   6
   4   8 -18 241.050 147.222   3
   4   8 -17 385.259 151.814   3
   4   8 -17 827.022 544.272   6
   4   8 -16-24.7849 365.713   6
   4   8 -16 84.0387 123.770   3
   4   8 -15 773.288 175.623   3
   4   8 -15 1.39243 388.109   6
  -4  -8 -15 570.491 447.110   2
  -4  -8 -14 149.545 362.132   2
   4   8 -14 5.56417 132.743   3
   4   8 -13 287.445 386.522   6
   4   8 -13 296.734 135.513   3
  -4  -8 -13 303.300 405.975   2
   4   8 -12 0.05379 380.831   6
  -4   8  12 386.635 505.899   1
   4   8 -12 479.982 155.451   3
  -4  -8 -12-20.7558 379.172   2
  -4  -8 -11 2022.89 700.709   2
  -4   8  11 2361.47 700.002   1
   4   8 -11 1905.46 215.989   3
   4   8 -10 641.377 148.123   3
   4   8 -10-58.1313 362.821   6
  -4  -8 -10 866.896 575.608   2
  -4   8  10 838.471 491.353   1
  -4  -8  -9 11665.8 1369.80   2
  -4   8   9 10909.6 1256.74   1
  -4   8   8 4615.28 850.958   1
  -4   8   7 696.303 433.745   1
  -4   8   6 632.158 396.894   1
  -4   8   5 4340.55 732.096   1
  -4   8   4 9163.35 1033.22   1
  -4   8   3 26857.1 1644.24   1
  -4   8   2 2916.23 592.650   1
  -4   8   1 99.6999 360.160   1
  -4   8   0 479.701 345.689   1
  -4   8  -1-50.6507 341.026   1
  -4   8  -2 2422.45 519.158   1
  -4   8  -3 27076.0 1561.39   1
  -4   8  -4 9586.13 1100.07   1
  -4   8  -5 4358.73 677.877   1
  -4   8  -6 485.414 331.043   1
  -4   8  -7 772.272 372.125   1
  -4   8 -10 556.804 124.001   3
  -4   8 -11 1668.22 185.837   3
  -4   8 -12 311.645 126.996   3
  -4   8 -13 281.266 123.942   3
  -4   8 -14 84.5976 120.068   3
  -4   8 -15 927.660 172.508   3
  -4   8 -16 98.0905 124.639   3
  -4   8 -17 279.116 160.737   3
  -4   8 -17 57.8114 371.983   6
  -4   8 -18-50.7452 349.235   6
  -4   8 -18 237.152 124.161   3
  -4   8 -19-308.425 327.758   6
  -4   8 -19 21.5392 102.599   3
  -4   8 -20-6.80857 338.740   6
  -4   8 -20 898.761 140.956   3
  -4   8 -21 156.302 93.8786   3
  -4   8 -21-21.9754 238.137   6
  -4   8 -22 185.502 86.7394   3
  -4   8 -23 285.774 68.4862   3
   4   9 -19 120.875 121.045   3
   4   9 -18-15.4310 320.870   6
   4   9 -18 427.466 142.697   3
   4   9 -17 941.642 181.942   3
   4   9 -17 32.6694 357.701   6
   4   9 -16 439.721 141.633   3
   4   9 -16-34.9276 377.055   6
   4   9 -15-11.5392 382.045   6
   4   9 -15 886.840 166.131   3
   4   9 -14 230.596 132.047   3
  -4  -9 -14 68.8844 399.427   2
   4   9 -13-26.2981 407.235   6
  -4  -9 -13 442.963 463.607   2
   4   9 -13 625.027 161.727   3
  -4  -9 -12-44.8114 115.290   7
   4   9 -12-82.2301 430.789   6
  -4   9  12 525.496 434.859   1
   4   9 -12 694.924 163.437   3
  -4  -9 -12 1064.04 568.651   2
  -4  -9 -11-5.98346 112.301   7
   4   9 -11 1777.80 207.730   3
  -4   9  11 1917.81 672.508   1
   4   9 -11-13.7839 374.871   6
  -4  -9 -11 2058.83 747.408   2
   4   9 -10 5476.30 303.815   3
   4   9 -10-120.761 387.703   6
  -4  -9 -10 7401.30 1191.07   2
  -4   9  10 7243.93 1115.19   1
  -4  -9  -9 24363.0 2052.77   2
  -4   9   9 22754.7 1823.00   1
  -4   9   8 1070.83 500.966   1
  -4   9   7 1454.21 533.282   1
  -4   9   6 5233.44 844.326   1
  -4   9   5 1141.18 479.593   1
  -4   9   4 3814.82 712.720   1
  -4   9   3 35570.2 1942.74   1
  -4   9   2 9616.84 1012.73   1
  -4   9   1 3997.01 728.511   1
  -4   9   0 1070.08 423.100   1
  -4   9  -1 4050.15 690.955   1
  -4   9  -2 9053.99 984.920   1
  -4   9  -3 35636.3 1880.18   1
  -4   9  -4 3660.79 662.863   1
  -4   9  -5 1178.86 449.071   1
  -4   9  -6 5670.63 817.364   1
   4  -9 -10 2480.50 321.612   7
  -4   9 -11 1627.18 176.385   3
  -4   9 -12 668.874 145.446   3
  -4   9 -13 601.974 144.811   3
  -4   9 -14 186.145 129.719   3
  -4   9 -15 904.057 159.599   3
  -4   9 -16 535.322 134.875   3
  -4   9 -17-84.8414 359.919   6
  -4   9 -17 970.659 157.677   3
  -4   9 -18 297.551 119.180   3
  -4   9 -18-24.4502 346.690   6
  -4   9 -19 129.212 107.009   3
  -4   9 -20 693.166 123.402   3
  -4   9 -20 4.07345 274.572   6
  -4   9 -21 3196.48 180.387   3
  -4   9 -22 248.319 77.5615   3
   4  10 -18-4.85727 303.174   6
   4  10 -17 864.141 166.656   3
   4  10 -17 130.489 397.319   6
   4  10 -16 390.018 147.168   3
   4  10 -16 35.5892 371.997   6
   4  10 -15 1414.33 200.552   3
   4  10 -15 1401.40 189.773   4
   4  10 -14 422.652 155.439   3
  -4 -10 -14-36.8429 408.102   2
   4  10 -13 1455.33 203.924   3
  -4 -10 -13 1316.69 600.416   2
  -4 -10 -12 5235.20 1079.45   2
   4  10 -12 4576.68 298.598   3
   4  10 -12-11.1102 399.269   6
  -4 -10 -12 14.2195 129.725   7
  -4 -10 -11-29.3981 126.158   7
   4  10 -11-68.9776 393.498   6
  -4 -10 -11 2591.36 830.951   2
   4  10 -11 2024.96 209.499   3
  -4  10  11 2576.55 750.392   1
  -4 -10 -10-1.14155 123.772   7
   4  10 -10 33.6951 372.572   6
   4  10 -10 347.139 131.604   3
  -4 -10 -10 217.363 452.622   2
  -4  10  10 716.186 441.287   1
  -4 -10  -9-59.7129 133.944   7
   4  10  -9 127.720 392.887   6
  -4 -10  -9 3052.17 838.441   2
  -4  10   9 2965.50 745.400   1
  -4 -10  -8-0.17312 132.104   7
   4  10  -8-40.5780 348.467   6
   4  10  -7-737.810 367.671   6
  -4 -10  -7-26.5921 127.658   7
  -4  10   6 60.3087 327.550   1
  -4  10   5 1453.61 509.723   1
  -4  10   4 526.851 391.033   1
  -4  10   3 622.766 421.799   1
  -4  10   2 6345.72 894.236   1
  -4  10   1 4758.08 766.383   1
  -4  10   0 28736.4 1768.99   1
  -4  10  -1 5380.73 810.729   1
  -4  10  -2 6312.86 877.393   1
  -4  10  -3 413.308 352.142   1
  -4  10  -4 585.243 368.773   1
  -4  10  -5 1563.94 497.304   1
  -4  10  -6 127.346 306.637   1
   4 -10  -9 178.951 185.572   7
   4 -10 -10 25.0215 172.733   7
  -4  10 -11 1741.43 178.442   3
   4 -10 -11-16.3912 142.167   7
  -4  10 -12 4698.87 267.615   3
  -4  10 -13 1325.91 173.417   3
  -4  10 -14 294.128 126.941   3
  -4  10 -15 1410.31 174.940   3
  -4  10 -16-671.015 398.561   6
  -4  10 -16 301.880 121.626   3
  -4  10 -17 20.7312 344.086   6
  -4  10 -17 727.613 137.387   3
  -4  10 -18 961.221 136.504   3
  -4  10 -18 70.6221 314.521   6
  -4  10 -19 158.366 95.8965   3
  -4  10 -19-40.5970 338.766   6
  -4  10 -20 926.941 120.097   3
  -4  10 -20 171.458 266.449   6
  -4  10 -21 60.1575 65.1852   3
  -4  10 -21-3.31989 210.632   6
  -4  10 -22 98.0844 54.4903   3
   4  11 -18-127.858 317.787   6
   4  11 -17-69.2663 336.417   6
   4  11 -16-73.9516 367.520   6
   4  11 -15 56.4486 370.323   6
   4  11 -14 661.533 167.265   3
   4  11 -14 2580.19 607.056   6
  -4 -11 -13-2.82456 122.955   7
   4  11 -13 2530.48 232.659   3
  -4 -11 -13 1776.60 728.997   2
   4  11 -13-176.922 399.831   6
  -4 -11 -12 7286.97 1289.02   2
   4  11 -12 5994.09 325.644   3
   4  11 -12 131.561 400.694   6
  -4 -11 -11 97.8053 135.668   7
  -4  11  11 396.732 424.127   1
  -4 -11 -11 326.376 482.354   2
  -4  11  10 90.0905 344.391   1
   4  11 -10-31.5318 380.622   6
  -4 -11 -10 279.302 464.449   2
  -4 -11 -10-34.2670 139.306   7
   4  11  -9 35.7477 507.670   6
  -4 -11  -9 1855.43 725.782   2
  -4 -11  -9 0.66285 143.099   7
  -4  11   9 1824.85 680.919   1
   4  11  -8-90.2640 398.586   6
  -4 -11  -8-5.98033 138.592   7
  -4 -11  -7-10.2819 150.813   7
   4  11  -7-45.4119 353.071   6
  -4 -11  -6-14.2033 136.092   7
   4  11  -6-130.433 353.608   6
  -4 -11  -5-24.8866 136.790   7
   4  11  -5-1.86772 348.329   6
  -4 -11  -4 20.7319 139.336   7
  -4  11   4 162.810 351.717   1
  -4  11   3 405.147 328.157   1
  -4  11   2 310.703 369.694   1
  -4  11   1 234.342 344.667   1
  -4  11   0 240.734 390.944   1
  -4  11  -1 166.247 343.033   1
  -4  11  -2 472.511 368.331   1
  -4  11  -3 423.675 379.413   1
  -4  11  -4-20.8774 328.630   1
  -4  11  -5 3314.84 720.240   1
  -4  11  -6 21482.4 1661.30   1
   4 -11  -8-114.772 202.151   7
   4 -11  -9-103.885 180.946   7
   4 -11 -10 50.2908 196.402   7
   4 -11 -11-32.3340 178.204   7
   4 -11 -12-25.9771 152.105   7
  -4  11 -13 2290.68 197.488   3
  -4  11 -14 658.958 143.041   3
  -4  11 -15 52.5830 364.218   6
  -4  11 -15 345.091 148.982   3
  -4  11 -16 303.945 109.477   3
  -4  11 -16-55.4527 376.937   6
  -4  11 -17 25.0027 350.836   6
  -4  11 -17 365.657 109.847   3
  -4  11 -18-41.4517 317.240   6
  -4  11 -18 1580.44 150.948   3
  -4  11 -19 442.902 92.9482   3
  -4  11 -19-45.6651 289.000   6
  -4  11 -20 92.9167 61.3941   3
  -4  11 -21 4.72427 48.0787   3
  -4  11 -21 73.6246 203.848   6
   4  12 -18 55.3926 286.252   6
   4  12 -17 19.0843 309.052   6
   4  12 -16 373.187 122.636   4
   4  12 -16-81.7381 339.869   6
   4  12 -15 153.673 372.108   6
   4  12 -14 77.4719 373.185   6
  -4 -12 -13-31.0002 135.741   7
   4  12 -13 656.696 490.569   6
  -4 -12 -12-22.4951 141.875   7
   4  12 -12-104.132 397.827   6
  -4 -12 -11-7.86788 142.857   7
   4  12 -11 772.719 461.598   6
  -4  12  10-28.7744 405.164   1
  -4 -12 -10-8.51694 155.335   7
   4  12 -10 26.5918 383.020   6
  -4 -12 -10 130.139 476.684   2
   4  12  -9 259.091 452.372   6
  -4 -12  -9 5234.71 1136.28   2
  -4 -12  -9-4.79945 159.978   7
  -4  12   9 4402.99 928.731   1
   4  12  -8-28.7371 388.964   6
  -4 -12  -8 4.62576 150.933   7
   4  12  -7-43.4687 365.098   6
  -4 -12  -7 75.5861 204.598   7
  -4 -12  -6 15.7669 154.165   7
   4  12  -6 44.9286 359.676   6
  -4  12   6 132.489 402.012   1
  -4 -12  -5 32.6789 152.257   7
   4  12  -5 7.51305 351.011   6
  -4 -12  -4 70.7373 167.823   7
   4  12  -4-109.435 355.253   6
  -4  12   4 215.866 392.508   1
  -4 -12  -3 84.1692 163.750   7
   4  12  -3-22.2041 313.222   6
  -4  12   3 598.255 425.199   1
  -4 -12  -2 20.1136 142.808   7
  -4  12   2 1541.04 555.902   1
  -4 -12  -1 99.0131 155.946   7
  -4  12   1 4162.97 809.611   1
  -4 -12   0 43.8930 151.988   7
  -4  12   0 16953.3 1514.65   1
  -4 -12   1 6.85894 144.514   7
  -4  12  -1 4198.04 806.848   1
  -4 -12   2-4.06705 138.225   7
  -4  12  -2 1349.47 509.363   1
  -4  12  -3 370.586 418.385   1
  -4  12  -4 87.3887 332.552   1
  -4  12  -5 1989.91 627.991   1
   4 -12  -6-13.5445 190.585   7
   4 -12  -7 1578.85 294.530   7
   4 -12  -8-46.6610 193.739   7
   4 -12  -9-19.1368 191.362   7
   4 -12 -10 41.8412 200.557   7
   4 -12 -11-132.509 189.354   7
   4 -12 -12 29.8595 164.625   7
  -4  12 -13-49.9267 363.513   6
  -4  12 -14-233.371 363.306   6
  -4  12 -15-155.598 372.783   6
  -4  12 -16 176.300 481.744   6
  -4  12 -16 392.506 106.630   3
  -4  12 -17 446.677 98.2125   3
  -4  12 -17-46.1654 308.301   6
  -4  12 -18 637.699 93.7822   3
  -4  12 -18 5.68251 284.080   6
  -4  12 -19 138.285 290.224   6
  -4  12 -20-21.4281 212.168   6
  -4  12 -21 108.041 169.580   6
   4  13 -17 101.568 299.742   6
   4  13 -16 133.718 102.809   4
   4  13 -16-42.4397 336.797   6
   4  13 -15 94.3891 124.027   4
   4  13 -15 25.4736 351.926   6
   4  13 -14 353.040 401.999   6
   4  13 -13 358.166 510.951   6
   4  13 -12 162.710 402.037   6
  -4 -13 -12-57.3950 151.574   7
  -4 -13 -11-67.2920 157.182   7
   4  13 -11 2033.30 594.094   6
   4  13 -10 29.0829 405.363   6
  -4 -13 -10 261.665 166.783   7
  -4 -13  -9 8497.89 1466.26   2
   4  13  -9 184.554 449.575   6
  -4  13   9 6351.79 1118.93   1
  -4 -13  -8 45.0157 169.003   7
   4  13  -8 891.854 518.712   6
  -4  13   8 239.582 383.826   1
  -4 -13  -7 62.9433 164.770   7
   4  13  -7 90.6419 367.735   6
  -4 -13  -6 544.549 198.982   7
   4  13  -6-61.4119 374.415   6
  -4 -13  -5 63.9945 171.942   7
   4 -13   5-58.9969 173.420   7
   4  13  -5-5.51123 367.409   6
  -4  13   5 366.472 415.328   1
   4 -13   4-19.2314 193.855   7
   4  13  -4 35.5776 342.510   6
  -4 -13  -4 389.253 307.363   7
  -4 -13  -3 66.6030 163.561   7
   4  13  -3-83.6118 350.372   6
  -4 -13  -2-15.7080 165.866   7
   4  13  -2 29.6032 319.063   6
  -4 -13  -1 53.8593 164.529   7
  -4  13   1 269.850 399.548   1
  -4 -13   0-84.3503 171.394   7
  -4  13   0 1067.49 494.785   1
  -4 -13   1 30.6111 160.160   7
  -4  13  -1 445.026 395.032   1
  -4 -13   2-219.186 192.333   7
  -4  13  -2 1367.89 536.234   1
  -4 -13   3-55.1802 174.277   7
  -4  13  -3 12446.4 1365.22   1
   4 -13  -4 8.22454 212.213   7
  -4  13  -4 1414.39 535.688   1
   4 -13  -5-8.29269 201.086   7
  -4  13  -5 293.135 396.735   1
   4 -13  -6 52.2512 219.292   7
   4 -13  -7 1038.66 292.998   7
   4 -13  -8 28.4107 207.568   7
   4 -13  -9-52.1745 202.661   7
  -4  13 -10 229.417 364.504   6
   4 -13 -10 5177.10 394.674   7
   4 -13 -11 30.4496 186.772   7
  -4  13 -11 1034.96 457.918   6
   4 -13 -12-38.0896 174.806   7
  -4  13 -12-162.051 363.824   6
  -4  13 -13-65.4385 346.844   6
   4 -13 -13 171.002 195.341   7
  -4  13 -14-35.8863 341.296   6
  -4  13 -15-268.543 343.657   6
  -4  13 -16 41.2488 312.251   6
  -4  13 -17 13.5152 286.637   6
  -4  13 -18 13.2154 275.054   6
  -4  13 -19 114.553 248.524   6
  -4  13 -20-57.7815 193.051   6
  -4  13 -21 150.936 140.755   6
   4  14 -16 211.098 98.3051   4
   4  14 -16-77.1756 297.775   6
   4  14 -15-43.5051 328.450   6
   4  14 -15 2287.38 191.461   4
   4  14 -14 41.3045 352.868   6
   4  14 -13 148.215 397.600   6
   4  14 -12-77.3935 372.688   6
  -4 -14 -12-37.8694 157.824   7
  -4 -14 -11-4.59989 148.233   7
   4  14 -11 2989.41 754.249   6
   4  14 -10 498.596 444.081   6
  -4 -14 -10 210.199 205.954   7
  -4 -14  -9 15.8116 171.175   7
   4  14  -9-18.8219 416.640   6
  -4 -14  -8-71.8348 180.832   7
   4  14  -8 475.848 502.692   6
  -4 -14  -7 64.0118 177.987   7
  -4  14   7 75.8687 371.681   1
   4  14  -7 118.234 395.459   6
  -4 -14  -6-11.0204 172.473   7
   4  14  -6-20.9265 396.533   6
  -4  14   6-30.0779 349.266   1
  -4 -14  -5 6.29351 177.066   7
   4 -14   5-2.46932 179.970   7
   4  14  -5-176.782 375.926   6
  -4  14   5-8.61877 396.763   1
   4 -14   4 0.62473 177.320   7
   4  14  -4 49.8658 368.958   6
  -4 -14  -3 66.3466 191.024   7
   4  14  -3-213.546 398.685   6
   4 -14   3-42.7442 202.275   7
  -4 -14  -2 80.8478 199.422   7
   4 -14   2 18.4459 206.498   7
  -4 -14  -1-4.96839 170.434   7
   4 -14   1 32.0085 210.524   7
  -4 -14   0 46.9775 173.442   7
   4 -14   0-7.29721 211.365   7
  -4 -14   1-10.1433 162.551   7
   4 -14  -1 13.7811 212.211   7
   4 -14  -2 381.228 237.861   7
  -4 -14   2-13.6688 172.169   7
   4 -14  -3 11.5586 213.949   7
  -4 -14   3-1.53503 164.443   7
   4 -14  -4 461.050 278.531   7
  -4  14  -4 3410.85 790.435   1
  -4  14  -5 36.0900 310.700   6
   4 -14  -5 43.9883 219.763   7
   4 -14  -6 62.5769 224.505   7
  -4  14  -6-94.9082 326.019   6
  -4  14  -7 1524.81 396.310   6
   4 -14  -7 57.2996 263.866   7
   4 -14  -8 112.295 260.940   7
  -4  14  -8 833.705 391.853   6
   4 -14  -9-44.1152 211.699   7
  -4  14  -9 23.7196 349.669   6
   4 -14 -10 101.521 229.153   7
  -4  14 -10-84.6233 347.402   6
   4 -14 -11-60.3289 193.335   7
  -4  14 -11-32.6006 338.800   6
  -4  14 -12-26.3168 346.370   6
   4 -14 -12 80.0633 174.656   7
  -4  14 -13 196.448 382.586   6
   4 -14 -13 194.754 211.081   7
  -4  14 -15 129.115 315.289   6
  -4  14 -16 97.4813 294.467   6
  -4  14 -17-59.9377 255.417   6
  -4  14 -18 376.662 254.544   6
  -4  14 -19-196.924 205.846   6
  -4  14 -20-31.5803 154.086   6
   4  15 -16 2.80236 70.7960   4
   4  15 -15-5.67928 93.4818   4
   4  15 -15-46.1116 294.040   6
   4  15 -14-139.630 344.833   6
   4  15 -13 237.977 394.908   6
   4  15 -12-9.35645 350.731   6
  -4 -15 -12-43.0208 159.744   7
  -4 -15 -11 9207.85 434.405   7
   4  15 -11 995.348 473.928   6
  -4 -15 -10-11.8186 166.818   7
   4  15 -10 305.834 386.606   6
  -4 -15  -9 3.00905 165.528   7
   4  15  -9-165.163 402.856   6
   4  15  -8 2163.61 636.175   6
  -4 -15  -8 4.01248 169.963   7
   4  15  -7-70.9817 386.452   6
  -4 -15  -7 688.156 266.499   7
   4  15  -6-72.6713 393.134   6
  -4 -15  -6 11.4141 181.025   7
  -4 -15  -5 3088.83 303.030   7
   4  15  -5-57.7735 377.710   6
  -4  15   5 3128.95 807.975   1
   4 -15   5-31.0434 193.688   7
  -4 -15  -4 1322.08 482.375   7
   4 -15   4-2.85311 205.464   7
  -4  15   4 1643.08 674.864   1
   4  15  -4 189.928 382.230   6
  -4 -15  -3-3.73376 186.581   7
   4 -15   3 19.5939 209.704   7
  -4 -15  -2-68.7014 200.708   7
   4 -15   2-35.7061 206.042   7
  -4 -15  -1-62.9766 196.565   7
   4 -15   1 9.91836 226.512   7
  -4 -15   0-37.9912 186.438   7
   4 -15   0-31.5877 217.892   7
  -4  15   0 0.25334 376.187   1
   4 -15  -1-67.3205 226.788   7
  -4 -15   1-26.8919 175.650   7
   4 -15  -2-15.3223 233.623   7
  -4  15  -2 482.697 400.200   1
  -4 -15   2 85.9726 206.532   7
  -4 -15   3 14.2396 182.338   7
   4 -15  -3 0.94054 216.196   7
  -4 -15   4-38.6542 178.593   7
   4 -15  -4-8.49543 222.917   7
   4 -15  -5-17.0313 227.118   7
   4 -15  -6 35.0854 216.998   7
  -4  15  -6-219.383 316.770   6
   4 -15  -7 72.4007 231.140   7
  -4  15  -7-243.388 343.466   6
  -4  15  -8 391.150 361.444   6
   4 -15  -8 145.991 252.528   7
   4 -15  -9-43.8970 223.764   7
  -4  15  -9 86.2091 333.869   6
   4 -15 -10-72.4523 199.945   7
  -4  15 -10 21.4627 339.554   6
   4 -15 -11 96.0037 194.055   7
  -4  15 -11 57.8782 339.535   6
  -4  15 -12-59.1610 308.146   6
   4 -15 -12 26.0889 164.917   7
  -4  15 -13 203.390 341.986   6
   4 -15 -13 628.981 280.299   7
  -4  15 -14 94.5282 304.301   6
  -4  15 -15-65.1829 279.300   6
  -4  15 -16-83.7107 253.611   6
  -4  15 -17-24.7346 226.239   6
  -4  15 -18 119.295 201.273   6
  -4  15 -19-69.5918 162.204   6
   4  16 -15 243.331 109.945   4
   4  16 -14 16.0946 91.5402   4
   4  16 -13 796.588 390.699   6
   4  16 -12-70.4748 327.657   6
  -4 -16 -11-4.73161 166.921   7
   4  16 -11-134.233 346.989   6
   4  16 -10 3601.71 593.475   6
  -4 -16 -10 13.8984 170.505   7
   4  16  -9 153.584 359.958   6
  -4 -16  -9 54.2835 176.533   7
   4  16  -8 260.016 404.218   6
  -4 -16  -8 7.23302 179.928   7
   4  16  -7 685.101 413.366   6
  -4 -16  -7 0.06188 179.623   7
  -4 -16  -6 71.1714 199.916   7
   4  16  -6 98.7227 356.973   6
  -4 -16  -5-7.86510 189.850   7
   4 -16   5-15.8791 186.780   7
  -4 -16  -4 158.530 194.713   7
   4 -16   4 44.1505 196.040   7
   4 -16   3 219.159 239.368   7
  -4 -16  -3 8.08461 189.105   7
  -4  16   2-50.9962 342.601   1
  -4 -16  -2 327.590 226.795   7
   4 -16   2 110.920 230.689   7
   4 -16   1 74.2147 225.245   7
  -4 -16  -1 74.9181 203.220   7
  -4  16   1-183.979 450.612   1
  -4 -16   0 27.5470 193.113   7
  -4  16   0 140.985 410.307   1
   4 -16   0 640.504 388.579   7
  -4 -16   1 34.1122 173.681   7
   4 -16  -1-6.61899 230.377   7
  -4  16  -1 22.9042 347.575   1
  -4 -16   2 5.37614 183.276   7
   4 -16  -2 26.6155 239.857   7
  -4 -16   3-1.13949 182.786   7
   4 -16  -3 42.3013 238.171   7
   4 -16  -4-3.12892 229.410   7
  -4 -16   4-17.0931 171.787   7
   4 -16  -5 931.178 296.279   7
   4 -16  -6-56.7167 228.716   7
  -4  16  -6-89.8695 304.920   6
  -4  16  -7 3043.45 431.234   6
   4 -16  -7 496.811 296.069   7
  -4  16  -8 153.692 348.385   6
   4 -16  -8 107.997 258.587   7
  -4  16  -9 8.00143 316.336   6
   4 -16  -9 7.98958 199.741   7
   4 -16 -10 59.3151 196.816   7
  -4  16 -10 218.197 314.991   6
  -4  16 -11-31.7805 292.579   6
   4 -16 -11 42.2512 173.226   7
   4 -16 -12-49.6388 156.019   7
  -4  16 -12-145.382 288.520   6
   4 -16 -13 64.9105 147.656   7
  -4  16 -13-35.5193 280.093   6
  -4  16 -14 10.4193 260.455   6
  -4  16 -15-222.584 252.507   6
  -4  16 -16-135.270 232.374   6
  -4  16 -17 259.796 207.373   6
  -4  16 -18 53.9909 159.468   6
   4  17 -15 56.8887 62.8044   4
   4  17 -14 236.621 91.9840   4
  -4 -17 -10 11.3025 166.314   7
  -4 -17  -9-15.1972 168.070   7
  -4 -17  -8-25.1785 181.591   7
  -4 -17  -7 46.2487 187.637   7
  -4 -17  -6 4.95903 189.047   7
  -4 -17  -5-0.50888 186.411   7
   4 -17   5-22.7510 180.865   7
  -4 -17  -4 76.9812 190.916   7
   4 -17   4 3.69921 191.467   7
  -4 -17  -3 21.3652 199.796   7
   4 -17   3-6.02734 196.938   7
   4 -17   2-96.9830 204.685   7
  -4 -17  -2-2.18369 189.400   7
   4 -17   1 27.2293 204.058   7
  -4 -17  -1-35.0691 192.282   7
   4 -17   0 35.0801 239.526   7
  -4 -17   0 2.12214 184.545   7
   4 -17  -1 30.3430 227.606   7
  -4 -17   1-51.0584 191.563   7
   4 -17  -2 1.61115 218.565   7
  -4 -17   2-2.54540 173.417   7
  -4 -17   3 45.2343 176.294   7
   4 -17  -3 153.369 238.416   7
   4 -17  -4 2.24836 222.970   7
   4 -17  -5 286.398 252.333   7
   4 -17  -6 161.235 222.822   7
   4 -17  -7 86.2748 241.547   7
   4 -17  -8 34.9500 225.877   7
  -4  17  -8 89.4519 299.807   6
  -4  17  -9-213.759 286.955   6
   4 -17  -9 135.279 370.700   7
   4 -17 -10 293.127 198.311   7
  -4  17 -10-223.141 284.679   6
   4 -17 -11-9.01045 173.140   7
   4 -17 -12 29.0431 139.820   7
  -4  17 -12 98.2957 262.223   6
  -4  17 -13 12.0019 244.001   6
  -4  17 -14-75.9543 233.592   6
  -4  17 -15 10.7444 206.918   6
  -4  17 -16 159.377 186.300   6
  -4  17 -17-23.0155 153.048   6
   4  18 -14 243.292 78.4585   4
   4  18 -13 187.487 84.8018   4
  -4 -18  -9-6.04367 154.888   7
  -4 -18  -8 6.87842 168.282   7
  -4 -18  -7 27.7115 177.892   7
  -4 -18  -6 171.750 203.384   7
  -4 -18  -5 211.082 208.411   7
   4 -18   4-6.76717 178.181   7
  -4 -18  -4-125.240 200.699   7
   4 -18   3 0.09360 180.963   7
  -4 -18  -3 13.0337 191.424   7
  -4 -18  -2 157.087 202.346   7
   4 -18   2-17.7384 204.250   7
  -4 -18  -1-25.9502 180.931   7
   4 -18   1 27.2466 216.048   7
  -4 -18   0-4.16366 176.651   7
   4 -18   0 81.5266 215.433   7
  -4 -18   1-82.9196 185.699   7
   4 -18  -1-10.1615 206.506   7
  -4 -18   2-19.9059 172.751   7
   4 -18  -2-43.0881 213.851   7
   4 -18  -3-93.5181 220.339   7
   4 -18  -4-171.666 225.402   7
   4 -18  -5 616.768 270.043   7
   4 -18  -6-32.6215 202.016   7
   4 -18  -7-10.7354 204.443   7
  -4  18  -8-129.177 246.261   6
   4 -18  -8 228.711 250.369   7
   4 -18  -9-47.9008 174.113   7
  -4  18  -9 40.1624 248.785   6
   4 -18 -10-33.3473 160.820   7
  -4  18 -10-144.058 241.421   6
  -4  18 -11 4.25365 231.721   6
   4 -18 -11 138.286 166.890   7
   4 -18 -12 22.8631 114.332   7
  -4  18 -12 134.013 217.679   6
  -4  18 -13 55.6799 202.178   6
  -4  18 -14-127.995 188.937   6
  -4  18 -15-187.884 173.758   6
  -4  18 -16 75.5784 135.183   6
   4  19 -13 47.4096 62.1546   4
   4  19 -12 166.826 82.0051   4
   4  19 -11 268.429 97.6238   4
  -4 -19  -7 469.214 208.754   7
  -4 -19  -6-75.8251 181.651   7
  -4 -19  -5 143.168 192.146   7
  -4 -19  -4-38.2525 185.955   7
   4 -19   4 11.8520 157.071   7
   4 -19   3 38.8511 179.065   7
  -4 -19  -3-117.769 205.449   7
   4 -19   2-47.1686 193.044   7
  -4 -19  -2-96.8754 189.010   7
   4 -19   1-117.730 204.832   7
  -4 -19  -1 92.0405 189.258   7
   4 -19   0 116.349 211.874   7
  -4 -19   0-84.1159 184.262   7
  -4 -19   1 33.1683 176.120   7
   4 -19  -1 29.1029 204.745   7
   4 -19  -2-10.4021 201.258   7
   4 -19  -3 28.0345 195.584   7
   4 -19  -4 51.5605 200.888   7
   4 -19  -5 70.4939 197.546   7
   4 -19  -6 64.1795 202.007   7
   4 -19  -7-11.3013 174.440   7
   4 -19  -8 122.504 182.935   7
   4 -19  -9 12.4661 155.898   7
   4 -19 -10 61.2886 135.132   7
  -4  19 -10 58.8576 188.018   6
   4 -19 -11 586.397 148.034   7
  -4  19 -11-102.313 183.942   6
  -4  19 -12-71.8450 173.989   6
  -4  19 -13-112.922 160.697   6
  -4  19 -14 0.45483 132.334   6
   4  20 -12 946.793 88.7816   4
   4  20 -11 514.177 83.5650   4
   4  20 -10 10.7777 71.5768   4
  -4 -20  -4-24.3725 157.751   7
   4 -20   4-86.6379 146.267   7
   4 -20   3-2.13670 147.817   7
  -4 -20  -3-13.8080 156.211   7
   4 -20   2 5.77596 155.024   7
   4 -20   1-8.57786 177.319   7
   4 -20   0-1.91400 164.121   7
   4 -20  -1 92.6293 185.410   7
   4 -20  -2 82.9955 187.773   7
   4 -20  -3 7.61281 179.787   7
   4 -20  -4 298.768 195.520   7
   4 -20  -5 92.2256 177.999   7
   4 -20  -6 41.5301 162.736   7
   4 -20  -7 26.9268 153.095   7
   4 -20  -8-51.3513 142.302   7
   4 -20  -9-20.6509 121.001   7
   4 -20 -10-70.9448 112.806   7
   4  21 -10 68.9843 54.5434   4
   4  21  -9 474.944 79.1431   4
   4  21  -8 316.689 82.0144   4
   4  21  -7 416.449 89.1050   4
   4  21  -6 2401.50 157.549   4
   4 -21   3 126.966 118.058   7
   4  21  -2 193.408 84.1694   4
   4 -21   2 21.3799 133.362   7
   4  21  -1 78.3995 71.7504   4
   4 -21   1 42.1870 141.142   7
   4 -21   0 88.6589 156.487   7
   4 -21  -1-39.1531 146.428   7
   4 -21  -2 7.05885 144.171   7
   4 -21  -3-49.9765 152.449   7
   4 -21  -4 48.2518 149.345   7
   4 -21  -5 60.0966 143.780   7
   4 -21  -6 64.3958 142.887   7
   4 -21  -7 74.6620 131.108   7
   4 -21  -8 65.1140 108.479   7
   4 -21  -9-8.20597 91.6261   7
   4  22  -6 238.221 65.5516   4
   4  22  -5 154.386 61.7466   4
   4  22  -4 44.2447 56.6753   4
   4 -22   1 14.8800 100.522   7
   4 -22   0 17.2695 108.024   7
   4 -22  -1-16.3652 113.929   7
   4 -22  -2-26.2342 118.885   7
   4 -22  -3 32.9759 119.830   7
   4 -22  -4 49.9052 115.459   7
   4 -22  -5-5.90233 106.072   7
   4 -22  -6 102.570 101.541   7
  -5   0   0-29.2822 191.659   2
  -5   0  -1 3448.28 417.708   2
  -5   0   1 3758.63 371.007   2
  -5   0  -2 5448.11 552.920   2
  -5   0   2 5057.63 362.835   2
  -5   0   3 2657.38 211.418   2
  -5   0  -3 3128.40 437.404   2
  -5   0  -3 3271.44 376.511   1
  -5   0  -4 62.4217 141.020   1
  -5   0  -4 30.5570 223.610   2
  -5   0  -5 1756.88 204.102   1
  -5   0  -5 2722.53 444.247   2
  -5   0  -6 1384.13 427.148   2
  -5   0  -7 7723.00 773.383   2
  -5   0  -8 29862.0 1560.78   2
  -5   0  -9 8900.08 916.765   2
  -5   0 -10 8222.89 904.107   2
  -5   0 -11 5542.60 812.227   2
  -5   0 -12-110.513 339.073   2
   5   0 -12-60.7184 138.477   3
  -5   0 -13 525.676 449.683   2
  -5   0 -13 598.605 158.841   3
   5   0 -13 530.385 158.593   3
   5   0 -14 3299.31 278.871   3
  -5   0 -14 3648.52 290.940   3
  -5   0 -14 3147.40 707.659   2
   5   0 -15 9629.81 448.980   3
  -5   0 -15 9645.20 436.709   3
   5   0 -16 4421.98 325.098   3
  -5   0 -16 4589.28 324.764   3
  -5   0 -16 3569.02 806.335   2
  -5   0 -17 1844.51 247.604   3
   5   0 -17 1891.03 251.939   3
   5   0 -18 65.9372 163.450   3
  -5   0 -18 168.913 145.273   3
   5   0 -19-17.6324 167.598   3
  -5   0 -19-62.6494 143.870   3
   5   0 -20 169.583 150.726   3
  -5   0 -20 353.649 144.511   3
  -5   0 -21 421.287 140.443   3
  -5   0 -22 58.5190 105.301   3
  -5   0 -23 1433.50 148.772   3
  -5   0 -24 68.7995 66.2948   3
  -5  -1 -24 463.587 79.8039   3
  -5  -1 -23 582.696 110.938   3
  -5  -1 -22 1240.75 157.694   3
  -5  -1 -21 6851.47 331.148   3
  -5  -1 -20 105.396 127.752   3
   5   1 -20 39.9911 149.491   3
   5   1 -19 210.351 156.716   3
  -5  -1 -19 58.6788 149.971   3
  -5  -1 -18 3939.67 306.108   3
   5   1 -18 4043.46 314.347   3
   5   1 -17 2182.87 258.405   3
  -5  -1 -17 1187.58 556.397   2
  -5  -1 -17 1673.96 259.184   3
  -5  -1 -16 178.333 361.422   2
  -5  -1 -16 106.188 158.778   3
   5   1 -16 166.880 148.391   3
   5   1 -15 1151.11 238.103   3
  -5   1  15 500.254 455.555   1
  -5  -1 -15 837.571 465.144   2
  -5  -1 -15 1262.12 211.805   3
   5   1 -14 1947.43 229.133   3
  -5  -1 -14 2222.54 621.058   2
  -5  -1 -14 2165.11 233.481   3
   5   1 -13 1748.60 212.092   3
  -5  -1 -13 1779.76 604.285   2
  -5  -1 -13 1947.38 226.930   3
   5   1 -12 337.640 140.467   3
  -5  -1 -12 329.258 327.649   2
  -5  -1 -11 99.6645 289.691   2
  -5  -1 -10 2753.42 553.459   2
  -5  -1  -9 25228.4 1465.31   2
  -5  -1  -8 10578.1 924.952   2
  -5  -1  -7 7031.61 733.133   2
  -5  -1  -6 20303.9 1192.67   2
  -5  -1  -5 20696.2 1156.34   2
  -5  -1  -5 5822.61 243.405   1
  -5  -1  -4 16209.6 999.639   2
  -5  -1  -4 13351.5 582.752   1
  -5  -1  -3 36480.4 1390.59   2
  -5  -1  -2 4247.95 492.303   2
  -5   1   2 3981.86 279.492   2
  -5  -1  -1 3524.91 463.723   2
  -5   1   1 3225.19 322.648   2
  -5   1   0 395.479 202.536   2
  -5  -1   0 482.990 251.429   2
  -5   1  -1 3586.66 404.017   2
  -5   1  -2 4338.12 517.450   1
  -5   1  -2 4134.05 485.770   2
  -5   1  -3 36038.7 1191.74   1
  -5   1  -3 36057.0 1295.74   2
  -5   1  -4 15506.3 738.690   1
  -5   1  -4 15768.6 917.551   2
  -5   1  -5 18983.9 752.888   1
  -5   1  -5 21197.7 1117.91   2
  -5   1  -6 12621.6 519.903   1
  -5   1  -6 21749.5 1190.15   2
  -5   1  -7 7436.57 780.861   2
  -5   1  -8 10547.4 953.633   2
  -5   1  -9 25645.7 1491.90   2
  -5   1 -10 3005.46 577.358   2
  -5   1 -11 18.5774 300.915   2
  -5   1 -12 357.394 351.145   2
   5  -1 -13 1682.64 211.867   3
  -5   1 -13 1881.86 570.521   2
  -5   1 -13 1990.47 220.913   3
  -5   1 -14 2052.83 615.944   2
   5  -1 -14 2009.57 228.784   3
  -5   1 -14 2478.07 256.157   3
  -5   1 -15 948.116 528.106   2
  -5   1 -15 1147.04 201.663   3
   5  -1 -15 973.105 185.979   3
   5  -1 -16 237.799 153.047   3
  -5   1 -16 201.367 146.222   3
  -5   1 -16 196.266 359.191   2
   5  -1 -17 2325.15 271.006   3
  -5   1 -17 2391.60 259.063   3
   5  -1 -18 3392.65 302.518   3
  -5   1 -18 3755.78 298.860   3
   5  -1 -19 118.660 153.712   3
  -5   1 -19 183.977 149.303   3
  -5   1 -20 210.123 134.933   3
  -5   1 -21 6577.71 333.164   3
  -5   1 -22 1146.53 152.650   3
  -5   1 -23 624.998 113.776   3
  -5   1 -24 537.861 87.8241   3
  -5  -2 -23 1713.36 141.576   3
  -5  -2 -22 189.793 105.547   3
  -5  -2 -21 540.130 137.383   3
  -5  -2 -20 587.466 176.849   3
   5   2 -20 621.790 171.787   3
   5   2 -19 251.691 170.090   3
  -5  -2 -19 57.4371 142.757   3
  -5  -2 -18 120.203 147.248   3
   5   2 -18 144.760 162.663   3
  -5  -2 -17 314.896 408.953   2
  -5  -2 -17 454.793 181.808   3
   5   2 -17 480.828 176.640   3
  -5  -2 -16 616.780 454.479   2
  -5  -2 -16 955.974 195.186   3
   5   2 -16 1038.85 222.729   3
   5   2 -15 1289.89 203.339   3
  -5  -2 -15 1343.54 544.391   2
  -5  -2 -15 1253.81 217.464   3
   5   2 -14 1042.63 198.233   3
  -5   2  14 1261.40 659.430   1
  -5  -2 -14 1191.25 203.567   3
  -5  -2 -14 791.400 466.924   2
   5   2 -13 2932.00 263.044   3
  -5   2  13 3918.03 934.938   1
  -5  -2 -13 3231.91 267.096   3
  -5  -2 -13 3182.51 720.479   2
   5   2 -12 5082.10 307.916   3
  -5  -2 -12 5002.66 823.955   2
  -5  -2 -11 4977.17 771.658   2
  -5  -2 -10 416.772 336.915   2
  -5  -2  -9 1066.28 423.402   2
  -5  -2  -8 7569.37 859.525   2
  -5  -2  -7 7239.07 785.696   2
  -5  -2  -6 467.879 359.577   2
  -5  -2  -5 6988.09 729.336   2
  -5  -2  -4 3733.80 549.562   2
  -5  -2  -3 3845.91 544.969   2
  -5   2   1 236.779 166.650   2
  -5   2   0 13106.3 898.813   1
  -5   2   0 13201.4 674.230   2
  -5   2  -1 306.333 227.112   2
  -5   2  -1 308.057 261.675   1
  -5   2  -2 1574.87 338.907   1
  -5   2  -2 1588.67 325.115   2
  -5   2  -3 3982.25 462.009   1
  -5   2  -3 3997.75 480.728   2
  -5   2  -4 4126.58 518.363   2
  -5   2  -4 4024.50 452.546   1
  -5   2  -5 6993.33 537.631   1
  -5   2  -5 7317.64 698.362   2
  -5   2  -6 493.668 342.256   2
  -5   2  -6 251.138 186.484   1
  -5   2  -7 7563.41 776.878   2
  -5   2  -8 8122.73 869.439   2
  -5   2  -9 879.231 392.110   2
  -5   2 -10 410.433 348.686   2
  -5   2 -11 4598.91 736.464   2
  -5   2 -12 4825.07 296.896   3
  -5   2 -12 5410.26 826.502   2
   5  -2 -13 2596.89 240.717   3
  -5   2 -13 3270.95 255.502   3
  -5   2 -13 3222.49 690.842   2
  -5   2 -14 890.632 450.806   2
  -5   2 -14 1251.69 196.819   3
   5  -2 -14 1317.97 222.723   3
  -5   2 -15 1255.90 203.030   3
  -5   2 -15 867.242 505.249   2
   5  -2 -15 1114.03 193.328   3
   5  -2 -16 787.373 188.418   3
  -5   2 -16 938.144 199.257   3
   5  -2 -17 607.066 190.991   3
  -5   2 -17 657.326 176.989   3
   5  -2 -18-101.935 170.858   3
  -5   2 -18 122.516 150.394   3
  -5   2 -19 169.148 142.878   3
  -5   2 -20 717.654 159.094   3
  -5   2 -21 490.697 133.228   3
  -5   2 -22 166.026 108.130   3
  -5   2 -23 1917.77 167.042   3
  -5   2 -24 411.698 86.4761   3
  -5  -3 -22 92.2451 93.5291   3
  -5  -3 -21 856.960 146.639   3
   5   3 -20 285.952 163.965   3
  -5  -3 -20 266.962 136.667   3
  -5  -3 -19 320.563 171.506   3
   5   3 -19 275.109 161.492   3
   5   3 -18 890.956 195.477   3
  -5  -3 -18 569.952 201.133   3
  -5  -3 -17 1866.18 239.877   3
   5   3 -17 1780.13 238.412   3
  -5  -3 -16 55.3639 370.071   2
   5   3 -16 88.0797 148.468   3
  -5  -3 -16 40.4616 141.053   3
  -5  -3 -15 490.455 395.805   2
   5   3 -15 802.803 186.994   3
  -5  -3 -15 626.709 177.200   3
   5   3 -14 3178.76 289.850   3
  -5   3  14 2802.49 810.006   1
  -5  -3 -14 3320.73 293.339   3
  -5  -3 -14 2734.59 703.682   2
   5   3 -13 2336.42 248.047   3
  -5  -3 -13 2084.01 609.512   2
  -5  -3 -13 2263.20 229.065   3
  -5   3  13 2172.28 751.361   1
   5   3 -12 15590.5 520.872   3
  -5  -3 -12 16677.8 1454.61   2
  -5   3  11 876.696 488.710   1
  -5  -3 -11 885.187 421.201   2
  -5   3  10 2902.02 731.464   1
  -5  -3 -10 2797.50 619.091   2
  -5  -3  -9 6332.08 849.587   2
  -5   3   9 7238.18 1011.49   1
  -5  -3  -8 4398.74 706.026   2
  -5  -3  -7 25288.3 1481.39   2
  -5  -3  -6 68576.0 2297.73   2
  -5  -3  -5 15912.7 1145.80   2
  -5  -3  -4 2844.74 543.430   2
  -5   3   4 2866.30 578.938   1
  -5   3   3 4187.68 634.368   1
  -5   3   2 455.186 345.532   1
  -5   3   1 816.039 335.256   1
  -5   3   0 93.6155 246.289   1
  -5   3  -1 852.269 282.162   2
  -5   3  -1 726.969 302.605   1
  -5   3  -2 402.773 247.553   1
  -5   3  -2 302.526 270.761   2
  -5   3  -3 4379.46 504.366   1
  -5   3  -3 4465.91 508.312   2
  -5   3  -4 2966.19 472.975   2
  -5   3  -4 2952.79 440.946   1
  -5   3  -5 15171.5 859.177   1
  -5   3  -5 16450.6 1020.87   2
  -5   3  -6 65644.1 1729.91   1
  -5   3  -6 66514.7 2078.42   2
  -5   3  -7 21860.2 976.265   1
  -5   3  -7 24502.1 1339.18   2
  -5   3  -8 4385.55 677.117   2
  -5   3  -9 7189.66 819.780   2
  -5   3 -10 2843.86 603.724   2
  -5   3 -11 966.485 454.009   2
  -5   3 -12 16019.3 503.144   3
  -5   3 -12 16577.3 1399.51   2
   5  -3 -13 2605.80 284.711   3
  -5   3 -13 2192.95 616.662   2
  -5   3 -13 2236.81 229.605   3
  -5   3 -14 3282.20 274.145   3
   5  -3 -14 3171.31 280.654   3
   5  -3 -15 680.094 180.181   3
  -5   3 -15 647.011 173.335   3
  -5   3 -16 64.7445 144.390   3
   5  -3 -16 119.329 166.837   3
   5  -3 -17 1492.33 223.010   3
  -5   3 -17 1773.21 226.661   3
  -5   3 -18 1027.98 194.342   3
  -5   3 -19 193.046 138.042   3
  -5   3 -20 275.586 133.674   3
  -5   3 -21 899.829 156.618   3
  -5   3 -22 163.948 102.935   3
  -5   3 -23-41.8524 89.5508   3
  -5   3 -24 1312.30 115.848   3
  -5  -4 -21 73.3284 101.530   3
   5   4 -20 712.470 182.743   3
  -5  -4 -20 932.293 162.299   3
   5   4 -19 332.990 173.077   3
  -5  -4 -19 361.550 152.796   3
   5   4 -18 173.930 157.499   3
  -5  -4 -18 65.1264 148.770   3
   5   4 -17 665.600 180.204   3
  -5  -4 -17 810.664 184.104   3
   5   4 -16 486.691 171.701   3
  -5  -4 -16 607.205 184.820   3
  -5  -4 -16 200.369 372.640   2
   5   4 -15 6474.82 374.397   3
  -5  -4 -15 7197.79 377.598   3
   5   4 -14 2659.71 267.936   3
  -5  -4 -14 2827.36 263.500   3
  -5   4  14 2482.34 843.186   1
  -5  -4 -14 2500.06 708.038   2
   5   4 -13 2138.31 238.256   3
  -5   4  13 2507.30 731.231   1
  -5  -4 -13 2005.34 640.904   2
  -5  -4 -13 2003.75 226.355   3
   5   4 -12 9616.17 414.602   3
  -5  -4 -12 8242.56 385.264   3
  -5  -4 -12 9685.88 1146.85   2
   5   4 -11 5296.96 311.022   3
  -5   4  11 7277.51 1075.82   1
  -5  -4 -11 5810.84 922.217   2
  -5  -4 -10 827.003 424.833   2
  -5   4  10 902.527 496.550   1
  -5  -4  -9 2895.35 642.735   2
  -5   4   9 2738.70 691.677   1
  -5  -4  -8 7093.85 898.047   2
  -5   4   8 8240.05 1047.68   1
  -5   4   7 1249.85 505.662   1
  -5  -4  -7 1375.60 483.292   2
  -5   4   6 262.498 372.894   1
  -5  -4  -6 265.250 406.550   2
  -5   4   5 2043.76 562.417   1
  -5  -4  -5 2088.91 507.661   2
  -5   4   4 1718.20 497.130   1
  -5   4   3 760.012 371.302   1
  -5   4   2 566.298 341.287   1
  -5   4   1 2290.78 458.874   1
  -5   4   0 7894.69 752.423   1
  -5   4  -1 2586.96 465.821   1
  -5   4  -2 566.497 320.576   1
  -5   4  -3 928.930 329.373   2
  -5   4  -3 887.624 342.011   1
  -5   4  -4 1948.78 419.358   2
  -5   4  -4 1742.95 419.610   1
  -5   4  -5 1921.03 410.701   2
  -5   4  -5 2036.67 411.514   1
  -5   4  -6 360.010 317.815   2
  -5   4  -6 212.904 242.579   1
  -5   4  -7 1508.52 431.725   2
  -5   4  -7 1244.40 326.331   1
  -5   4  -8 7260.09 814.814   2
  -5   4  -9 2915.76 570.288   2
  -5   4 -10 999.996 400.752   2
  -5   4 -11 5867.22 841.789   2
  -5   4 -12 9198.96 392.336   3
   5  -4 -13 1574.27 204.889   3
  -5   4 -13 2206.51 225.231   3
  -5   4 -14 2933.64 250.068   3
   5  -4 -14 2087.45 227.829   3
   5  -4 -15 5816.54 348.582   3
  -5   4 -15 6680.92 366.613   3
  -5   4 -16 568.725 172.559   3
  -5   4 -17 642.674 168.873   3
  -5   4 -18 91.2701 133.751   3
  -5   4 -19 322.787 144.124   3
  -5   4 -20 851.353 165.046   3
  -5   4 -21 64.3824 106.627   3
  -5   4 -22-1.78220 95.7062   3
  -5   4 -23 815.041 118.487   3
  -5   4 -24 372.265 76.8799   3
   5   5 -20 152.787 149.659   3
   5   5 -19 102.774 155.575   3
  -5  -5 -19-48.9144 121.752   3
   5   5 -18 506.081 175.423   3
  -5  -5 -18 547.103 165.180   3
   5   5 -17 233.994 166.600   3
  -5  -5 -17 121.594 145.821   3
   5   5 -16 769.103 188.572   3
  -5  -5 -16 336.037 426.293   2
  -5  -5 -16 649.113 178.486   3
  -5  -5 -15-197.451 404.428   2
   5   5 -15 3.96904 333.440   6
   5   5 -15 98.4190 141.635   3
  -5  -5 -15 81.2426 140.849   3
   5   5 -14 2180.15 251.871   3
  -5   5  14 1922.99 693.471   1
  -5  -5 -14 2001.85 226.143   3
  -5  -5 -14 1922.16 650.221   2
  -5   5  13 425.087 454.724   1
   5   5 -13 550.047 178.620   3
  -5  -5 -13 670.753 489.167   2
   5   5 -13-16.2940 336.676   6
  -5  -5 -13 380.368 144.045   3
   5   5 -12 795.958 192.771   3
   5   5 -12 85.2231 329.749   6
  -5  -5 -12 509.578 412.399   2
  -5   5  12 934.894 618.375   1
   5   5 -11 7747.17 390.740   3
  -5   5  11 9794.74 1288.99   1
  -5  -5 -11 8226.52 1085.75   2
  -5  -5 -10 13929.0 1330.11   2
  -5   5  10 15502.8 1519.24   1
  -5  -5  -9 33649.3 1966.56   2
  -5   5   9 33001.4 2103.35   1
  -5   5   8 12638.7 1293.21   1
  -5  -5  -8 12573.3 1222.69   2
  -5   5   7 1316.16 502.861   1
  -5  -5  -7 1558.97 520.803   2
  -5  -5  -6 17171.9 1305.41   2
  -5   5   6 16277.6 1340.24   1
  -5   5   5 1950.25 561.461   1
  -5   5   4 1056.02 413.848   1
  -5   5   3 4194.56 667.873   1
  -5   5   2 3692.39 609.253   1
  -5   5   1 341.409 335.101   1
  -5   5   0 199.906 304.179   1
  -5   5  -1 422.588 297.696   1
  -5   5  -2 3698.91 590.076   1
  -5   5  -3 4202.11 584.947   1
  -5   5  -4 1193.66 377.428   1
  -5   5  -5 2308.51 459.790   1
  -5   5  -6 17061.7 1056.22   1
  -5   5  -7 1321.07 372.723   1
  -5   5 -11 7188.57 342.671   3
  -5   5 -12 676.209 149.776   3
  -5   5 -13 580.925 152.910   3
  -5   5 -14 2168.67 243.268   3
  -5   5 -15 97.2705 137.859   3
  -5   5 -16 586.865 162.111   3
  -5   5 -17 210.371 142.340   3
  -5   5 -18 549.322 163.046   3
  -5   5 -19 98.4472 403.793   6
  -5   5 -19-16.2172 119.066   3
  -5   5 -20 3.40452 288.005   6
  -5   5 -20 86.2590 111.763   3
  -5   5 -21 3530.47 231.775   3
  -5   5 -22 819.455 129.306   3
  -5   5 -23 59.8735 76.2898   3
  -5   5 -24 188.325 60.9681   3
   5   6 -19 616.379 175.638   3
   5   6 -18 100.286 152.226   3
   5   6 -17 574.351 174.294   3
   5   6 -16 485.034 161.245   3
   5   6 -16-161.088 376.313   6
  -5  -6 -16 284.133 416.112   2
   5   6 -15 4398.89 333.334   3
  -5  -6 -15 3719.83 894.186   2
   5   6 -14 4473.32 332.071   3
  -5  -6 -14 3498.44 817.610   2
  -5   6  13 249.489 419.516   1
   5   6 -13 470.071 155.300   3
   5   6 -13-34.0189 378.029   6
  -5  -6 -13 543.322 460.297   2
   5   6 -12-30.0990 359.569   6
   5   6 -12 783.391 168.199   3
  -5   6  12 660.908 451.394   1
  -5  -6 -12 930.537 493.820   2
   5   6 -12 581.102 150.136   4
   5   6 -11 141.645 447.812   6
  -5   6  11 1498.27 608.116   1
  -5  -6 -11 1647.38 604.945   2
   5   6 -11 1543.53 201.522   3
  -5  -6 -10 645.229 484.703   2
  -5   6  10 913.228 529.060   1
   5   6 -10 288.179 114.766   3
  -5  -6  -9 4496.54 816.222   2
  -5   6   9 4483.35 872.519   1
  -5   6   8 8092.27 1062.67   1
  -5  -6  -8 7927.37 1033.00   2
  -5   6   7 891.179 462.422   1
  -5  -6  -7 1021.82 478.160   2
  -5   6   6 2998.46 640.030   1
  -5   6   5 4363.49 720.302   1
  -5   6   4 14264.6 1180.70   1
  -5   6   3 18780.5 1323.39   1
  -5   6   2 3853.72 628.182   1
  -5   6   1 923.557 389.562   1
  -5   6   0 596.285 342.163   1
  -5   6  -1 665.919 374.411   1
  -5   6  -2 3574.91 580.139   1
  -5   6  -3 19684.5 1220.38   1
  -5   6  -4 16204.6 1191.27   1
  -5   6  -5 4545.11 610.569   1
  -5   6  -6 3102.18 552.739   1
  -5   6  -7 1250.67 398.052   1
  -5   6 -11 1490.87 177.475   3
  -5   6 -12 881.849 166.450   3
  -5   6 -13 483.567 148.830   3
  -5   6 -14 4642.69 295.424   3
  -5   6 -15 4292.13 301.913   3
  -5   6 -16 592.608 162.372   3
  -5   6 -17 825.137 171.239   3
  -5   6 -18 112.848 128.271   3
  -5   6 -19 9.82688 339.287   6
  -5   6 -19 558.511 145.993   3
  -5   6 -20-48.1401 284.769   6
  -5   6 -20 586.862 142.505   3
  -5   6 -21 110.333 98.9930   3
  -5   6 -21-705.867 264.297   6
  -5   6 -22 136.425 85.7744   3
  -5   6 -23 744.355 100.687   3
  -5   6 -24-19.3801 49.6669   3
   5   7 -18 559.489 179.593   3
   5   7 -17 567.074 198.477   3
   5   7 -17-128.810 338.101   6
   5   7 -16 835.579 195.414   3
   5   7 -16-77.6206 366.382   6
   5   7 -15 244.429 147.954   3
  -5  -7 -15 414.233 429.953   2
   5   7 -15-79.0779 381.047   6
   5   7 -14 3221.79 276.952   3
  -5  -7 -14 2753.71 761.224   2
   5   7 -13 673.889 166.608   4
   5   7 -13 889.617 180.512   3
   5   7 -13-30.5769 382.151   6
  -5  -7 -13 841.892 505.999   2
  -5   7  13 785.125 532.151   1
  -5   7  12 315.382 448.590   1
   5   7 -12 1413.01 250.741   3
   5   7 -12 24.2132 378.301   6
  -5  -7 -12 155.297 410.012   2
  -5   7  11 2468.75 756.111   1
   5   7 -11 2846.79 255.590   3
  -5  -7 -11 2951.01 756.351   2
   5   7 -10 3639.86 265.430   3
  -5   7  10 2433.67 725.123   1
  -5  -7 -10 2118.84 654.506   2
  -5   7   9 11414.6 1303.71   1
  -5  -7  -9 11565.7 1312.90   2
  -5  -7  -8 6217.68 1012.71   2
  -5   7   8 5125.19 898.844   1
  -5   7   7 24490.1 1760.04   1
  -5   7   6 42014.6 2184.07   1
  -5   7   5 6091.72 865.715   1
  -5   7   4 1501.67 518.127   1
  -5   7   3 277.392 339.603   1
  -5   7   2 521.446 366.061   1
  -5   7   1 1953.88 508.531   1
  -5   7   0 244.186 333.071   1
  -5   7  -1 1746.06 461.486   1
  -5   7  -2 364.699 352.347   1
  -5   7  -3 309.110 326.023   1
  -5   7  -4 1733.55 466.968   1
  -5   7  -5 5963.13 745.194   1
  -5   7  -6 43847.9 1910.59   1
  -5   7  -7 23770.4 1447.24   1
  -5   7 -10 1560.49 170.915   3
  -5   7 -11 2370.38 209.619   3
  -5   7 -12 206.861 125.527   3
  -5   7 -13 977.118 172.023   3
  -5   7 -14 3495.90 264.508   3
  -5   7 -15 269.841 141.929   3
  -5   7 -16 768.991 166.885   3
  -5   7 -17 649.991 154.477   3
  -5   7 -18 571.189 146.384   3
  -5   7 -19-13.6746 336.426   6
  -5   7 -19 135.386 115.020   3
  -5   7 -20 52.5190 299.705   6
  -5   7 -20 227.357 105.539   3
  -5   7 -21 541.096 115.621   3
  -5   7 -21-148.252 256.082   6
  -5   7 -22 123.487 81.1732   3
  -5   7 -23 11.7691 58.0368   3
   5   8 -17 78.1784 148.611   3
   5   8 -17-3.96236 344.547   6
   5   8 -16 242.854 498.837   6
   5   8 -16 1390.74 213.312   3
  -5  -8 -15 2735.78 792.971   2
   5   8 -15 4301.54 317.819   3
   5   8 -14 4306.93 307.669   3
   5   8 -14 3720.37 268.195   4
  -5  -8 -14 3183.23 816.097   2
  -5  -8 -13 1928.49 684.641   2
  -5   8  13 1901.42 670.859   1
   5   8 -13 2297.18 246.143   3
  -5  -8 -12 14700.5 1608.10   2
   5   8 -12 14156.1 508.842   3
  -5   8  12 12365.9 1540.53   1
   5   8 -11 10372.3 431.775   3
  -5  -8 -11 12569.6 1549.74   2
  -5   8  11 12447.5 1477.60   1
   5   8 -10 650.133 215.428   3
   5   8 -10 132.808 475.521   6
  -5  -8 -10 609.134 441.562   2
  -5  -8 -10 803.912 226.732   7
  -5   8  10 536.555 426.519   1
   5   8  -9 121.019 144.553   3
   5   8  -9-214.074 354.349   6
  -5  -8  -9-93.9927 427.624   2
  -5   8   9 114.433 375.027   1
  -5  -8  -8 4317.80 897.184   2
  -5   8   8 3387.88 759.612   1
  -5   8   7 1675.93 569.765   1
  -5   8   6 3932.98 742.640   1
  -5   8   5-41.2233 323.742   1
  -5   8   4 1607.37 515.695   1
  -5   8   3 1693.56 517.294   1
  -5   8   2 2114.34 535.325   1
  -5   8   1 9060.29 977.972   1
  -5   8   0 27890.9 1631.27   1
  -5   8  -1 9564.67 976.793   1
  -5   8  -2 2488.15 544.310   1
  -5   8  -3 1702.01 472.438   1
  -5   8  -4 1800.27 473.497   1
  -5   8  -5 99.1741 293.434   1
  -5   8  -6 3986.58 654.641   1
  -5   8  -7 1924.38 511.347   1
  -5   8 -10 399.837 118.774   3
  -5   8 -11 9914.30 385.719   3
  -5   8 -12 12775.2 448.563   3
  -5   8 -13 2151.66 217.056   3
  -5   8 -14 4266.32 284.073   3
  -5   8 -15 4473.96 287.364   3
  -5   8 -16 1506.58 182.211   3
  -5   8 -17 106.488 115.595   3
  -5   8 -18 40.5609 353.922   6
  -5   8 -18 839.642 145.767   3
  -5   8 -19 74.6032 99.8497   3
  -5   8 -19-53.9800 310.748   6
  -5   8 -20 1096.23 140.350   3
  -5   8 -21-16.0537 80.9377   3
  -5   8 -21 88.7586 239.804   6
  -5   8 -22 159.559 75.3147   3
  -5   8 -23 64.1324 49.8607   3
   5   9 -17 94.1531 364.271   6
   5   9 -16 86.3163 404.866   6
   5   9 -16 70.7889 143.361   3
   5   9 -15 239.387 145.658   4
   5   9 -15 94.8773 392.560   6
   5   9 -15 653.394 182.979   3
   5   9 -14 3318.51 292.090   3
   5   9 -14 3164.62 254.342   4
   5   9 -13 6638.85 396.009   3
  -5  -9 -13 5699.70 1092.60   2
   5   9 -12 2734.18 272.846   3
  -5  -9 -12 2873.65 830.223   2
  -5   9  12 2230.59 759.303   1
   5   9 -11 366.878 163.213   3
   5   9 -11-84.2883 410.905   6
  -5  -9 -11 407.846 505.647   2
  -5   9  11 290.961 471.417   1
  -5  -9 -11-0.16536 112.759   7
   5   9 -10 56.8267 366.717   6
  -5  -9 -10 168.788 147.461   7
  -5  -9 -10 1940.67 694.628   2
  -5   9  10 1263.69 610.777   1
   5   9 -10 1323.88 184.566   3
  -5   9   9 4423.27 877.821   1
   5   9  -9 3046.78 244.929   3
  -5  -9  -9 8.87802 119.045   7
  -5  -9  -9 4196.32 952.916   2
   5   9  -9-12.5668 361.798   6
  -5   9   8 2686.67 763.737   1
  -5  -9  -8-23.4758 124.623   7
   5   9  -8 151.991 355.387   6
  -5  -9  -8 3083.84 805.750   2
  -5   9   7 2777.10 701.517   1
   5   9  -7 8815.70 615.188   6
  -5   9   6 8323.12 1083.08   1
  -5   9   5 1529.58 556.132   1
  -5   9   4 721.259 428.258   1
  -5   9   3 3404.15 686.659   1
  -5   9   2 838.938 422.623   1
  -5   9   1 2574.28 595.483   1
  -5   9   0 253.548 366.190   1
  -5   9  -1 2682.52 595.849   1
  -5   9  -2 856.072 398.296   1
  -5   9  -3 3572.56 649.312   1
  -5   9  -4 1085.41 447.110   1
  -5   9  -5 1619.25 499.989   1
  -5   9  -6 9095.75 993.675   1
  -5   9  -7 2637.46 607.509   1
  -5   9 -10 1254.81 154.028   3
  -5   9 -11 209.964 115.471   3
  -5   9 -12 2740.73 221.813   3
  -5   9 -13 5806.30 314.835   3
  -5   9 -14 3206.85 250.320   3
  -5   9 -15 122.258 120.414   3
  -5   9 -16 140.063 119.044   3
  -5   9 -17 67.4903 365.383   6
  -5   9 -17 1179.77 163.281   3
  -5   9 -18 34.3094 336.260   6
  -5   9 -18 2775.71 206.061   3
  -5   9 -19 26.2107 295.497   6
  -5   9 -19 548.410 113.475   3
  -5   9 -20 219.423 94.2646   3
  -5   9 -20 58.4832 272.363   6
  -5   9 -21 1231.91 120.485   3
  -5   9 -21 29.5651 222.339   6
  -5   9 -22 71.1481 57.8448   3
   5  10 -17-12.2225 339.420   6
   5  10 -16 19807.5 1013.18   6
   5  10 -15-122.685 394.198   6
   5  10 -15 7400.71 344.282   4
   5  10 -14-46.4807 410.305   6
   5  10 -14 4599.68 294.304   4
   5  10 -13 292.999 410.325   6
  -5 -10 -13 82.1901 416.784   2
  -5 -10 -12 3219.90 925.747   2
  -5  10  12 2525.53 781.278   1
  -5 -10 -11-48.4662 141.908   7
   5  10 -11-29.8250 389.444   6
  -5  10  11 2562.10 798.149   1
  -5 -10 -11 3300.22 915.185   2
  -5 -10 -10 92.7014 144.504   7
   5  10 -10-272.557 418.238   6
  -5  10  10-34.3744 359.850   1
  -5 -10 -10 176.789 433.614   2
  -5 -10  -9 3724.07 955.335   2
   5  10  -9 16.0444 367.866   6
  -5 -10  -9-2.82231 134.707   7
  -5  10   9 3338.67 845.839   1
  -5 -10  -8-10.5684 132.803   7
   5  10  -8-55.0657 361.166   6
  -5 -10  -7-18.3819 130.200   7
   5  10  -7-33.7046 354.066   6
  -5  10   7 740.015 461.297   1
  -5 -10  -6-16.7208 127.783   7
   5  10  -6-9.90621 353.073   6
  -5  10   5 1918.20 596.527   1
  -5  10   4 731.729 453.869   1
  -5  10   3 881.711 460.561   1
  -5  10   2 1721.47 554.444   1
  -5  10   1 1913.89 558.229   1
  -5  10   0 2516.42 588.981   1
  -5  10  -1 2031.81 555.629   1
  -5  10  -2 1749.19 544.185   1
  -5  10  -3 1181.43 469.156   1
  -5  10  -4 523.294 379.658   1
  -5  10  -5 2583.99 595.717   1
  -5  10  -6 1556.24 495.322   1
  -5  10  -7 779.237 424.181   1
   5 -10 -10-23.3136 183.229   7
  -5  10 -11 2521.73 204.318   3
   5 -10 -11 2013.64 245.459   7
  -5  10 -12 2939.20 227.146   3
  -5  10 -13 510.777 137.202   3
  -5  10 -14 4177.59 262.116   3
  -5  10 -15 7569.45 331.705   3
  -5  10 -16 2731.10 212.407   3
  -5  10 -17 1593.33 167.499   3
  -5  10 -17 97.4154 346.980   6
  -5  10 -18 55.1920 319.206   6
  -5  10 -18 1529.04 151.606   3
  -5  10 -19 360.168 97.9871   3
  -5  10 -20 815.583 105.423   3
  -5  10 -20 117.256 249.102   6
  -5  10 -21-1.11952 56.6190   3
  -5  10 -21 6.65639 198.936   6
   5  11 -16 543.765 134.144   4
   5  11 -16 36.5136 382.613   6
   5  11 -15 14.5273 371.762   6
   5  11 -15 380.044 142.136   4
   5  11 -14-35.9081 396.593   6
   5  11 -14 218.445 144.791   4
   5  11 -13 758.953 536.124   6
   5  11 -12-30.2158 421.394   6
  -5 -11 -12 280.998 476.634   2
  -5  11  11 825.601 498.186   1
   5  11 -11 95.6460 413.528   6
  -5 -11 -11 1254.08 713.547   2
  -5 -11 -11-29.9956 135.152   7
  -5 -11 -10 50.2570 150.567   7
  -5  11  10 2855.85 803.006   1
   5  11 -10-24.5900 402.068   6
  -5 -11 -10 3473.11 964.418   2
  -5 -11  -9 12802.3 1686.80   2
   5  11  -9 17.9584 379.122   6
  -5  11   9 10721.4 1425.37   1
  -5 -11  -8-30.3808 149.638   7
   5  11  -8-39.2441 384.749   6
  -5  11   8 729.448 519.473   1
  -5 -11  -7-18.9584 140.873   7
   5  11  -7 66.4433 386.178   6
  -5  11   7 252.798 424.230   1
  -5 -11  -6-1.88470 138.616   7
  -5  11   6 50.6325 360.254   1
   5  11  -6 9.31157 349.900   6
  -5 -11  -5-3.00206 135.928   7
  -5  11   5 893.855 475.570   1
   5  11  -5-3.37932 548.349   6
  -5 -11  -4-39.2966 137.579   7
   5  11  -4 2152.94 446.803   6
  -5 -11  -3 65.9010 141.369   7
   5  11  -3-8.25326 333.627   6
  -5 -11  -2 206.559 163.870   7
  -5  11   2 8411.24 1073.27   1
  -5 -11  -1 64.6760 140.184   7
  -5  11   1 4202.64 763.841   1
  -5  11   0 193.756 316.955   1
  -5  11  -1 4306.31 779.322   1
  -5  11  -2 9031.93 1095.71   1
  -5  11  -3 21227.3 1629.11   1
  -5  11  -4 6369.60 905.689   1
  -5  11  -5 1050.37 445.632   1
  -5  11  -6 53.3003 319.002   1
   5 -11  -9-71.6918 196.126   7
   5 -11 -10 9.69911 177.393   7
   5 -11 -11 627.013 236.058   7
   5 -11 -12-111.596 158.691   7
  -5  11 -13 94.8019 104.677   3
  -5  11 -14 195.682 111.081   3
  -5  11 -15 424.818 117.589   3
  -5  11 -16 602.013 123.013   3
  -5  11 -16-1.49299 335.631   6
  -5  11 -17 1349.01 145.248   3
  -5  11 -17 45.5593 350.430   6
  -5  11 -18 200.332 315.527   6
  -5  11 -18 247.885 89.9345   3
  -5  11 -19 114.845 74.4748   3
  -5  11 -19-94.2695 263.197   6
  -5  11 -20 798.759 88.3277   3
  -5  11 -20 551.096 264.148   6
  -5  11 -21-50.8894 183.536   6
   5  12 -16 244.323 110.305   4
   5  12 -16 4053.14 712.792   6
   5  12 -15 1630.49 563.016   6
   5  12 -15 1907.31 196.129   4
   5  12 -14-37.3695 378.269   6
   5  12 -14 708.165 166.332   4
   5  12 -13 30.5525 384.072   6
   5  12 -12-185.242 398.578   6
  -5 -12 -11 8.73350 146.843   7
   5  12 -11 36.4343 398.444   6
  -5 -12 -10 63.3744 147.193   7
  -5  12  10-81.9632 404.216   1
   5  12 -10 8.76997 391.725   6
  -5 -12 -10-82.2392 459.780   2
  -5 -12  -9 11.8096 158.207   7
  -5  12   9 223.301 407.713   1
   5  12  -9-41.4645 396.973   6
  -5 -12  -9 329.035 526.550   2
   5  12  -8 178.284 406.826   6
  -5 -12  -8 24.9418 151.226   7
  -5 -12  -7 4.18246 162.572   7
  -5  12   7 380.644 450.968   1
   5  12  -7-55.6622 402.242   6
  -5 -12  -6-58.1716 153.485   7
  -5  12   6 114.733 349.251   1
   5  12  -6-59.1140 390.283   6
  -5 -12  -5 16.8530 154.864   7
   5  12  -5 92.2702 369.012   6
  -5 -12  -4-19.8921 154.683   7
   5  12  -4-39.1171 368.146   6
  -5 -12  -3 20.4753 145.302   7
   5  12  -3-243.654 371.690   6
  -5 -12  -2-75.3379 161.641   7
  -5  12   2 617.794 421.467   1
  -5 -12  -1-4.59553 144.105   7
  -5  12   1 2357.48 636.036   1
  -5 -12   0 1828.06 294.704   7
  -5  12   0 6908.76 1021.53   1
  -5 -12   1-29.0947 144.144   7
  -5  12  -1 2039.96 602.175   1
  -5 -12   2 65.5399 150.475   7
  -5  12  -2 655.471 435.133   1
  -5 -12   3 42.2385 162.114   7
  -5  12  -3 5797.13 920.130   1
  -5  12  -4 2461.59 627.480   1
  -5  12  -5 3020.54 699.385   1
  -5  12  -6 283.357 401.597   1
   5 -12  -8-40.8245 242.479   7
   5 -12  -9-11.1396 196.251   7
   5 -12 -10-96.4911 194.037   7
   5 -12 -11 218.524 222.767   7
   5 -12 -12 69.3741 163.891   7
  -5  12 -14 110.962 355.826   6
  -5  12 -15 83.9762 356.764   6
  -5  12 -16-132.687 327.449   6
  -5  12 -17 3612.25 540.434   6
  -5  12 -18-63.4238 277.370   6
  -5  12 -19 5.66540 238.465   6
  -5  12 -20 127.725 202.442   6
  -5  12 -21 34.1984 148.117   6
   5  13 -16 269.507 103.154   4
   5  13 -15 242.261 121.255   4
   5  13 -15 616.107 418.769   6
   5  13 -14 73.8405 364.521   6
   5  13 -14 471.159 146.364   4
   5  13 -13 312.977 428.730   6
   5  13 -12-1.36198 403.318   6
  -5 -13 -11 25.4856 170.088   7
   5  13 -11-229.095 412.743   6
   5  13 -10-98.9199 402.656   6
  -5 -13 -10-33.7561 166.908   7
  -5 -13  -9 10.9436 167.089   7
   5  13  -9-154.072 428.584   6
  -5 -13  -9 2389.76 875.951   2
  -5  13   9 2073.97 685.694   1
  -5 -13  -8 52.0633 162.289   7
   5  13  -8-92.5509 415.677   6
  -5 -13  -7-104.520 173.758   7
   5  13  -7 121.941 387.970   6
  -5 -13  -6-38.5201 164.375   7
   5  13  -6-194.621 400.912   6
  -5 -13  -5-65.8723 167.823   7
   5  13  -5-20.1666 384.675   6
  -5 -13  -4-10.7005 164.615   7
   5  13  -4-58.4094 368.102   6
  -5 -13  -3 200.023 245.702   7
  -5  13   3 4400.64 867.714   1
  -5 -13  -2 68.2560 213.347   7
  -5  13   2 1082.14 512.430   1
  -5 -13  -1-7.59330 161.249   7
  -5  13   1 1293.82 543.530   1
  -5 -13   0 297.375 197.029   7
  -5  13   0 902.513 540.856   1
  -5 -13   1-1.49370 154.600   7
  -5  13  -1 1353.79 545.741   1
  -5  13  -2 800.936 452.138   1
  -5 -13   2 3.79339 164.775   7
  -5 -13   3 181.010 189.279   7
  -5  13  -3 4733.81 863.230   1
  -5  13  -4 3017.38 742.338   1
  -5  13  -5 2462.55 640.315   1
   5 -13  -6 3.33352 206.624   7
   5 -13  -7 80.9036 219.420   7
   5 -13  -8-19.3394 220.066   7
   5 -13  -9 104.314 217.561   7
   5 -13 -10-47.3470 222.319   7
   5 -13 -11 4.04623 171.894   7
   5 -13 -12 26.7173 165.930   7
  -5  13 -12-25.9514 359.301   6
  -5  13 -13-41.9624 365.361   6
  -5  13 -14 405.371 435.554   6
  -5  13 -15-27.2010 317.361   6
  -5  13 -16-37.7044 300.986   6
  -5  13 -17 1152.75 368.110   6
  -5  13 -18-50.7411 247.406   6
  -5  13 -20 43.4166 173.931   6
   5  14 -16 119.727 84.1120   4
   5  14 -15 930.151 146.329   4
   5  14 -14 490.626 139.966   4
   5  14 -14-33.6058 346.948   6
   5  14 -13-77.5747 370.651   6
   5  14 -12 129.952 376.911   6
   5  14 -11 271.219 393.923   6
  -5 -14 -11 16.7372 153.996   7
  -5 -14 -10 24.5296 170.349   7
   5  14 -10-47.7322 384.359   6
  -5 -14  -9 3.97572 172.247   7
   5  14  -9-122.480 413.154   6
  -5 -14  -8 40.1531 167.912   7
   5  14  -8-209.025 439.991   6
  -5  14   8 464.273 418.105   1
  -5 -14  -7-81.1351 176.248   7
   5  14  -7-19.4771 386.924   6
  -5  14   7 447.784 440.927   1
  -5 -14  -6-62.8124 181.008   7
   5  14  -6-120.946 415.483   6
  -5  14   6 35.6021 374.327   1
  -5 -14  -5-1.83321 177.222   7
   5 -14   5-50.3919 204.845   7
   5  14  -5-87.7687 400.649   6
  -5  14   5 822.576 502.720   1
  -5 -14  -4-28.2119 171.748   7
   5 -14   4-59.4968 232.250   7
  -5 -14  -3-6.14265 170.298   7
   5 -14   3 59.3104 204.064   7
  -5 -14  -2 1283.23 417.981   7
  -5  14   2 2000.59 687.549   1
  -5 -14  -1 29.2825 179.249   7
  -5  14   1 4095.26 848.960   1
  -5 -14   0 410.706 216.835   7
  -5  14   0 14945.9 1547.37   1
  -5 -14   1 47.1326 178.251   7
  -5  14  -1 3740.54 784.782   1
  -5  14  -2 1957.74 635.661   1
  -5 -14   2-3.74968 169.539   7
   5 -14  -3 11.4680 233.807   7
  -5 -14   3 3.93248 165.661   7
  -5  14  -4 1652.09 584.359   1
   5 -14  -4 22.9887 228.806   7
   5 -14  -5 16.7228 222.491   7
  -5  14  -5 118.784 310.834   6
   5 -14  -6 69.0581 236.482   7
  -5  14  -6 455.771 448.303   6
   5 -14  -7 164.614 234.803   7
  -5  14  -7 281.336 395.507   6
   5 -14  -8 1.61562 218.487   7
  -5  14  -8 63.7130 347.309   6
   5 -14  -9-11.7081 210.961   7
  -5  14  -9-89.9983 352.700   6
   5 -14 -10-1.93411 207.746   7
  -5  14 -10 7.42798 353.867   6
  -5  14 -11 30.9251 342.819   6
   5 -14 -11 76.9319 199.478   7
   5 -14 -12-54.2895 172.377   7
  -5  14 -12-11.3542 321.252   6
   5 -14 -13 19.1941 137.614   7
  -5  14 -13-55.0917 330.812   6
  -5  14 -14 175.384 328.602   6
  -5  14 -16 52.5707 275.121   6
  -5  14 -17-58.2992 258.260   6
  -5  14 -19 98.7485 182.062   6
  -5  14 -20 547.103 159.898   6
   5  15 -15 187.539 99.4141   4
   5  15 -14 755.394 138.855   4
   5  15 -13 230.175 124.521   4
   5  15 -12 1144.24 433.030   6
   5  15 -11 21.2066 366.317   6
   5  15 -10-163.844 372.156   6
  -5 -15 -10-21.4592 160.160   7
  -5 -15  -9-1.42994 167.951   7
   5  15  -9-111.380 386.941   6
  -5 -15  -8 9.33878 175.760   7
   5  15  -8 10.7501 376.286   6
  -5 -15  -7-35.6395 177.856   7
   5  15  -7 277.308 412.896   6
  -5 -15  -6 4.16481 183.082   7
  -5 -15  -5 0.12252 178.624   7
   5 -15   5 50.4235 184.535   7
  -5 -15  -4 4.04837 184.064   7
   5 -15   4 135.275 221.717   7
  -5  15   4 286.539 388.989   1
  -5 -15  -3 14.1383 217.850   7
   5 -15   3-104.073 220.028   7
   5 -15   2 642.971 245.089   7
  -5 -15  -2 974.417 315.300   7
  -5 -15  -1-31.7650 191.261   7
   5 -15   1-32.5704 234.180   7
  -5 -15   0 10.1707 186.859   7
   5 -15   0 125.728 238.198   7
  -5  15   0-18.0703 354.204   1
  -5 -15   1 15.0146 180.690   7
  -5  15  -1 878.990 491.958   1
   5 -15  -1 304.384 364.642   7
  -5 -15   2-38.0306 185.240   7
   5 -15  -2 5.91364 221.507   7
  -5 -15   3-15.8406 185.900   7
   5 -15  -3 0.89839 242.284   7
   5 -15  -4-11.8783 232.689   7
   5 -15  -5 67.9469 227.952   7
   5 -15  -6 0.95586 244.699   7
  -5  15  -6-48.2240 311.269   6
   5 -15  -7 24.4265 229.441   7
  -5  15  -7-137.935 317.835   6
  -5  15  -8 99.3151 322.599   6
   5 -15  -8 18.4750 209.857   7
  -5  15  -9 52.8165 326.477   6
   5 -15  -9 15.7653 216.847   7
   5 -15 -10 2225.14 508.331   7
  -5  15 -10-22.1038 330.736   6
   5 -15 -11 112.991 181.705   7
  -5  15 -11 129.067 353.593   6
  -5  15 -12 18.7608 296.386   6
   5 -15 -12-33.3593 160.661   7
   5 -15 -13 6.43267 130.752   7
  -5  15 -14 58.4401 280.630   6
  -5  15 -15 50.7293 256.983   6
  -5  15 -16 8.06026 239.358   6
  -5  15 -17 72.9976 211.805   6
  -5  15 -18 45.8451 181.687   6
  -5  15 -19-6.94658 143.376   6
   5  16 -15 1702.23 134.041   4
   5  16 -14 1105.44 135.801   4
   5  16 -13 385.688 119.563   4
  -5 -16  -9-15.0347 172.737   7
  -5 -16  -8 4.19186 173.294   7
  -5 -16  -7 13.7161 178.946   7
  -5 -16  -6-48.9596 188.140   7
  -5 -16  -5-8.73914 180.760   7
   5 -16   5-10.6022 179.550   7
   5 -16   4 3.52981 199.472   7
  -5 -16  -4-77.5466 199.672   7
  -5 -16  -3 7.02628 197.643   7
   5 -16   3-25.7313 216.114   7
  -5 -16  -2-15.7605 182.820   7
   5 -16   2-33.3120 240.762   7
  -5 -16  -1 22.5506 191.830   7
   5 -16   1 17.3788 221.687   7
  -5 -16   0 6.38822 188.700   7
   5 -16   0-27.7140 244.138   7
  -5 -16   1 2.23444 188.402   7
   5 -16  -1 91.9355 275.695   7
   5 -16  -2-0.26218 225.233   7
  -5 -16   2 24.2226 203.979   7
   5 -16  -3 7.33638 223.529   7
   5 -16  -4 84.2450 247.080   7
   5 -16  -5-7.78838 227.616   7
   5 -16  -6 30.0291 232.915   7
   5 -16  -7 99.8185 233.641   7
  -5  16  -7 88.2427 285.876   6
   5 -16  -8 72.3521 219.454   7
  -5  16  -8-62.0099 300.893   6
  -5  16  -9 106.581 301.380   6
   5 -16  -9-0.06372 194.682   7
   5 -16 -10-59.5124 192.267   7
  -5  16 -10 250.200 306.810   6
   5 -16 -11 24.9488 179.706   7
  -5  16 -11-198.150 291.997   6
  -5  16 -12-37.5606 276.400   6
   5 -16 -12 16.8725 160.841   7
  -5  16 -13 35.6441 265.720   6
  -5  16 -14-282.282 259.760   6
  -5  16 -16-53.5131 200.888   6
  -5  16 -17 326.781 190.684   6
  -5  16 -18-89.7686 143.103   6
   5  17 -15 48.6621 59.1251   4
   5  17 -14 332.685 92.1943   4
   5  17 -13 418.827 116.190   4
   5  17 -12 310.120 120.616   4
  -5 -17  -8-51.3236 176.593   7
  -5 -17  -7-31.9825 178.328   7
  -5 -17  -6 13.2555 181.499   7
  -5 -17  -5 14.8302 195.413   7
   5 -17   5 6.04535 175.283   7
  -5 -17  -4 143.473 196.934   7
   5 -17   4 2.57476 200.424   7
   5 -17   3 17.1323 203.539   7
  -5 -17  -3 467.513 267.844   7
  -5 -17  -2-23.4378 186.779   7
   5 -17   2 28.3122 203.300   7
  -5 -17  -1-5.19590 191.616   7
   5 -17   1 37.5191 218.459   7
   5 -17   0-46.9569 221.606   7
  -5 -17   0 54.9473 208.190   7
   5 -17  -1 113.969 277.829   7
  -5 -17   1 3.33301 176.955   7
   5 -17  -2 77.4396 238.909   7
   5 -17  -3-51.2041 230.057   7
   5 -17  -4-26.1363 232.669   7
   5 -17  -5-5.49569 219.641   7
   5 -17  -6 53.8684 226.331   7
   5 -17  -7-26.6934 217.847   7
   5 -17  -8-6.74215 201.398   7
  -5  17  -8 26.3503 272.601   6
   5 -17  -9 45.8685 220.431   7
  -5  17  -9 31.9241 264.125   6
   5 -17 -10-17.1579 167.989   7
  -5  17 -10 223.477 318.457   6
  -5  17 -11 3.21897 254.433   6
   5 -17 -11-36.1444 152.786   7
   5 -17 -12 23.8236 143.135   7
  -5  17 -12-48.8949 250.103   6
  -5  17 -13 116.199 237.713   6
  -5  17 -14-75.1952 205.943   6
  -5  17 -15 248.577 221.290   6
  -5  17 -16 96.4110 168.830   6
  -5  17 -17 22.1413 132.775   6
   5  18 -14 658.030 82.6689   4
   5  18 -13 1136.40 117.811   4
   5  18 -12 2978.65 183.075   4
   5  18 -11 1730.13 167.284   4
  -5 -18  -6 236.657 190.263   7
   5 -18   5 4628.79 325.107   7
  -5 -18  -5-76.1381 182.550   7
   5 -18   4 441.364 314.278   7
  -5 -18  -4-6.80591 193.039   7
  -5 -18  -3 309.107 242.323   7
   5 -18   3-88.1621 197.109   7
  -5 -18  -2-67.3918 196.125   7
   5 -18   2 0.22150 193.789   7
  -5 -18  -1 14.8831 180.197   7
   5 -18   1-5.88938 210.783   7
   5 -18   0-22.9337 204.742   7
   5 -18  -1 13.1913 213.418   7
   5 -18  -2-20.5685 209.467   7
   5 -18  -3 38.3590 225.638   7
   5 -18  -4 8.45218 214.365   7
   5 -18  -5 9.69753 214.641   7
   5 -18  -6-16.4239 196.387   7
   5 -18  -7 22.0818 190.486   7
   5 -18  -8 0.78928 172.985   7
   5 -18  -9-7.27967 177.368   7
  -5  18  -9-157.342 229.979   6
   5 -18 -10 12.9650 154.616   7
  -5  18 -10 79.2683 220.232   6
   5 -18 -11-39.1538 131.427   7
  -5  18 -11 39.7236 218.937   6
   5 -18 -12-43.7411 106.187   7
  -5  18 -12 53.3909 202.080   6
  -5  18 -13 234.032 196.198   6
  -5  18 -14-89.9780 167.776   6
  -5  18 -15 135.872 148.766   6
   5  19 -13 194.788 59.4387   4
   5  19 -12 926.104 101.596   4
   5  19 -11 29.9623 74.1030   4
   5  19 -10 75.2028 90.4007   4
   5  19  -9 618.764 125.197   4
   5 -19   4 39.0642 189.329   7
   5 -19   3-26.9730 187.351   7
   5 -19   2-98.8606 191.228   7
   5 -19   1 867.665 253.779   7
   5 -19   0-6.76646 195.250   7
   5 -19  -1-91.8685 205.780   7
   5 -19  -2 499.697 229.540   7
   5 -19  -3 6.63601 193.837   7
   5 -19  -4 16.3653 188.872   7
   5 -19  -5-28.5529 183.843   7
   5 -19  -6 46.2820 190.671   7
   5 -19  -7 50.5929 180.417   7
   5 -19  -8-20.4482 166.948   7
   5 -19  -9 6.69856 151.803   7
   5 -19 -10 4.28162 123.347   7
   5 -19 -11-18.1345 101.454   7
  -5  19 -11 140.943 164.339   6
  -5  19 -12 70.5558 148.738   6
  -5  19 -13 120.005 135.264   6
   5  20 -11 361.676 75.1859   4
   5  20 -10 4.60998 65.7864   4
   5  20  -9 58.3826 86.3320   4
   5  20  -8 985.737 130.024   4
   5  20  -7 323.679 102.894   4
   5  20  -6-9.42582 90.6518   4
   5  20  -5 122.354 97.4230   4
   5  20  -4 622.372 119.760   4
   5 -20   4 1922.81 282.183   7
   5  20  -3 281.044 112.720   4
   5 -20   3-103.980 152.986   7
   5  20  -2 123.508 91.7827   4
   5 -20   2 7.80247 147.398   7
   5  20  -1 331.348 101.573   4
   5 -20   1 259.015 198.088   7
   5 -20   0-0.63881 166.151   7
   5 -20  -1 35.5761 172.308   7
   5 -20  -2 82.0679 180.443   7
   5 -20  -3 13.7556 168.622   7
   5 -20  -4 17.7328 169.947   7
   5 -20  -5 75.2375 178.403   7
   5 -20  -6 72.2760 157.613   7
   5 -20  -7-9.19447 153.290   7
   5 -20  -8 19.9959 128.916   7
   5 -20  -9 38.0348 113.803   7
   5 -20 -10 76.1010 96.8942   7
   5  21  -9 1308.41 97.5275   4
   5  21  -8 121.410 65.6066   4
   5  21  -7 812.108 100.798   4
   5  21  -6 2003.75 139.952   4
   5  21  -5 353.794 84.1170   4
   5  21  -4 715.070 102.145   4
   5 -21   3-112.142 109.917   7
   5  21  -3 924.666 107.963   4
   5 -21   2 27.7398 117.950   7
   5  21  -2 921.941 103.883   4
   5 -21   1 59.9200 129.221   7
   5 -21   0 4.99981 135.937   7
   5 -21  -1 12.6982 146.984   7
   5 -21  -2 96.8390 154.804   7
   5 -21  -3 94.8161 139.329   7
   5 -21  -4 40.7785 140.700   7
   5 -21  -5 14.4979 127.338   7
   5 -21  -6 58.6352 124.045   7
   5 -21  -7 108.664 115.280   7
   5 -21  -8 84.0824 103.629   7
   5 -22   0-35.0298 100.990   7
   5 -22  -1-67.4208 107.695   7
   5 -22  -2-11.1666 107.325   7
   5 -22  -3-2.61835 103.495   7
   5 -22  -4-36.1319 100.885   7
   5 -22  -5-23.5336 86.4717   7
  -6   0   0 89890.6 1836.24   2
  -6   0   1 61251.7 1421.51   2
  -6   0  -1 63734.5 1654.10   2
  -6   0   2 14520.0 633.770   2
  -6   0  -2 15494.6 895.318   2
  -6   0  -3 1451.04 343.054   1
  -6   0  -3 1640.35 375.649   2
  -6   0   3 1115.11 177.194   2
  -6   0  -4 5271.23 494.937   1
  -6   0  -4 6412.52 658.804   2
  -6   0  -5 5904.49 653.947   2
  -6   0  -5 3936.60 373.912   1
  -6   0  -6 2095.73 457.264   2
  -6   0  -7 531.777 375.598   2
  -6   0  -8 332.317 306.686   2
  -6   0  -9 2.06042 267.642   2
  -6   0 -10 2952.21 641.862   2
   6   0 -11-163.407 156.133   3
  -6   0 -11-6.98094 296.176   2
   6   0 -12 6038.17 339.303   3
  -6   0 -12 6875.77 962.912   2
   6   0 -13 89.0061 149.252   3
  -6   0 -13 244.272 370.034   2
   6   0 -14 974.877 276.073   3
  -6   0 -14 236.967 356.346   2
  -6   0 -14 236.632 169.126   3
  -6   0 -15 75.1965 344.945   2
   6   0 -15 19.2191 162.208   3
  -6   0 -15 20.2504 150.094   3
  -6   0 -16 205.563 374.771   2
   6   0 -16 179.097 166.290   3
  -6   0 -16 251.961 162.755   3
   6   0 -17 229.109 161.614   3
  -6   0 -17 355.174 173.397   3
  -6   0 -18-22.0917 144.342   3
  -6   0 -19 150.263 143.431   3
  -6   0 -20 1494.51 201.535   3
  -6   0 -21 118.904 118.594   3
  -6   0 -22 22.3872 91.6606   3
  -6   0 -23 2026.59 152.177   3
  -6   0 -24 698.071 81.5782   3
  -6  -1 -23 228.050 85.2885   3
  -6  -1 -22 191.903 101.772   3
  -6  -1 -21 1123.02 156.407   3
  -6  -1 -20 92.0037 119.517   3
  -6  -1 -19 385.984 175.205   3
   6   1 -18 1518.23 254.578   3
  -6  -1 -18 768.812 207.814   3
   6   1 -17 453.904 188.489   3
  -6  -1 -17 818.637 189.987   3
  -6  -1 -16 493.476 445.890   2
   6   1 -16 873.851 205.536   3
  -6  -1 -16 746.930 197.771   3
   6   1 -15 151.226 157.402   3
  -6  -1 -15 100.558 328.073   2
  -6  -1 -15 150.850 156.988   3
  -6   1  15 544.151 511.832   1
   6   1 -14 2098.65 260.536   3
  -6   1  14 2082.27 809.554   1
  -6  -1 -14 2103.80 604.796   2
  -6  -1 -14 2228.21 252.505   3
   6   1 -13 2232.51 242.945   3
  -6  -1 -13 2635.22 631.300   2
   6   1 -12 1527.89 204.682   3
  -6  -1 -12 1801.59 584.552   2
   6   1 -11 543.081 142.206   3
  -6  -1 -11 909.912 416.975   2
  -6  -1 -10 308.627 300.438   2
  -6  -1  -9 1250.27 423.046   2
  -6  -1  -8 1659.74 456.604   2
  -6  -1  -7 10020.7 926.059   2
  -6  -1  -6 28421.1 1440.27   2
  -6  -1  -5 19302.0 1168.80   2
  -6  -1  -4 5843.18 678.615   2
  -6  -1  -4 4660.12 446.386   1
  -6  -1  -3 16204.9 997.140   2
  -6  -1  -2 33321.6 1351.71   2
  -6   1   2 31030.0 882.639   2
  -6  -1  -1 6152.52 595.128   2
  -6   1   1 6258.02 463.585   2
  -6   1   0 286.706 203.228   2
  -6  -1   0 288.091 222.511   2
  -6  -1   1 6021.38 533.821   2
  -6   1  -1 5946.02 658.860   1
  -6   1  -1 6278.77 552.158   2
  -6  -1   2 34234.5 1112.18   2
  -6   1  -2 34637.6 1370.76   1
  -6   1  -2 34535.3 1268.72   2
  -6  -1   3 15472.8 697.009   2
  -6   1  -3 15912.3 891.237   1
  -6   1  -3 15853.1 924.375   2
  -6   1  -4 5434.21 530.261   1
  -6  -1   4 4330.92 347.319   2
  -6   1  -4 6437.46 669.166   2
  -6   1  -5 18229.6 1095.85   2
  -6   1  -5 16344.5 789.956   1
  -6   1  -6 29178.0 1442.56   2
  -6   1  -7 10227.8 927.828   2
  -6   1  -8 1897.46 467.418   2
  -6   1  -9 1448.17 459.098   2
  -6   1 -10 328.236 343.680   2
  -6   1 -11 668.271 410.656   2
   6  -1 -12 1564.92 210.825   3
  -6   1 -12 1805.53 536.626   2
   6  -1 -13 2125.79 235.128   3
  -6   1 -13 2449.88 245.186   3
  -6   1 -13 2565.93 635.428   2
   6  -1 -14 3269.75 342.022   3
  -6   1 -14 1853.00 591.039   2
  -6   1 -14 2232.73 247.344   3
  -6   1 -15 143.340 391.083   2
   6  -1 -15 81.6257 160.546   3
  -6   1 -15 228.333 158.565   3
   6  -1 -16 704.936 194.697   3
  -6   1 -16 516.534 398.726   2
  -6   1 -16 853.900 195.532   3
  -6   1 -17 583.356 179.271   3
  -6   1 -18 1221.36 203.675   3
  -6   1 -19 647.789 158.004   3
  -6   1 -20 140.961 125.793   3
  -6   1 -21 1121.58 164.307   3
  -6   1 -22 252.825 105.532   3
  -6   1 -23 242.785 94.1973   3
  -6   1 -24 897.132 90.5063   3
  -6  -2 -22 439.807 109.763   3
  -6  -2 -21 373.621 122.642   3
  -6  -2 -20 1436.39 185.155   3
  -6  -2 -19 38.4987 145.058   3
   6   2 -18 1832.13 255.736   3
  -6  -2 -18 815.206 239.272   3
   6   2 -17 1724.09 250.316   3
  -6  -2 -17 1664.46 241.228   3
   6   2 -16 2577.42 281.069   3
  -6  -2 -16 2579.35 285.892   3
  -6  -2 -16 2065.06 656.022   2
   6   2 -15 3680.50 310.271   3
  -6  -2 -15 4166.86 325.195   3
  -6   2  15 3017.75 929.643   1
  -6  -2 -15 3261.20 795.518   2
   6   2 -14 2626.94 275.935   3
  -6  -2 -14 2493.69 702.269   2
  -6   2  14 2315.59 833.820   1
  -6  -2 -14 2913.19 283.367   3
   6   2 -13 1173.87 201.407   3
  -6  -2 -13 1356.80 507.455   2
  -6   2  13 1128.12 672.697   1
  -6  -2 -13 1364.68 197.804   3
   6   2 -12 1524.67 204.743   3
  -6  -2 -12 1822.18 570.018   2
  -6   2  12 1963.31 729.629   1
   6   2 -11 3228.42 264.768   3
  -6  -2 -11 3471.28 689.614   2
  -6  -2 -10 108.762 314.884   2
  -6  -2  -9 1047.57 433.950   2
  -6  -2  -8 6534.21 830.169   2
  -6  -2  -7 3173.18 606.624   2
  -6  -2  -6 269.805 318.566   2
  -6  -2  -5 15621.8 1132.42   2
  -6  -2  -4 39952.2 1656.60   2
  -6  -2  -3 36601.5 1538.39   2
  -6  -2  -2 4346.22 570.647   2
  -6   2   1 353.695 190.870   2
  -6  -2  -1 421.710 282.712   2
  -6   2   1 255.657 290.661   1
  -6   2   0 1181.34 275.158   2
  -6   2   0 1334.69 405.069   1
  -6   2  -1 580.611 277.825   2
  -6   2  -1 386.189 276.768   1
  -6   2  -2 4886.77 557.043   1
  -6   2  -2 4762.46 526.697   2
  -6   2  -3 36296.2 1355.37   1
  -6   2  -3 37045.2 1421.71   2
  -6   2  -4 37257.5 1346.44   1
  -6   2  -4 40076.1 1546.07   2
  -6   2  -5 16197.9 1059.73   2
  -6   2  -5 14165.9 826.305   1
  -6   2  -6-16.3730 277.572   2
  -6   2  -6 11.6228 173.604   1
  -6   2  -7 3700.50 636.379   2
  -6   2  -8 7757.70 848.825   2
  -6   2  -9 1360.91 476.850   2
  -6   2 -10 148.387 313.088   2
  -6   2 -11 3345.43 648.495   2
   6  -2 -12 1308.90 202.071   3
  -6   2 -12 1438.90 547.758   2
  -6   2 -13 1338.28 516.266   2
  -6   2 -13 1297.33 197.882   3
   6  -2 -13 1271.36 207.220   3
   6  -2 -14 2807.83 282.557   3
  -6   2 -14 2962.32 274.818   3
  -6   2 -14 2612.42 719.934   2
   6  -2 -15 3846.12 309.037   3
  -6   2 -15 4356.69 317.917   3
  -6   2 -15 3815.38 796.048   2
  -6   2 -16 2946.16 267.307   3
  -6   2 -17 1976.80 233.897   3
  -6   2 -18 1886.63 233.315   3
  -6   2 -19 243.602 141.602   3
  -6   2 -20 1314.03 184.357   3
  -6   2 -21 351.309 124.096   3
  -6   2 -22 432.754 110.191   3
  -6   2 -23 501.627 99.9183   3
  -6   2 -24 48.1284 58.4503   3
  -6  -3 -22 752.465 111.792   3
  -6  -3 -21 4409.16 245.343   3
  -6  -3 -20 581.574 146.853   3
  -6  -3 -19-8.77083 134.129   3
   6   3 -18 1034.55 214.508   3
  -6  -3 -18 837.990 202.543   3
   6   3 -17 586.620 219.826   3
  -6  -3 -17 426.083 175.208   3
  -6  -3 -16 773.829 483.709   2
  -6  -3 -16 865.346 205.064   3
  -6   3  15 137.589 430.047   1
  -6  -3 -15 164.130 361.825   2
   6   3 -15 429.718 184.007   3
  -6  -3 -15 456.260 173.175   3
   6   3 -14 992.563 192.364   3
  -6   3  14 880.691 635.797   1
  -6  -3 -14 1247.29 212.063   3
  -6  -3 -14 859.293 499.635   2
  -6  -3 -13 452.416 414.972   2
   6   3 -13 312.471 160.796   3
  -6  -3 -13 485.157 168.479   3
  -6   3  13 72.4085 468.634   1
   6   3 -12 811.304 195.989   3
  -6  -3 -12 546.946 429.064   2
  -6   3  12 769.971 541.219   1
   6   3 -11 2778.16 270.901   3
  -6   3  11 2882.84 870.165   1
  -6  -3 -11 2793.02 658.875   2
  -6   3  10 4514.46 913.703   1
  -6  -3 -10 4117.48 711.950   2
  -6   3   9 6652.85 1052.94   1
  -6  -3  -9 5989.69 840.151   2
  -6  -3  -8 14911.1 1236.59   2
  -6   3   8 16456.6 1515.13   1
  -6  -3  -7 3869.29 699.418   2
  -6   3   7 4513.43 828.969   1
  -6  -3  -6 550.868 375.001   2
  -6   3   6 742.122 446.203   1
  -6  -3  -5 1741.40 497.790   2
  -6   3   5 1734.87 557.157   1
  -6   3   4 1133.76 463.204   1
  -6  -3  -4 934.007 416.529   2
  -6  -3  -3 13108.0 1001.56   2
  -6   3   3 14319.6 1167.26   1
  -6   3   2 32234.2 1656.92   1
  -6   3   1 4464.62 638.446   1
  -6   3   0 504.195 333.350   1
  -6   3  -1 4286.41 586.410   1
  -6   3  -1 4583.37 511.410   2
  -6   3  -2 29624.6 1324.56   1
  -6   3  -2 30759.7 1257.47   2
  -6   3  -3 13369.5 894.800   1
  -6   3  -3 13683.6 893.075   2
  -6   3  -4 1091.09 358.851   2
  -6   3  -4 1070.26 348.717   1
  -6   3  -5 1342.25 335.812   1
  -6   3  -5 1474.63 388.700   2
  -6   3  -6 709.989 342.878   2
  -6   3  -6 484.727 260.225   1
  -6   3  -7 4304.08 643.854   2
  -6   3  -8 16171.4 1179.02   2
  -6   3  -9 6552.73 805.375   2
  -6   3 -10 4141.80 717.482   2
  -6   3 -11 2921.87 639.307   2
  -6   3 -12 396.059 361.362   2
  -6   3 -13 370.154 342.226   2
  -6   3 -13 484.614 155.498   3
  -6   3 -14 1121.77 183.802   3
  -6   3 -15 356.245 154.514   3
  -6   3 -16 1018.24 186.655   3
  -6   3 -17 422.237 161.934   3
  -6   3 -18 1079.86 191.497   3
  -6   3 -19 53.7083 128.261   3
  -6   3 -20 481.361 141.643   3
  -6   3 -21 4521.17 259.255   3
  -6   3 -22 780.462 124.096   3
  -6   3 -23 758.918 107.495   3
  -6   3 -24 89.2661 59.9206   3
  -6  -4 -20 1743.73 185.570   3
  -6  -4 -19 1579.24 194.381   3
   6   4 -18 770.507 197.818   3
  -6  -4 -18 1089.33 184.556   3
   6   4 -17 2848.95 302.441   3
  -6  -4 -17 2819.58 269.781   3
   6   4 -16 1102.61 224.413   3
  -6  -4 -16 860.270 487.798   2
  -6  -4 -16 1366.64 207.845   3
   6   4 -15 10015.6 465.448   3
  -6  -4 -15 8148.73 419.977   3
   6   4 -14 629.022 184.727   3
  -6  -4 -14 619.543 424.565   2
  -6  -4 -14 628.711 172.561   3
  -6   4  14 600.296 651.958   1
   6   4 -13 2798.13 270.468   3
  -6   4  13 3256.58 903.486   1
  -6  -4 -13 2946.86 270.539   3
  -6  -4 -13 2757.47 704.688   2
   6   4 -12 7556.99 395.504   3
  -6   4  12 8569.81 1314.68   1
  -6  -4 -12 7962.94 1072.55   2
   6   4 -11 7457.97 375.174   3
  -6   4  11 9684.82 1311.27   1
  -6  -4 -11 7898.16 1038.81   2
   6   4 -10 1897.98 204.955   3
  -6   4  10 2897.96 798.293   1
  -6  -4 -10 2181.18 591.624   2
  -6   4   9 560.532 455.280   1
  -6  -4  -9 135.410 329.036   2
  -6  -4  -8 3990.49 730.262   2
  -6   4   8 4154.93 841.757   1
  -6   4   7 680.579 403.333   1
  -6  -4  -7 842.773 438.064   2
  -6   4   6 1541.95 584.912   1
  -6  -4  -6 1787.02 523.482   2
  -6  -4  -5 6057.71 813.230   2
  -6   4   5 5924.67 864.415   1
  -6  -4  -4 6561.04 861.509   2
  -6   4   4 6045.77 816.302   1
  -6   4   3 932.529 411.280   1
  -6   4   2 1802.04 485.169   1
  -6   4   1 835.826 397.819   1
  -6   4   0 3810.47 611.228   1
  -6   4  -1 975.450 388.649   1
  -6   4  -2 1875.90 447.561   1
  -6   4  -3 1211.73 357.193   2
  -6   4  -3 1009.83 356.238   1
  -6   4  -4 6628.11 693.120   2
  -6   4  -4 6286.76 655.740   1
  -6   4  -5 6195.84 690.262   2
  -6   4  -5 5904.36 633.666   1
  -6   4  -6 1880.57 459.752   2
  -6   4  -6 1583.87 378.851   1
  -6   4  -7 781.719 368.077   2
  -6   4  -8 3818.79 636.699   2
  -6   4  -9 295.041 327.703   2
  -6   4 -10 2483.72 588.592   2
  -6   4 -11 8251.91 985.711   2
  -6   4 -12 8168.19 377.108   3
  -6   4 -13 2983.62 256.530   3
  -6   4 -14 1893.82 228.441   3
  -6   4 -15 7529.99 389.861   3
  -6   4 -16 1303.88 200.124   3
  -6   4 -17 2623.96 252.479   3
  -6   4 -18 819.288 169.297   3
  -6   4 -19 1322.95 189.174   3
  -6   4 -20 1711.84 190.857   3
  -6   4 -20-372.004 313.210   6
  -6   4 -21 56.0915 97.2589   3
  -6   4 -22 76.7843 87.6008   3
  -6   4 -23 469.966 91.4639   3
  -6   4 -24 30.5847 51.2668   3
  -6  -5 -19 926.815 161.921   3
  -6  -5 -18 3081.55 254.303   3
   6   5 -17 2704.70 289.179   3
  -6  -5 -17 3459.39 277.993   3
   6   5 -16 416.195 178.276   3
  -6  -5 -16 701.217 179.711   3
   6   5 -15 3285.95 300.085   3
  -6  -5 -15 3844.99 298.933   3
   6   5 -14 2320.22 260.214   3
  -6  -5 -14 2062.69 695.380   2
  -6   5  14 1499.30 680.576   1
  -6  -5 -14 2345.75 256.359   3
   6   5 -13 251.582 168.008   3
   6   5 -13-35.3171 347.356   6
  -6  -5 -13-15.4967 365.102   2
  -6  -5 -13 561.113 212.890   3
  -6   5  13-50.4508 428.199   1
   6   5 -12 1866.43 229.498   3
   6   5 -12 2570.92 435.704   6
  -6  -5 -12 2097.04 651.820   2
  -6   5  12 2009.36 744.765   1
   6   5 -12 1556.23 195.006   4
   6   5 -11 569.842 147.041   4
   6   5 -11 506.219 158.479   3
   6   5 -11-15.3123 341.971   6
  -6  -5 -11 822.220 489.168   2
  -6   5  11 662.064 487.623   1
   6   5 -10 1920.31 271.807   3
  -6   5  10 1952.23 664.341   1
  -6  -5 -10 1958.49 586.229   2
  -6  -5  -9 5606.78 887.606   2
  -6   5   9 5743.89 984.665   1
  -6   5   8 2494.84 677.450   1
  -6  -5  -8 2223.06 615.041   2
  -6  -5  -7 12556.5 1214.09   2
  -6   5   7 12344.2 1252.45   1
  -6  -5  -6 27076.9 1716.06   2
  -6   5   6 26465.0 1772.93   1
  -6  -5  -5 5576.17 820.913   2
  -6   5   5 5417.34 827.123   1
  -6   5   4 606.897 388.114   1
  -6   5   3-132.944 368.472   1
  -6   5   2 370.750 371.466   1
  -6   5   1 1703.12 478.424   1
  -6   5   0-24.6263 290.302   1
  -6   5  -1 1728.71 458.886   1
  -6   5  -2 453.917 345.341   1
  -6   5  -3 40.6153 265.680   1
  -6   5  -4 581.039 355.406   1
  -6   5  -5 5189.47 645.492   1
  -6   5  -6 25321.2 1339.41   1
  -6   5  -7 11004.2 882.216   1
  -6   5 -12 2017.81 209.069   3
  -6   5 -13 95.0419 129.515   3
  -6   5 -14 2527.78 241.253   3
  -6   5 -15 3723.75 284.497   3
  -6   5 -16 515.049 162.378   3
  -6   5 -17 3127.26 259.629   3
  -6   5 -18 2876.55 246.262   3
  -6   5 -19 902.506 161.666   3
  -6   5 -20 28.1809 296.219   6
  -6   5 -20 98.2328 110.060   3
  -6   5 -21 434.558 112.869   3
  -6   5 -22 50.3918 81.0896   3
  -6   5 -23 27.0436 66.0550   3
   6   6 -16 1982.94 260.645   3
   6   6 -15 5135.20 355.390   3
  -6  -6 -15 3428.56 832.098   2
   6   6 -14 3382.60 297.434   3
  -6   6  14 2020.91 768.102   1
  -6  -6 -14 2648.78 750.368   2
   6   6 -13 1217.27 215.922   3
  -6   6  13 1113.61 614.690   1
   6   6 -13 32.3517 373.524   6
  -6  -6 -13 866.921 482.871   2
   6   6 -13 921.552 169.430   4
   6   6 -12 6914.83 374.149   3
  -6   6  12 6237.32 1133.17   1
   6   6 -12 5404.95 318.025   4
  -6  -6 -12 6730.27 1043.90   2
  -6  -6 -11 6830.48 1052.16   2
   6   6 -11 6155.42 352.242   3
  -6   6  11 6904.62 1140.99   1
   6   6 -11 5684.58 325.708   4
   6   6 -10 761.020 169.010   3
  -6  -6 -10 933.515 516.866   2
   6   6 -10 71.4342 368.254   6
  -6   6  10 1019.16 551.114   1
   6   6 -10 693.613 156.620   4
   6   6  -9 1317.38 185.902   3
  -6  -6  -9 1626.08 565.342   2
  -6   6   9 1432.79 610.412   1
  -6  -6  -8 11967.5 1283.16   2
  -6   6   8 11432.6 1330.01   1
  -6  -6  -7 15765.2 1428.26   2
  -6   6   7 13595.2 1367.62   1
  -6  -6  -6 20366.5 1541.54   2
  -6   6   6 18616.4 1525.59   1
  -6   6   5 1415.60 504.074   1
  -6   6   4 1267.51 469.207   1
  -6   6   3 2299.39 580.444   1
  -6   6   2 7472.04 899.649   1
  -6   6   1 5981.42 797.439   1
  -6   6   0 7577.86 846.183   1
  -6   6  -1 6115.71 762.591   1
  -6   6  -2 8063.25 861.550   1
  -6   6  -3 2779.16 563.277   1
  -6   6  -4 1507.98 437.904   1
  -6   6  -5 1857.30 441.788   1
  -6   6  -6 19314.6 1250.00   1
  -6   6  -7 13359.6 1055.03   1
  -6   6 -11 6118.21 319.844   3
  -6   6 -12 6702.16 342.057   3
  -6   6 -13 1181.28 179.953   3
  -6   6 -14 3714.74 295.663   3
  -6   6 -15 4877.42 307.758   3
  -6   6 -16 1851.57 222.266   3
  -6   6 -17 703.284 162.132   3
  -6   6 -18 258.515 124.442   3
  -6   6 -19 82.1415 107.358   3
  -6   6 -20-4.86416 279.888   6
  -6   6 -20 543.249 128.064   3
  -6   6 -21 100.579 90.5222   3
  -6   6 -22 104.305 77.4486   3
  -6   6 -23 376.934 76.0596   3
   6   7 -15 305.826 168.387   3
   6   7 -15 40.2267 362.747   6
   6   7 -14 1459.51 227.170   3
  -6  -7 -14 1380.91 579.861   2
   6   7 -14 1147.05 177.295   4
   6   7 -13 690.617 159.692   4
   6   7 -13 763.529 195.196   3
  -6  -7 -13 687.150 500.690   2
   6   7 -13-50.8422 380.915   6
  -6   7  13 460.545 461.428   1
   6   7 -12 594.774 180.985   4
  -6   7  12 665.476 544.859   1
   6   7 -12 600.905 195.439   3
  -6  -7 -12 564.063 429.991   2
  -6  -7 -11 4759.26 930.408   2
  -6   7  11 4509.08 1003.72   1
   6   7 -11 4317.90 320.902   3
   6   7 -11 3347.53 277.936   4
  -6  -7 -10 4496.58 910.357   2
   6   7 -10 4034.26 331.622   3
  -6   7  10 4103.90 911.635   1
  -6  -7  -9 11725.9 1363.31   2
  -6   7   9 11773.3 1387.10   1
  -6  -7  -8 6006.53 1016.13   2
  -6   7   8 5407.93 947.489   1
  -6  -7  -7 14579.5 1459.97   2
  -6   7   7 13572.3 1384.31   1
  -6   7   6 30044.7 1938.37   1
  -6   7   5 37107.9 2072.98   1
  -6   7   4 6694.25 928.775   1
  -6   7   3 1988.52 519.798   1
  -6   7   2 6811.71 887.415   1
  -6   7   1 2496.40 575.376   1
  -6   7   0 826.688 435.430   1
  -6   7  -1 2710.25 575.257   1
  -6   7  -2 6942.28 828.767   1
  -6   7  -3 2715.13 557.031   1
  -6   7  -4 6547.64 794.780   1
  -6   7  -5 37223.6 1823.80   1
  -6   7  -6 28324.8 1600.33   1
  -6   7  -7 11485.0 1089.13   1
  -6   7 -10 3462.90 244.134   3
  -6   7 -11 4015.14 266.087   3
  -6   7 -12 700.302 158.603   3
  -6   7 -13 946.424 169.014   3
  -6   7 -14 1702.48 202.543   3
  -6   7 -15 306.403 136.434   3
  -6   7 -16 768.499 162.722   3
  -6   7 -17 90.8791 114.991   3
  -6   7 -18 414.669 130.621   3
  -6   7 -19 233.055 114.349   3
  -6   7 -19 1295.24 453.416   6
  -6   7 -20-14.8137 284.359   6
  -6   7 -20 45.4707 91.3145   3
  -6   7 -21 1878.82 153.600   3
  -6   7 -21-48.9751 216.813   6
  -6   7 -22 323.634 81.0522   3
  -6   7 -23 85.1731 54.4411   3
   6   8 -15 39.4205 381.157   6
  -6  -8 -14 1547.15 614.997   2
   6   8 -14 2033.47 228.099   4
   6   8 -13 116.553 134.509   4
   6   8 -13-8.94827 392.097   6
  -6  -8 -13-75.0183 396.704   2
  -6   8  13-102.079 408.393   1
   6   8 -12 1437.44 567.424   6
  -6  -8 -12 2077.88 742.907   2
  -6   8  12 2035.22 753.213   1
   6   8 -12 1989.41 228.145   4
   6   8 -11-71.0705 390.924   6
  -6  -8 -11 977.202 583.536   2
  -6   8  11 532.891 477.475   1
   6   8 -10-142.623 399.319   6
  -6  -8 -10 47.8028 457.924   2
  -6   8  10 99.5942 396.873   1
   6   8  -9 475.466 420.849   6
  -6   8   9 190.552 369.663   1
  -6  -8  -9 186.322 413.089   2
  -6   8   8 9213.35 1206.76   1
  -6  -8  -8 9751.95 1319.74   2
   6   8  -8 56.8824 352.302   6
  -6   8   7 4406.44 854.702   1
  -6  -8  -7 4626.04 927.510   2
  -6   8   6 3919.44 792.449   1
  -6   8   5 6876.93 993.753   1
  -6   8   4 10325.1 1134.64   1
  -6   8   3 4986.49 804.405   1
  -6   8   2 2260.96 603.770   1
  -6   8   1 458.373 377.337   1
  -6   8   0 1556.70 478.904   1
  -6   8  -1 366.039 346.245   1
  -6   8  -2 2412.54 537.587   1
  -6   8  -3 5381.11 743.251   1
  -6   8  -4 11063.0 1063.63   1
  -6   8  -5 7222.47 871.283   1
  -6   8  -6 4212.51 670.847   1
  -6   8  -7 3695.52 685.679   1
  -6   8  -9 171.990 96.3097   3
  -6   8 -10 108.873 115.754   3
  -6   8 -11 645.024 143.812   3
  -6   8 -12 2114.49 211.006   3
  -6   8 -13-39.0670 118.130   3
  -6   8 -14 2102.16 215.816   3
  -6   8 -15 1569.54 192.354   3
  -6   8 -16 397.289 143.696   3
  -6   8 -17 864.387 163.170   3
  -6   8 -18 397.900 121.477   3
  -6   8 -19 485.152 384.792   6
  -6   8 -19 329.695 110.370   3
  -6   8 -20 278.824 92.3361   3
  -6   8 -20 85.7038 256.976   6
  -6   8 -21 128.661 78.7053   3
  -6   8 -21 22.0305 212.051   6
  -6   8 -22 42.9388 62.3221   3
   6   9 -15 387.328 148.174   4
   6   9 -15-61.5627 378.300   6
   6   9 -14-163.591 395.008   6
   6   9 -14 1024.58 181.291   4
   6   9 -13 460.325 159.434   4
   6   9 -13-11.2953 387.963   6
  -6  -9 -13 353.576 467.116   2
   6   9 -12 38.6940 434.341   6
  -6  -9 -12 470.194 480.609   2
  -6   9  12 489.331 468.874   1
   6   9 -12 475.307 165.770   4
  -6   9  11 7075.31 1231.18   1
  -6  -9 -11 8174.52 1299.26   2
  -6   9  10 3838.08 894.928   1
  -6  -9 -10 4333.85 952.647   2
  -6   9   9 11814.0 1467.62   1
  -6  -9  -9 14186.3 1616.73   2
   6   9  -9 9005.35 726.662   6
  -6   9   8 5204.54 973.370   1
  -6  -9  -8 5513.02 1070.32   2
   6   9  -8-73.4172 378.485   6
  -6  -9  -8 0.20931 122.477   7
  -6  -9  -7 2.80064 119.716   7
   6   9  -7 108.008 407.273   6
  -6  -9  -6 8.05864 120.399   7
   6   9  -6 222.108 384.481   6
  -6   9   5 2502.67 655.952   1
  -6   9   4 2184.98 616.727   1
  -6   9   3 12217.8 1257.52   1
  -6   9   2 10303.0 1131.45   1
  -6   9   1 755.468 392.885   1
  -6   9   0-69.3236 302.441   1
  -6   9  -1 585.247 385.183   1
  -6   9  -2 9995.22 1043.47   1
  -6   9  -3 12520.1 1165.53   1
  -6   9  -4 2668.86 586.797   1
  -6   9  -5 2877.75 613.444   1
  -6   9  -6 4311.95 716.805   1
  -6   9  -7 1389.25 471.077   1
  -6   9  -9 5730.48 264.237   3
  -6   9 -10 3519.51 269.362   3
  -6   9 -11 6646.48 325.296   3
  -6   9 -12 424.693 137.905   3
  -6   9 -13 603.869 146.720   3
  -6   9 -14 958.494 156.603   3
  -6   9 -15 277.631 127.737   3
  -6   9 -16 1041.84 161.417   3
  -6   9 -17 577.078 125.323   3
  -6   9 -18 8365.34 579.529   6
  -6   9 -18 64.1986 101.642   3
  -6   9 -19 212.543 94.4645   3
  -6   9 -19 550.631 309.334   6
  -6   9 -20 608.602 110.338   3
  -6   9 -21 1699.15 122.876   3
  -6   9 -21 118.086 205.698   6
   6  10 -15 1278.68 177.088   4
   6  10 -14 456.634 151.845   4
   6  10 -14-122.442 384.698   6
   6  10 -13 24.1407 387.047   6
   6  10 -13 1152.96 195.213   4
  -6  10  12 1673.09 657.617   1
  -6 -10 -12 2611.24 801.632   2
  -6 -10 -11 5728.33 1172.37   2
   6  10 -11 6442.98 624.930   6
  -6  10  11 4615.34 1025.49   1
   6  10 -10-11.2963 390.924   6
  -6  10  10 166.558 376.326   1
  -6 -10 -10 142.428 461.134   2
  -6 -10  -9 50.5637 141.374   7
   6  10  -9-28.1401 393.595   6
  -6  10   9 468.163 519.467   1
  -6 -10  -9 438.975 487.746   2
  -6 -10  -8-116.899 146.085   7
   6  10  -8 6.48074 366.658   6
  -6  10   8 1590.54 604.157   1
  -6 -10  -8 2158.59 801.724   2
   6  10  -7 14.8889 369.897   6
  -6  10   7 4.84689 370.471   1
  -6 -10  -7 20.6394 138.521   7
  -6 -10  -6 0.90436 128.784   7
   6  10  -6 177.393 433.713   6
  -6  10   6 867.383 480.891   1
  -6 -10  -5-64.9962 146.956   7
   6  10  -5-76.2708 345.723   6
  -6 -10  -4-50.4691 140.202   7
   6  10  -4 1343.62 662.725   6
  -6 -10  -3 5.90161 128.345   7
  -6  10   3 465.072 428.912   1
  -6 -10  -2-5.61030 129.415   7
  -6  10   2 4176.67 794.093   1
  -6  10   1 4311.23 783.285   1
  -6  10   0 13608.6 1301.35   1
  -6  10  -1 4257.07 745.415   1
  -6  10  -2 4610.34 775.871   1
  -6  10  -3 545.146 411.613   1
  -6  10  -4 3272.99 665.881   1
  -6  10  -5 3466.16 666.976   1
  -6  10  -6 609.515 392.484   1
  -6  10  -7 112.292 297.422   1
   6 -10 -11 29.5151 168.729   7
  -6  10 -11 4590.51 263.327   3
  -6  10 -12 2583.15 210.457   3
  -6  10 -13 1070.58 171.670   3
  -6  10 -14 420.788 126.267   3
  -6  10 -15 1440.79 165.409   3
  -6  10 -16 400.261 116.047   3
  -6  10 -17 29.0839 327.342   6
  -6  10 -17 852.931 128.364   3
  -6  10 -18 725.575 117.607   3
  -6  10 -18 18.4163 313.075   6
  -6  10 -19 440.255 92.4482   3
  -6  10 -19 34.9106 255.327   6
  -6  10 -20 446.580 80.8843   3
  -6  10 -20 28.0284 223.910   6
  -6  10 -21 81.0973 50.5647   3
  -6  10 -21 74.4276 180.016   6
   6  11 -16 113.140 103.640   4
   6  11 -15 422.899 156.797   4
   6  11 -14-90.7893 372.328   6
   6  11 -14 2449.74 240.116   4
   6  11 -13 308.178 159.199   4
   6  11 -13 44.5738 392.880   6
   6  11 -12-25.6006 396.462   6
  -6  11  11 394.759 424.112   1
   6  11 -11 370.735 490.812   6
  -6 -11 -11 350.773 520.780   2
  -6  11  10 209.439 456.551   1
   6  11 -10-169.725 412.905   6
  -6 -11 -10 43.0405 468.182   2
   6  11  -9 11.0744 496.863   6
  -6  11   9 413.327 491.301   1
  -6 -11  -9 545.335 586.796   2
  -6 -11  -9 21.9220 147.419   7
  -6 -11  -8 59.1710 153.142   7
   6  11  -8 102.677 386.920   6
  -6 -11  -7-17.4674 140.879   7
   6  11  -7 72.6623 380.126   6
   6  11  -6 15957.9 828.091   6
  -6  11   6 15375.7 1567.68   1
  -6 -11  -5-20.2861 148.767   7
   6  11  -5-178.153 363.477   6
  -6 -11  -4-352.592 154.908   7
  -6  11   4 834.033 475.547   1
  -6 -11  -3-7.80893 146.095   7
  -6  11   3-45.4118 350.420   1
  -6 -11  -2-22.9492 145.062   7
  -6  11   2 1543.90 547.360   1
  -6 -11  -1-6.74728 141.093   7
  -6  11   1 1480.52 522.568   1
  -6  11   0 55.9489 318.998   1
  -6 -11   0 38.9346 144.785   7
  -6 -11   1-7.65922 142.754   7
  -6  11  -1 1354.52 522.447   1
  -6 -11   2-0.22113 143.319   7
  -6  11  -2 1462.53 555.397   1
  -6  11  -3-15.2154 311.397   1
  -6  11  -4 761.692 426.464   1
  -6  11  -5 7344.69 1011.90   1
  -6  11  -6 13961.7 1348.08   1
   6 -11 -10 75.5112 201.949   7
   6 -11 -11-84.4261 188.661   7
   6 -11 -12 1.83345 163.881   7
  -6  11 -13 399.467 118.320   3
  -6  11 -14 2252.61 189.233   3
  -6  11 -15 231.023 105.267   3
  -6  11 -16 71.8591 89.0577   3
  -6  11 -16 806.549 380.653   6
  -6  11 -17 518.796 101.740   3
  -6  11 -17-27.5930 313.916   6
  -6  11 -18-12.0152 278.733   6
  -6  11 -18 733.946 104.159   3
  -6  11 -19 535.941 82.2463   3
  -6  11 -19 52.6839 251.209   6
  -6  11 -20-48.4542 202.136   6
  -6  11 -21-147.089 158.409   6
   6  12 -16 608.719 121.174   4
   6  12 -15 1587.70 182.475   4
   6  12 -14 1249.53 192.027   4
   6  12 -13-92.0868 414.059   6
   6  12 -13 852.574 193.456   4
   6  12 -12-61.6890 394.101   6
   6  12 -11-61.2179 440.148   6
  -6  12  10 1385.53 701.152   1
   6  12 -10 2.65477 418.541   6
  -6 -12 -10 186.383 485.687   2
  -6  12   9 426.847 476.903   1
   6  12  -9-25.9438 398.489   6
  -6 -12  -9 208.655 173.394   7
  -6 -12  -9-100.861 620.167   2
  -6 -12  -8 14.0699 159.043   7
  -6  12   8 1256.21 615.210   1
   6  12  -8 39.9492 411.360   6
  -6 -12  -8 1535.81 717.974   2
  -6 -12  -7 15.6288 155.564   7
   6  12  -7-8.49784 384.185   6
  -6  12   6 73.3274 361.122   1
   6  12  -6 889.575 495.219   6
  -6 -12  -6 86.5656 168.910   7
  -6 -12  -5 46.5962 153.420   7
  -6  12   5 257.490 397.836   1
  -6 -12  -4-36.6729 158.775   7
  -6  12   4 2219.45 676.799   1
  -6 -12  -3-44.0980 163.866   7
  -6  12   3 1311.24 545.021   1
  -6 -12  -2-70.4216 156.939   7
  -6  12   2 2839.32 731.861   1
  -6 -12  -1 12.0621 156.214   7
  -6  12   1 6026.84 973.212   1
  -6 -12   0 49.5367 155.122   7
  -6  12   0 12852.8 1360.22   1
  -6 -12   1 38.4714 150.290   7
  -6  12  -1 6170.61 971.737   1
  -6 -12   2 7708.64 390.982   7
  -6  12  -2 2971.96 720.168   1
  -6  12  -3 1269.48 493.452   1
  -6  12  -4 2302.36 614.245   1
  -6  12  -5-22.2941 351.574   1
  -6  12  -6 21.4786 298.629   1
   6 -12  -9-33.8713 215.489   7
   6 -12 -10 44.0555 189.282   7
   6 -12 -11-71.9676 202.356   7
   6 -12 -12 78.0360 168.422   7
  -6  12 -15 388.893 383.430   6
  -6  12 -16-0.51999 304.962   6
  -6  12 -17 24.6403 278.727   6
  -6  12 -19 141.808 231.392   6
   6  13 -16 271.527 116.222   4
   6  13 -15 45.7781 106.060   4
   6  13 -14 235.488 131.410   4
   6  13 -13 85.6271 133.868   4
   6  13 -12 276.970 141.098   4
   6  13 -11 171.349 419.240   6
   6  13 -10-347.867 437.069   6
  -6 -13  -9 6.41541 160.885   7
   6  13  -9-59.5929 394.983   6
  -6  13   8 1488.89 658.255   1
  -6 -13  -8-14.0775 161.707   7
   6  13  -8 2405.78 780.363   6
  -6 -13  -8 1898.11 842.411   2
  -6 -13  -7 5.44521 159.703   7
  -6  13   7 360.515 442.665   1
  -6  13   6 948.535 536.232   1
  -6 -13  -6 31.0275 238.078   7
  -6  13   5 2744.70 736.127   1
  -6 -13  -5-28.5998 166.902   7
  -6 -13  -4 2.30616 160.053   7
  -6  13   4 725.464 478.767   1
  -6 -13  -3-12.3848 168.706   7
  -6  13   3 6332.30 1061.21   1
  -6 -13  -2-26.4341 165.207   7
  -6  13   2 4742.83 908.127   1
  -6 -13  -1 15.7220 172.471   7
  -6  13   1 1239.85 514.488   1
  -6 -13   0 1.78466 162.069   7
  -6  13   0 231.175 392.735   1
  -6 -13   1 131.126 186.535   7
  -6  13  -1 1050.22 516.479   1
  -6  13  -2 4944.57 883.590   1
  -6  13  -3 6477.85 1006.13   1
  -6  13  -4 793.707 460.867   1
  -6  13  -5 2462.25 686.068   1
   6 -13  -7 56.1875 222.580   7
   6 -13  -8 31.2249 221.823   7
   6 -13  -9-10.1443 205.118   7
   6 -13 -10-14.5035 211.970   7
   6 -13 -11-5.65831 172.071   7
   6 -13 -12 131.913 172.496   7
  -6  13 -13 25.2115 346.105   6
  -6  13 -14-30.5802 317.746   6
  -6  13 -15 31.7743 305.325   6
  -6  13 -16 95.7912 292.340   6
  -6  13 -18 115.221 252.775   6
  -6  13 -19 460.774 210.849   6
  -6  13 -20-366.662 165.886   6
   6  14 -16 368.344 89.0587   4
   6  14 -15 2823.98 190.600   4
   6  14 -14 2135.95 194.579   4
   6  14 -13 113.277 125.585   4
   6  14 -12 28.0707 120.692   4
  -6 -14  -8-30.6248 171.735   7
  -6 -14  -7 83.6204 168.692   7
  -6 -14  -6-18.7086 174.970   7
  -6  14   6 286.487 426.628   1
  -6 -14  -5-9.38597 177.846   7
   6 -14   5-204.493 217.932   7
  -6 -14  -4-3.37252 172.509   7
  -6  14   4 979.510 542.556   1
  -6 -14  -3 0.29763 171.913   7
  -6  14   3 1561.13 596.300   1
  -6 -14  -2-36.6737 178.619   7
  -6  14   2 799.402 472.013   1
  -6 -14  -1 0.26977 169.951   7
  -6  14   1-72.8570 351.386   1
  -6 -14   0 35.5221 173.029   7
  -6  14   0 214.434 378.284   1
  -6 -14   1 252.208 203.015   7
  -6  14  -1 315.043 397.420   1
  -6  14  -2 821.101 484.998   1
  -6  14  -3 1621.35 574.997   1
  -6  14  -4 757.459 399.377   1
  -6  14  -5 1076.58 478.369   1
   6 -14  -5 305.755 293.645   7
   6 -14  -6-188.519 245.929   7
   6 -14  -7-18.0248 228.615   7
   6 -14  -8 10.2224 216.686   7
   6 -14  -9-23.5544 211.916   7
  -6  14 -10 24.0015 325.190   6
   6 -14 -10-17.0793 184.294   7
   6 -14 -11 61.9109 193.381   7
  -6  14 -11 4.06891 326.606   6
  -6  14 -12 338.072 358.562   6
   6 -14 -12-27.0785 163.764   7
  -6  14 -13 45.1226 305.034   6
  -6  14 -14-100.307 303.671   6
  -6  14 -15-7.99684 275.163   6
  -6  14 -16 97.4096 267.816   6
  -6  14 -17-133.295 232.327   6
  -6  14 -18 113.099 195.933   6
  -6  14 -19-29.9040 169.600   6
   6  15 -15 128.134 90.2306   4
   6  15 -14 635.717 124.841   4
   6  15 -13 541.007 135.967   4
   6  15 -12 49.5499 121.958   4
  -6 -15  -7 207.802 301.172   7
  -6 -15  -6-40.7354 187.013   7
  -6 -15  -5-7.12103 184.975   7
   6 -15   5 144.088 227.753   7
  -6 -15  -4-73.8906 195.622   7
   6 -15   4 24.3321 234.349   7
  -6 -15  -3 57.6115 204.920   7
   6 -15   3-235.855 237.365   7
  -6 -15  -2-17.3098 196.561   7
   6 -15   2-43.2147 224.140   7
  -6 -15  -1 199.884 340.959   7
   6 -15   1 17.9657 388.166   7
  -6 -15   0 168.551 195.375   7
  -6  15   0 418.495 388.849   1
   6 -15   0 316.116 311.609   7
   6 -15  -1 3.45874 237.308   7
  -6  15  -1 2080.88 657.320   1
   6 -15  -2-117.839 304.660   7
  -6  15  -2 1172.11 540.713   1
   6 -15  -3 921.004 384.667   7
  -6  15  -3 109.822 353.253   1
   6 -15  -4 265.043 257.500   7
   6 -15  -5 224.205 260.694   7
  -6  15  -6-98.8410 298.163   6
   6 -15  -6 130.064 246.913   7
  -6  15  -7-6.02452 307.642   6
   6 -15  -7-43.9597 231.603   7
   6 -15  -8-20.2562 212.775   7
  -6  15  -8-173.716 334.742   6
   6 -15  -9 55.3972 212.567   7
  -6  15  -9 382.536 455.437   6
   6 -15 -10-45.7808 194.610   7
  -6  15 -10-81.0200 316.378   6
   6 -15 -11-105.949 178.595   7
  -6  15 -11-258.744 311.670   6
   6 -15 -12 18.5184 148.990   7
  -6  15 -12 193.365 304.872   6
  -6  15 -13 192.725 279.658   6
  -6  15 -14 69.4375 259.729   6
  -6  15 -15 349.345 277.037   6
  -6  15 -16 1040.68 283.342   6
  -6  15 -18 982.703 217.162   6
   6  16 -15 288.400 81.6527   4
   6  16 -14 444.093 105.617   4
   6  16 -13 930.025 137.574   4
   6  16 -12 1923.99 181.866   4
   6  16 -11 3884.68 259.413   4
  -6 -16  -6-64.7134 182.218   7
  -6 -16  -5-34.1710 190.489   7
   6 -16   5-72.7110 201.318   7
   6 -16   4 139.100 207.413   7
  -6 -16  -4-25.3975 181.735   7
  -6 -16  -3 2.32165 181.793   7
   6 -16   3 121.151 221.765   7
  -6 -16  -2 23.6177 189.815   7
   6 -16   2-34.6697 204.931   7
  -6 -16  -1 7.92645 182.975   7
   6 -16   1 197.827 254.367   7
   6 -16   0 45.5493 239.021   7
   6 -16  -1-46.8080 244.888   7
   6 -16  -2 219.415 243.232   7
   6 -16  -3 177.836 232.532   7
   6 -16  -4 38.6524 226.204   7
   6 -16  -5 132.936 264.464   7
   6 -16  -6 210.498 244.538   7
   6 -16  -7-3.25439 220.525   7
  -6  16  -7-215.762 276.966   6
   6 -16  -8-2.10656 199.295   7
  -6  16  -8 94.8324 272.583   6
   6 -16  -9-43.5096 196.709   7
  -6  16  -9 139.515 299.977   6
   6 -16 -10-35.5999 186.361   7
   6 -16 -11-31.6196 160.055   7
  -6  16 -11 264.535 278.091   6
   6 -16 -12 0.62953 133.831   7
  -6  16 -12 32.4717 252.456   6
  -6  16 -13 61.3702 243.396   6
  -6  16 -14-59.3181 229.262   6
  -6  16 -15 1927.72 288.618   6
  -6  16 -16-32.1610 179.645   6
  -6  16 -17-79.3053 160.012   6
   6  17 -14 453.240 87.4959   4
   6  17 -13 53.1878 83.8365   4
   6  17 -12 791.561 130.544   4
   6  17 -11 546.402 135.415   4
   6  17 -10 688.828 148.218   4
   6 -17   5 26.1295 184.261   7
   6 -17   4-18.4218 191.796   7
   6 -17   3 5.00011 204.284   7
   6 -17   2-5.04544 209.927   7
   6 -17   1-76.1959 223.166   7
   6 -17   0 47.1316 211.287   7
   6 -17  -1 89.2755 219.797   7
   6  17   1 837.279 158.828   4
   6 -17  -2 386.804 246.238   7
   6 -17  -3 588.715 352.051   7
   6 -17  -4-21.2075 222.471   7
   6 -17  -5 92.5040 235.118   7
   6 -17  -6 213.753 264.869   7
   6 -17  -7 9.63273 195.685   7
   6 -17  -8 2.37462 194.302   7
  -6  17  -8 90.2461 282.779   6
   6 -17  -9-7.66698 169.641   7
  -6  17  -9 161.410 252.788   6
   6 -17 -10 9.22851 154.337   7
  -6  17 -10-91.6033 258.391   6
   6 -17 -11 11.8635 140.285   7
  -6  17 -11 79.6499 232.805   6
   6 -17 -12 0.38153 113.130   7
  -6  17 -12 99.9744 223.120   6
  -6  17 -14 66.4078 189.854   6
  -6  17 -15 325.038 185.640   6
  -6  17 -16-168.418 144.379   6
   6  18 -13 354.651 79.3230   4
   6  18 -12 426.863 100.082   4
   6  18 -11 465.292 109.374   4
   6  18 -10 256.746 107.421   4
   6  18  -9 55.8767 110.453   4
   6  18  -8 2506.62 207.140   4
   6 -18   5 38.8714 163.738   7
   6 -18   4-16.6567 171.955   7
   6 -18   3 183.675 445.889   7
   6 -18   2-2.90391 187.292   7
   6  18  -1 574.612 144.104   4
   6 -18   1-112.076 213.007   7
   6 -18   0 661.546 399.264   7
   6  18   0 1912.69 189.669   4
   6 -18  -1-49.0735 200.806   7
   6 -18  -2 170.570 225.712   7
   6 -18  -3 188.016 253.657   7
   6 -18  -4 28.0990 208.800   7
   6 -18  -5 12.3299 197.018   7
   6 -18  -6 540.670 267.914   7
   6 -18  -7 20.6756 189.074   7
   6 -18  -8-38.2001 168.513   7
   6 -18  -9 92.8310 176.967   7
  -6  18  -9 43.2769 206.491   6
   6 -18 -10 10.4392 135.565   7
  -6  18 -10-101.304 196.247   6
   6 -18 -11 21.4672 112.195   7
  -6  18 -11-227.560 196.199   6
  -6  18 -12 833.849 208.917   6
  -6  18 -13 45.8345 161.704   6
  -6  18 -14 426.646 201.698   6
   6  19 -12 153.876 65.0990   4
   6  19 -11 590.486 94.1902   4
   6  19 -10 623.318 106.299   4
   6  19  -9 1238.60 135.215   4
   6  19  -8 478.784 114.776   4
   6  19  -7 8.09611 94.6070   4
   6  19  -6 155.732 104.635   4
   6  19  -5 19.8495 102.752   4
   6 -19   4 25.6237 147.792   7
   6  19  -4 464.350 128.094   4
   6  19  -3 618.595 130.197   4
   6 -19   3 12.5742 153.673   7
   6 -19   2 4.12329 175.306   7
   6  19  -2 910.954 139.145   4
   6  19  -1 164.836 104.547   4
   6 -19   1-53.7678 184.286   7
   6  19   0 91.2793 100.152   4
   6 -19   0 38.3437 183.449   7
   6 -19  -1-49.1589 185.246   7
   6 -19  -2 52.3263 190.719   7
   6 -19  -3 834.269 243.814   7
   6 -19  -4-35.6020 192.460   7
   6 -19  -5 34.2242 175.738   7
   6 -19  -6-76.6030 183.190   7
   6 -19  -7-20.2052 163.967   7
   6 -19  -8-21.5152 146.415   7
   6 -19  -9 148.607 142.969   7
   6 -19 -10 55.3300 115.088   7
   6  20 -10 119.091 62.3292   4
   6  20  -9 142.802 71.9804   4
   6  20  -8 350.225 88.9810   4
   6  20  -7 424.031 107.220   4
   6  20  -6 295.618 92.4049   4
   6  20  -5 689.280 114.524   4
   6  20  -4 1053.13 131.537   4
   6 -20   3 945.664 202.624   7
   6  20  -3 3063.77 187.845   4
   6 -20   2 292.495 201.084   7
   6  20  -2 845.753 122.647   4
   6  20  -1 230.734 90.0844   4
   6 -20   1 76.1118 156.532   7
   6 -20   0 1.18281 166.142   7
   6 -20  -1 437.849 214.120   7
   6 -20  -2-28.8630 169.675   7
   6 -20  -3 216.584 178.029   7
   6 -20  -4-44.8685 150.904   7
   6 -20  -5 44.1149 147.244   7
   6 -20  -6 124.066 146.297   7
   6 -20  -7-55.5096 133.509   7
   6 -20  -8 41.2754 120.463   7
   6 -20  -9-21.4465 95.8821   7
   6  21  -7 355.368 72.4835   4
   6  21  -6 1859.75 121.566   4
   6  21  -5 605.780 87.6543   4
   6  21  -4 314.982 73.4736   4
   6  21  -3 161.471 70.1447   4
   6 -21   2 41.8458 111.342   7
   6 -21   1-6.00680 115.400   7
   6 -21   0-10.8964 122.493   7
   6 -21  -1 24.8956 132.991   7
   6 -21  -2 617.171 176.245   7
   6 -21  -3 123.671 130.679   7
   6 -21  -4-34.8807 123.919   7
   6 -21  -5-42.9460 125.035   7
   6 -21  -6 302.374 123.560   7
   6 -21  -7 27.1371 95.1862   7
  -7   0   0 18.2826 207.758   2
  -7   0   1 3882.51 419.653   2
  -7   0  -1 3853.33 493.654   2
  -7   0  -2 6633.09 697.299   1
  -7   0   2 6648.31 476.751   2
  -7   0  -2 6829.11 642.695   2
  -7   0  -3 10944.5 819.331   1
  -7   0  -3 11761.9 858.976   2
  -7   0  -4 6214.72 584.611   1
  -7   0  -4 7347.47 724.817   2
  -7   0  -5 9900.33 877.966   2
  -7   0  -6 3.91031 266.772   2
  -7   0  -7 2138.33 503.273   2
  -7   0  -8 7272.61 865.295   2
  -7   0  -9 180.091 284.110   2
  -7   0 -10 149.640 323.611   2
  -7   0 -11 662.718 405.023   2
  -7   0 -12 123.222 351.899   2
  -7   0 -13-163.700 343.183   2
  -7   0 -14 1230.43 477.851   2
  -7   0 -14 1584.23 228.040   3
  -7   0  15 2901.40 963.855   1
  -7   0 -15 4232.04 316.678   3
  -7   0 -15 3026.87 752.106   2
  -7   0 -16 3759.81 303.771   3
  -7   0 -17 1963.43 235.495   3
  -7   0 -18 1046.58 190.456   3
  -7   0 -19 1165.04 192.193   3
  -7   0 -20 1063.96 163.039   3
  -7   0 -21-49.3997 101.654   3
  -7   0 -22 20.8410 84.6700   3
  -7   0 -23 131.131 69.0084   3
  -7  -1 -23 368.262 77.7843   3
  -7  -1 -22 226.973 90.2752   3
  -7  -1 -21 2639.07 198.485   3
  -7  -1 -20 2674.39 221.795   3
  -7  -1 -19 229.964 153.902   3
  -7  -1 -18 2015.16 234.216   3
  -7  -1 -17 1152.38 214.763   3
  -7  -1 -16 1448.81 229.609   3
  -7  -1 -15-109.478 355.162   2
  -7   1  15 112.112 486.836   1
  -7  -1 -15 62.1175 153.482   3
  -7  -1 -14 1223.48 505.407   2
  -7  -1 -14 1453.60 231.006   3
  -7   1  14 1406.04 749.782   1
  -7  -1 -13 2901.31 684.812   2
  -7  -1 -12 4335.46 782.677   2
  -7  -1 -11 2207.18 597.317   2
  -7  -1 -10 5161.98 810.702   2
  -7  -1  -9 550.887 362.708   2
  -7  -1  -8 583.963 349.549   2
  -7  -1  -7 1607.24 445.928   2
  -7  -1  -6 6983.41 771.877   2
  -7  -1  -5 7237.78 773.088   2
  -7  -1  -4 4694.03 507.208   1
  -7  -1  -4 6655.70 731.354   2
  -7  -1  -3 9306.07 820.323   2
  -7  -1  -2 6710.44 678.943   2
  -7  -1  -1 6170.38 651.425   2
  -7   1   1 6187.63 507.335   2
  -7   1   0 60.6136 196.162   2
  -7  -1   0 51.0814 235.435   2
  -7  -1   1 6010.14 580.355   2
  -7   1  -1 6093.69 740.817   1
  -7   1  -1 6276.41 603.694   2
  -7  -1   2 7035.14 556.566   2
  -7   1  -2 5953.30 681.772   1
  -7   1  -2 6658.98 638.406   2
  -7   1  -3 8741.57 754.858   1
  -7   1  -3 9203.73 751.493   2
  -7   1  -4 5745.02 587.080   1
  -7   1  -4 6753.63 705.015   2
  -7   1  -5 7522.85 767.738   2
  -7   1  -6 7295.76 785.376   2
  -7   1  -7 1744.94 456.908   2
  -7   1  -8 751.758 354.026   2
  -7   1  -9 668.317 397.065   2
  -7   1 -10 5304.35 817.316   2
  -7   1 -11 2019.41 580.640   2
  -7   1 -12 4552.07 790.440   2
  -7   1 -13 2554.55 662.159   2
  -7   1 -14 1592.05 530.733   2
  -7   1 -14 1657.24 224.650   3
  -7   1 -15 253.819 325.268   2
  -7   1 -15 100.891 156.166   3
  -7   1 -16 1484.00 231.777   3
  -7   1 -17 1366.52 214.016   3
  -7   1 -18 1798.08 219.181   3
  -7   1 -19 525.229 156.014   3
  -7   1 -20 2432.91 215.878   3
  -7   1 -21 2531.35 201.060   3
  -7   1 -22 216.416 90.9632   3
  -7   1 -23 366.752 81.7964   3
  -7  -2 -22 174.790 83.8457   3
  -7  -2 -21 596.429 129.253   3
  -7  -2 -20 3880.43 252.192   3
  -7  -2 -19 1012.28 198.475   3
  -7  -2 -18 11739.0 516.782   3
  -7  -2 -17 1428.66 214.605   3
  -7  -2 -16 2257.76 263.291   3
  -7  -2 -15 500.279 389.170   2
  -7   2  15 369.785 493.941   1
  -7   2  14 721.590 577.867   1
  -7  -2 -14 864.594 518.587   2
  -7  -2 -14 1021.77 215.479   3
  -7  -2 -13 1664.20 585.046   2
  -7   2  13 1972.98 832.878   1
  -7   2  12 9099.03 1451.64   1
  -7  -2 -12 8188.06 1093.26   2
  -7  -2 -11 15673.2 1423.90   2
  -7  -2 -10 2288.06 602.284   2
  -7  -2  -9 1424.56 505.179   2
  -7  -2  -8 3508.11 639.624   2
  -7  -2  -7 2610.42 552.244   2
  -7  -2  -6 874.496 394.685   2
  -7  -2  -5 4225.86 636.994   2
  -7  -2  -4 966.717 397.155   2
  -7  -2  -3 1118.58 403.637   2
  -7  -2  -2 1591.84 421.661   2
  -7   2   1 316.625 213.529   2
  -7   2   1 260.230 324.068   1
  -7  -2  -1 256.785 294.999   2
  -7  -2   0 5335.27 615.370   2
  -7   2   0 4710.49 699.651   1
  -7   2   0 5105.12 502.055   2
  -7   2  -1 295.947 259.107   2
  -7   2  -1 325.438 289.984   1
  -7  -2   1 241.846 273.998   2
  -7  -2   2 1597.04 356.441   2
  -7   2  -2 1673.37 423.645   1
  -7   2  -2 2067.53 432.744   2
  -7   2  -3 1114.24 351.713   2
  -7   2  -3 958.594 326.590   1
  -7  -2   3 958.420 279.285   2
  -7   2  -4 1006.90 361.857   2
  -7   2  -4 745.093 289.686   1
  -7   2  -5 4203.83 592.272   2
  -7   2  -5 3220.49 461.597   1
  -7   2  -6 798.698 345.367   2
  -7   2  -7 2733.74 552.973   2
  -7   2  -8 3696.26 639.651   2
  -7   2  -9 1589.82 494.531   2
  -7   2 -10 2420.80 590.948   2
  -7   2 -11 16677.1 1392.25   2
  -7   2 -12 8784.14 1069.47   2
  -7   2 -13 1480.10 537.460   2
  -7   2 -14 956.754 486.039   2
  -7   2 -14 968.142 193.020   3
  -7   2 -15 941.792 194.981   3
  -7   2 -15 635.368 423.004   2
  -7   2 -16 2524.88 259.592   3
  -7   2 -17 1361.62 206.264   3
  -7   2 -18 1239.25 198.618   3
  -7   2 -19 1471.60 193.418   3
  -7   2 -20 3608.47 248.033   3
  -7   2 -21 577.813 125.300   3
  -7   2 -22 220.257 96.1235   3
  -7   2 -23 1027.90 111.155   3
  -7  -3 -21 639.882 123.085   3
  -7  -3 -20 249.198 124.964   3
  -7  -3 -19 365.631 141.346   3
  -7  -3 -18 717.749 191.136   3
  -7  -3 -17 1931.75 261.938   3
  -7  -3 -16 771.181 205.168   3
  -7   3  15 278.037 513.289   1
  -7  -3 -15 339.528 422.142   2
  -7  -3 -15 389.465 174.116   3
  -7   3  14 3019.68 937.689   1
  -7  -3 -14 3571.63 317.963   3
  -7  -3 -14 3242.69 791.620   2
  -7   3  13 3688.84 999.000   1
  -7  -3 -13 3810.74 829.494   2
  -7   3  12 713.527 532.347   1
  -7  -3 -12 520.812 396.856   2
   7   3 -12 433.876 134.405   4
  -7  -3 -11 2017.26 583.414   2
  -7   3  11 1989.79 767.705   1
   7   3 -11 2812.51 281.191   4
  -7   3  10 993.978 633.383   1
  -7  -3 -10 677.887 381.594   2
  -7  -3  -9 97.1807 334.929   2
  -7   3   9 52.4504 404.621   1
  -7  -3  -8 452.827 369.483   2
  -7   3   8 510.273 444.372   1
  -7  -3  -7 9085.94 990.780   2
  -7   3   7 8968.68 1158.05   1
  -7  -3  -6 14997.7 1223.34   2
  -7   3   6 14820.8 1413.25   1
  -7  -3  -5 12571.0 1094.54   2
  -7   3   5 13478.2 1300.50   1
  -7  -3  -4 3959.03 657.883   2
  -7   3   4 4407.41 786.785   1
  -7  -3  -3 584.923 376.400   2
  -7   3   3 454.385 396.481   1
  -7   3   2 706.549 386.370   1
  -7  -3  -2 761.908 375.500   2
  -7  -3  -1 953.095 392.465   2
  -7   3   1 1248.72 446.244   1
  -7   3   0 1484.95 461.738   1
  -7   3  -1 1386.12 334.104   2
  -7   3  -1 1241.96 426.034   1
  -7   3  -2 989.970 318.972   2
  -7   3  -2 784.173 341.359   1
  -7   3  -3 564.152 282.598   2
  -7   3  -3 703.744 326.325   1
  -7   3  -4 4491.26 613.464   2
  -7   3  -4 4196.16 575.721   1
  -7   3  -5 12837.7 974.127   2
  -7   3  -5 11010.0 837.776   1
  -7   3  -6 14848.4 1084.20   2
  -7   3  -7 9418.87 911.553   2
  -7   3  -8 701.853 384.533   2
  -7   3  -9 175.407 310.981   2
  -7   3 -10 1048.42 434.305   2
  -7   3 -11 2199.33 605.058   2
  -7   3 -12 503.167 393.941   2
  -7   3 -13 4370.77 302.632   3
  -7   3 -13 3976.61 812.826   2
  -7   3 -14 3640.06 289.614   3
  -7   3 -15 271.812 145.481   3
  -7   3 -16 869.974 181.175   3
  -7   3 -17 2399.37 244.582   3
  -7   3 -18 991.773 182.811   3
  -7   3 -19 455.499 142.941   3
  -7   3 -20 321.976 125.222   3
  -7   3 -21 531.813 122.259   3
  -7   3 -22 128.301 80.9137   3
  -7   3 -23 150.442 72.3161   3
  -7  -4 -20 1656.16 170.102   3
  -7  -4 -19 596.620 146.029   3
  -7  -4 -18 919.385 178.532   3
  -7  -4 -17 928.720 196.272   3
  -7  -4 -16 1230.59 207.309   3
  -7  -4 -15 198.529 351.473   2
  -7  -4 -15 672.123 186.852   3
  -7  -4 -14 2524.42 709.593   2
  -7  -4 -14 2876.30 278.758   3
  -7   4  14 2068.70 776.778   1
  -7   4  13 831.512 588.307   1
  -7  -4 -13 861.832 478.879   2
  -7   4  12 2108.80 749.673   1
  -7  -4 -12 2189.69 618.653   2
   7   4 -12 1687.15 209.463   4
  -7   4  11 7923.20 1269.52   1
   7   4 -11 5320.07 316.375   4
  -7  -4 -11 6800.16 996.441   2
  -7   4  10 3123.49 820.668   1
   7   4 -10 2412.13 226.336   4
  -7  -4 -10 3015.40 697.030   2
  -7  -4  -9 582.362 387.407   2
  -7   4   9 835.741 500.662   1
  -7  -4  -8 7111.60 942.012   2
  -7   4   8 7232.39 1106.59   1
  -7  -4  -7 5978.40 886.039   2
  -7   4   7 6085.43 988.731   1
  -7  -4  -6 3013.35 630.949   2
  -7   4   6 3130.50 720.576   1
  -7  -4  -5 1269.87 478.479   2
  -7   4   5 1185.52 484.287   1
  -7  -4  -4 4866.37 738.318   2
  -7   4   4 4331.72 772.707   1
  -7   4   3 1843.76 549.642   1
  -7  -4  -3 2111.60 514.644   2
  -7   4   2 791.562 414.845   1
  -7   4   1 533.125 349.759   1
  -7   4   0 3112.09 585.410   1
  -7   4  -1 445.875 317.685   1
  -7   4  -2 1065.88 389.121   1
  -7   4  -3 2137.97 464.212   1
  -7   4  -3 2106.64 439.311   2
  -7   4  -4 4715.80 605.000   2
  -7   4  -4 4653.56 611.875   1
  -7   4  -5 1161.65 377.590   2
  -7   4  -5 1048.33 344.145   1
  -7   4  -6 2459.68 454.007   1
  -7   4  -6 3048.10 543.390   2
  -7   4  -7 5974.30 787.364   2
  -7   4  -8 7269.77 864.506   2
  -7   4  -9 581.554 372.396   2
  -7   4 -10 3356.30 666.227   2
  -7   4 -11 6734.22 950.953   2
  -7   4 -13 1090.44 187.681   3
  -7   4 -14 2967.14 264.129   3
  -7   4 -15 743.656 179.531   3
  -7   4 -16 952.761 183.850   3
  -7   4 -17 879.765 177.258   3
  -7   4 -18 871.387 175.372   3
  -7   4 -19 625.817 139.452   3
  -7   4 -20 1804.26 183.039   3
  -7   4 -20 18.8405 275.667   6
  -7   4 -21 59.1617 87.1159   3
  -7   4 -22 145.694 83.0525   3
  -7   4 -23 346.332 76.6647   3
  -7  -5 -19 233.673 117.066   3
  -7  -5 -18 405.100 139.163   3
  -7  -5 -17 291.806 161.589   3
  -7  -5 -16 1112.65 198.992   3
  -7  -5 -15 663.511 190.375   3
  -7  -5 -15 132.893 403.771   2
  -7  -5 -14 720.264 517.186   2
  -7   5  14 493.547 542.811   1
  -7  -5 -14 1620.97 262.457   3
  -7  -5 -13 1314.24 541.626   2
  -7   5  13 831.133 568.121   1
  -7  -5 -13 1299.67 210.111   3
   7   5 -13 904.866 175.236   4
  -7  -5 -12 506.486 455.860   2
  -7   5  12 759.253 570.746   1
   7   5 -12 527.839 164.411   4
  -7   5  11 10248.8 1442.17   1
   7   5 -11 7735.48 384.697   4
  -7  -5 -11 9406.62 1188.10   2
  -7   5  10 11051.8 1411.80   1
   7   5 -10 9261.46 393.972   4
  -7  -5 -10 10456.9 1233.65   2
  -7  -5  -9 13042.0 1323.74   2
  -7   5   9 12267.4 1457.90   1
   7   5  -9 11345.4 438.831   4
  -7  -5  -8 2910.23 711.189   2
  -7   5   8 2453.56 692.411   1
  -7  -5  -7 4908.80 824.270   2
  -7   5   7 4762.39 898.842   1
  -7   5   6 1616.64 554.223   1
  -7  -5  -6 1628.75 522.719   2
  -7  -5  -5 3238.07 715.323   2
  -7   5   5 2513.42 650.356   1
  -7  -5  -4 431.597 404.125   2
  -7   5   4 529.322 394.176   1
  -7   5   3 5230.58 792.634   1
  -7   5   2 8706.71 988.050   1
  -7   5   1 1519.73 453.731   1
  -7   5   0 1557.95 633.390   1
  -7   5  -1 1521.79 443.202   1
  -7   5  -2 8719.29 881.455   1
  -7   5  -3 5348.15 703.137   1
  -7   5  -4 413.001 322.541   1
  -7   5  -5 2846.62 514.164   1
  -7   5  -6 1474.91 414.686   1
  -7   5 -12 643.100 158.185   3
  -7   5 -13 1318.83 191.333   3
  -7   5 -14 958.497 189.022   3
  -7   5 -15 721.110 186.328   3
  -7   5 -16 991.850 182.700   3
  -7   5 -17 245.428 144.027   3
  -7   5 -18 504.045 146.283   3
  -7   5 -19 242.391 120.875   3
  -7   5 -20 13.8035 265.338   6
  -7   5 -20 778.478 136.226   3
  -7   5 -21 851.263 126.199   3
  -7   5 -22 356.254 88.6935   3
  -7   5 -23 67.8604 58.6072   3
  -7   6  14 1693.55 737.229   1
  -7  -6 -14 2131.39 689.579   2
   7   6 -14 2368.17 229.039   4
  -7   6  13 792.972 554.701   1
  -7  -6 -13 1063.80 562.250   2
  -7  -6 -13 1017.81 198.602   3
   7   6 -13 918.198 178.855   4
   7   6 -12 713.876 174.105   4
  -7  -6 -12 1208.14 561.521   2
  -7   6  12 998.774 594.815   1
  -7  -6 -11 348.663 417.717   2
  -7   6  11 219.509 371.344   1
  -7  -6 -10 4011.97 823.961   2
  -7   6  10 4129.37 916.967   1
   7   6 -10 3529.68 277.363   4
   7   6  -9 816.132 167.576   4
  -7  -6  -9 1043.97 516.209   2
  -7   6   9 989.357 554.885   1
  -7   6   8 5255.66 973.897   1
  -7  -6  -8 5230.61 915.591   2
   7   6  -8 4736.02 282.827   4
  -7  -6  -7 3213.43 775.865   2
  -7   6   7 2652.53 725.347   1
  -7  -6  -6 2411.67 634.510   2
  -7   6   6 2122.62 623.646   1
  -7  -6  -5 5665.28 920.377   2
  -7   6   5 5086.31 874.696   1
  -7   6   4 11996.2 1205.52   1
  -7   6   3 11246.4 1125.30   1
  -7   6   2 3725.75 684.291   1
  -7   6   1 1639.28 481.469   1
  -7   6   0 5003.70 722.778   1
  -7   6  -1 2220.25 519.264   1
  -7   6  -2 3920.73 644.597   1
  -7   6  -3 12001.1 1034.96   1
  -7   6  -4 12789.5 1074.15   1
  -7   6  -5 5274.73 703.816   1
  -7   6  -6 1984.61 466.812   1
  -7   6 -12 1496.92 201.398   3
  -7   6 -13 1065.38 182.092   3
  -7   6 -14 2616.14 240.520   3
  -7   6 -15 3883.32 281.931   3
  -7   6 -16 1420.40 192.259   3
  -7   6 -17 638.952 146.578   3
  -7   6 -18 634.727 145.657   3
  -7   6 -19 181.254 106.010   3
  -7   6 -20 61.2777 252.041   6
  -7   6 -20 392.666 112.155   3
  -7   6 -21 28.2782 77.5638   3
  -7   6 -22 44.1480 64.3716   3
  -7   6 -23 218.036 57.2099   3
   7   7 -14 3282.19 257.104   4
  -7  -7 -14 2961.91 801.405   2
  -7   7  13 1278.54 682.566   1
  -7  -7 -13 1557.13 602.956   2
   7   7 -13 1842.41 225.195   4
   7   7 -12 81.0957 134.944   4
  -7   7  12 109.955 449.554   1
  -7  -7 -12-53.8631 361.111   2
  -7   7  11 2450.55 759.138   1
  -7  -7 -11 2617.73 731.963   2
   7   7 -11 2377.37 247.372   4
  -7   7  10 1756.95 650.743   1
   7   7 -10 1876.12 220.749   4
  -7  -7 -10 1631.30 593.173   2
  -7  -7  -9 2268.26 700.226   2
  -7   7   9 2077.61 652.149   1
   7   7  -9 2544.23 238.162   4
  -7   7   8 1833.82 654.090   1
  -7  -7  -8 2141.83 694.497   2
   7   7  -8 1750.99 201.443   4
  -7   7   7 1490.88 599.556   1
  -7  -7  -7 2018.29 639.786   2
  -7   7   6 2159.04 632.170   1
  -7  -7  -6 2421.57 702.758   2
  -7   7   5 7517.49 1055.98   1
  -7   7   4 725.591 460.102   1
  -7   7   3 1356.96 506.662   1
  -7   7   2 3053.67 653.845   1
  -7   7   1 1462.25 479.500   1
  -7   7   0 43.0402 307.985   1
  -7   7  -1 1785.97 515.399   1
  -7   7  -2 3282.27 618.504   1
  -7   7  -3 1350.36 459.526   1
  -7   7  -4 749.153 378.117   1
  -7   7  -5 7797.91 894.243   1
  -7   7  -6 2179.00 529.261   1
   7  -7  -8 9.62337 144.007   5
  -7   7 -11 2438.83 217.578   3
  -7   7 -12 2.80064 122.956   3
  -7   7 -13 1949.59 217.061   3
  -7   7 -14 3728.99 278.154   3
  -7   7 -15 2135.20 218.761   3
  -7   7 -16 789.814 159.443   3
  -7   7 -17 952.671 162.270   3
  -7   7 -18 899.577 150.034   3
  -7   7 -19 11.0492 310.597   6
  -7   7 -19 59.0997 98.3327   3
  -7   7 -20-53.2724 267.213   6
  -7   7 -20 15.1696 81.9299   3
  -7   7 -21 262.835 78.8091   3
  -7   7 -21 64.4900 209.420   6
  -7   7 -22 17.2977 58.7843   3
   7   8 -15 1792.74 205.134   4
   7   8 -14 4039.16 288.212   4
  -7  -8 -13 1983.58 694.028   2
  -7   8  13 1533.40 694.358   1
   7   8 -13 2463.88 241.604   4
  -7   8  12 5854.08 1202.22   1
   7   8 -12 7313.71 380.436   4
  -7  -8 -12 6922.54 1173.96   2
  -7  -8 -11 10624.7 1442.10   2
  -7   8  11 9483.18 1388.62   1
   7   8 -11 10304.5 436.099   4
  -7  -8 -10 4993.17 1013.82   2
  -7   8  10 3837.83 996.692   1
   7   8 -10 4554.72 315.470   4
   7   8  -9 67.3240 138.161   4
  -7  -8  -9 112.310 410.431   2
  -7   8   9-1.49765 374.064   1
  -7   8   8 974.394 550.542   1
  -7  -8  -8 910.967 540.502   2
  -7   8   7 739.689 509.184   1
  -7  -8  -7 663.872 515.749   2
  -7  -8  -6 2620.99 759.943   2
  -7   8   6 1821.79 611.967   1
  -7   8   5 881.557 472.567   1
  -7   8   4 4441.41 824.291   1
  -7   8   3 547.009 397.443   1
  -7   8   2 4632.29 803.362   1
  -7   8   1 9525.54 1097.34   1
  -7   8   0 3562.51 662.762   1
  -7   8  -1 9905.18 1051.58   1
  -7   8  -2 4930.51 776.249   1
  -7   8  -3 586.816 379.281   1
  -7   8  -4 4685.18 731.423   1
  -7   8  -5 1013.22 437.219   1
  -7   8  -6 1776.12 502.297   1
  -7   8  -7 647.891 372.681   1
   7  -8  -7-24.9665 161.551   5
   7  -8  -9-20.8451 152.350   5
  -7   8 -10 3752.43 251.781   3
  -7   8 -11 9297.90 385.594   3
  -7   8 -12 7005.58 342.639   3
  -7   8 -13 2500.82 224.733   3
  -7   8 -14 4298.43 278.402   3
  -7   8 -15 1775.73 196.629   3
  -7   8 -16 1846.17 191.939   3
  -7   8 -17 624.079 137.654   3
  -7   8 -18 424.946 113.652   3
  -7   8 -19 1548.85 150.776   3
  -7   8 -19 3.01312 270.640   6
  -7   8 -20 2183.16 155.056   3
  -7   8 -20 22.7093 242.654   6
  -7   8 -21 73.7083 62.5247   3
  -7   8 -21 130.544 229.021   6
  -7   8 -22 9.93392 47.2127   3
   7   9 -15 58.5916 120.387   4
   7   9 -14 1496.65 195.063   4
   7   9 -13 1468.12 202.933   4
  -7  -9 -12 1878.61 739.567   2
  -7   9  12 1161.19 565.665   1
   7   9 -12 1600.99 209.259   4
   7   9 -11 888.766 200.048   4
  -7  -9 -11 759.453 556.033   2
  -7   9  11 664.872 518.195   1
  -7  -9 -10 310.585 488.137   2
   7   9 -10 398.157 170.073   4
  -7   9  10 220.258 425.373   1
  -7  -9  -9 2966.52 860.307   2
  -7   9   9 2118.29 713.421   1
  -7   9   8 1710.93 819.123   1
  -7  -9  -8 2079.20 773.706   2
  -7  -9  -7 277.545 406.534   2
  -7   9   7 396.781 454.589   1
  -7   9   6 4763.68 908.008   1
  -7   9   5 1111.44 487.976   1
  -7   9   4 2051.60 629.347   1
  -7   9   3 735.952 438.907   1
  -7   9   2 5341.65 881.404   1
  -7   9   1 2734.75 658.195   1
  -7   9   0-95.2476 332.356   1
  -7   9  -1 2654.07 629.835   1
   7  -9  -2-27.3579 161.795   5
  -7   9  -2 5877.48 848.466   1
   7  -9  -3 34.9291 162.801   5
  -7   9  -3 680.665 386.446   1
   7  -9  -4-97.0443 175.677   5
  -7   9  -4 2393.90 593.100   1
   7  -9  -5-28.3319 170.331   5
  -7   9  -5 1290.18 466.092   1
   7  -9  -6 2186.33 357.514   5
  -7   9  -6 4695.62 726.106   1
  -7   9  -7 313.942 301.035   1
  -7   9  -9 1830.13 182.929   3
  -7   9 -10 226.727 114.185   3
  -7   9 -11 788.510 152.532   3
  -7   9 -12 1261.93 173.557   3
  -7   9 -13 1554.48 178.601   3
  -7   9 -14 1516.64 180.294   3
  -7   9 -15 66.7407 113.219   3
  -7   9 -16 1489.64 168.573   3
  -7   9 -17 4090.62 239.419   3
  -7   9 -18-10.6875 296.537   6
  -7   9 -18 456.644 106.930   3
  -7   9 -19 254.868 86.1302   3
  -7   9 -19 1.84077 262.847   6
  -7   9 -20 137.834 71.3109   3
  -7   9 -20-48.5278 233.152   6
  -7   9 -21 429.445 71.3895   3
  -7   9 -21-2.95328 171.372   6
   7  10 -16 2669.86 198.991   4
   7  10 -15 3259.31 238.917   4
   7  10 -14 1751.15 211.249   4
   7  10 -13 1281.03 211.696   4
   7  10 -12 202.798 143.583   4
  -7 -10 -11 1984.58 778.423   2
  -7  10  11 1214.52 664.667   1
   7  10 -11 1444.17 232.548   4
  -7 -10 -10 1314.67 668.639   2
  -7  10  10 1253.51 622.669   1
   7  10 -10 1642.21 225.320   4
  -7 -10  -9 558.938 540.921   2
  -7  10   9 380.326 445.815   1
  -7 -10  -8 6928.54 1265.00   2
  -7  10   8 6043.39 1122.21   1
  -7 -10  -7 5075.41 1060.99   2
  -7  10   7 4628.41 978.587   1
  -7  10   6 94.6136 395.441   1
  -7  10   5 2729.12 729.989   1
  -7  10   4 5882.14 986.462   1
  -7  10   3 4397.19 809.705   1
  -7  10   2 372.807 412.166   1
  -7  10   1 813.463 433.026   1
  -7  10   0 2307.66 589.984   1
  -7  10  -1 586.950 398.015   1
  -7  10  -2 294.968 361.731   1
  -7  10  -3 4853.41 801.606   1
  -7  10  -4 6153.31 915.343   1
  -7  10  -5 2524.21 602.447   1
  -7  10  -6 258.695 388.086   1
  -7  10  -7 3590.06 707.217   1
   7 -10 -11 21.0228 176.705   7
  -7  10 -11 1472.47 171.366   3
  -7  10 -12 322.463 133.577   3
  -7  10 -13 1500.91 170.240   3
  -7  10 -14 1836.54 180.797   3
  -7  10 -15 3325.55 218.037   3
  -7  10 -16 3376.85 209.469   3
  -7  10 -17 2432.81 175.202   3
  -7  10 -18-39.8196 284.693   6
  -7  10 -18 1646.06 139.059   3
  -7  10 -19 1070.41 105.594   3
  -7  10 -19-23.8067 242.220   6
  -7  10 -20 502.997 74.1495   3
  -7  10 -20 12.5008 204.704   6
  -7  10 -21 98.2777 157.829   6
   7  11 -16 36.1523 98.3393   4
   7  11 -15 260.090 127.138   4
   7  11 -14 518.600 159.747   4
   7  11 -13 98.8003 141.037   4
   7  11 -12 70.1680 142.735   4
   7  11 -11 221.911 158.280   4
  -7  11  10 1406.29 685.965   1
  -7 -11 -10 1701.81 739.955   2
   7  11 -10 1785.07 228.297   4
  -7  11   9 1425.38 636.630   1
  -7 -11  -9 1838.23 813.469   2
  -7  11   8 2301.57 753.153   1
  -7 -11  -8 2960.35 907.996   2
  -7  11   7 47.7151 371.379   1
  -7 -11  -7 37.4455 534.093   2
  -7  11   6 151.922 347.254   1
  -7  11   5 695.912 466.900   1
  -7  11   4 1330.09 551.699   1
  -7  11   3 5458.71 929.042   1
  -7  11   2 4534.02 875.483   1
  -7  11   1 613.042 391.065   1
  -7  11   0 1063.39 469.967   1
  -7  11  -1 737.046 454.548   1
  -7  11  -2 4610.13 852.412   1
   7  11   2 2938.06 230.687   4
  -7  11  -3 5562.25 884.068   1
  -7  11  -4 1182.50 449.235   1
  -7  11  -5 850.565 418.146   1
  -7  11  -6 199.126 342.809   1
  -7  11  -7-172.544 377.655   1
   7 -11 -10-24.1987 210.528   7
   7 -11 -11 32.3760 179.744   7
   7 -11 -12-102.242 174.271   7
  -7  11 -13 87.3553 103.109   3
  -7  11 -14 471.700 108.050   3
  -7  11 -15 276.342 99.5596   3
  -7  11 -16 65.5053 82.9612   3
  -7  11 -17 681.775 99.4978   3
  -7  11 -17-142.047 287.237   6
  -7  11 -18 598.143 86.3868   3
  -7  11 -18 551.829 338.912   6
  -7  11 -19 52.2242 51.4660   3
  -7  11 -20 165.274 191.770   6
   7  12 -16 1241.85 136.084   4
   7  12 -15 515.017 129.730   4
   7  12 -14 726.585 154.094   4
   7  12 -13 392.886 178.671   4
   7  12 -12 1260.11 194.367   4
   7  12 -11 1971.89 225.961   4
   7  12 -10 1452.88 219.961   4
  -7  12   9 445.719 469.708   1
  -7 -12  -9 758.946 625.021   2
  -7 -12  -8 4354.07 1077.98   2
  -7  12   8 3421.64 881.563   1
  -7  12   7 1870.97 696.797   1
  -7 -12  -7 1715.27 822.269   2
  -7  12   6-101.316 389.313   1
  -7  12   5 2568.23 750.529   1
  -7  12   4 1708.51 622.580   1
  -7  12   3 1061.88 523.743   1
  -7  12   2 1235.42 528.439   1
  -7  12   1 652.702 422.244   1
  -7  12   0 607.986 475.093   1
  -7  12  -1 710.527 427.672   1
   7  12   2 849.948 157.094   4
  -7  12  -2 1248.69 476.974   1
  -7  12  -3 1108.59 507.045   1
  -7  12  -4 1558.37 517.871   1
  -7  12  -5 2182.73 641.446   1
  -7  12  -6 58.8479 294.026   1
   7 -12  -9 95.8087 224.895   7
   7 -12 -10-53.5621 210.938   7
   7 -12 -11-44.2741 183.789   7
   7 -12 -12-29.0408 159.889   7
  -7  12 -15 913.679 459.331   6
  -7  12 -16-2.48154 281.672   6
  -7  12 -17 37.1323 272.220   6
  -7  12 -18 202.032 237.214   6
  -7  12 -19 318.176 213.316   6
   7  13 -16 154.473 80.9276   4
   7  13 -15 203.090 108.479   4
   7  13 -14 403.031 130.704   4
   7  13 -13 85.3082 120.800   4
   7  13 -12 90.3312 140.210   4
   7  13 -11 237.401 151.953   4
   7  13 -10 384.223 163.694   4
  -7  13   7 501.390 423.364   1
  -7 -13  -7 343.928 530.614   2
  -7  13   6 2106.01 710.529   1
  -7  13   5 3346.48 814.410   1
  -7  13   4 1495.40 600.030   1
  -7  13   3 1899.09 652.752   1
  -7  13   2 2074.25 649.520   1
  -7  13   1 2195.59 672.347   1
  -7  13   0 205.407 399.405   1
  -7  13  -1 2270.76 652.001   1
   7  13   1 1957.99 219.032   4
  -7  13  -2 1525.37 551.634   1
  -7  13  -3 1886.39 587.404   1
  -7  13  -4 1396.29 513.680   1
  -7  13  -5 2806.72 695.115   1
   7 -13  -8 0.18058 230.577   7
   7 -13  -9 380.578 314.501   7
   7 -13 -10 37.5044 195.883   7
   7 -13 -11-15.4804 186.023   7
   7 -13 -12-46.9282 160.228   7
  -7  13 -14 471.011 333.555   6
  -7  13 -15 648.844 380.795   6
  -7  13 -16 32.4289 260.600   6
  -7  13 -18 34.6923 200.326   6
  -7  13 -19-41.1914 166.748   6
   7  14 -15 211.199 97.3721   4
   7  14 -14 100.231 114.139   4
   7  14 -13 604.957 138.794   4
   7  14 -12 757.733 155.250   4
   7  14 -11 395.508 158.851   4
   7  14 -10 1044.35 183.693   4
   7  14  -9 285.543 153.036   4
  -7  14   4 3434.88 842.838   1
  -7  14   3 1806.41 636.711   1
  -7  14   2 5983.90 1045.94   1
  -7  14   1 14238.0 1564.03   1
  -7  14   0 12031.1 1398.39   1
  -7  14  -1 13695.6 1515.55   1
   7  14   1 15334.2 519.312   4
  -7  14  -2 5439.76 963.682   1
  -7  14  -3 1170.85 492.382   1
  -7  14  -4 2860.85 727.539   1
   7 -14  -6 1003.21 378.235   7
   7 -14  -7 28.7792 229.018   7
   7 -14  -8 68.5290 231.443   7
   7 -14  -9 14248.0 668.075   7
   7 -14 -10-63.0964 204.866   7
   7 -14 -11 21.2671 181.269   7
  -7  14 -11 130.267 323.427   6
   7 -14 -12-18.4490 159.273   7
  -7  14 -12 1055.06 389.241   6
  -7  14 -13 37.2175 283.755   6
  -7  14 -14 2723.39 396.454   6
  -7  14 -15 75.7680 257.213   6
  -7  14 -16 82.6694 228.314   6
  -7  14 -17-145.826 204.756   6
  -7  14 -18 154.943 175.846   6
  -7  14 -19 106.787 134.702   6
   7  15 -15 139.377 90.1500   4
   7  15 -14 924.018 127.950   4
   7  15 -13 273.577 116.634   4
   7  15 -12 584.139 145.387   4
   7  15 -11 737.405 153.924   4
   7  15 -10 371.090 140.915   4
   7  15  -9 331.601 151.533   4
   7  15  -8 63.7542 132.930   4
   7 -15   6-169.118 199.433   7
   7 -15   5 0.43362 193.938   7
   7 -15   4-28.4080 213.511   7
   7 -15   3 44.4694 219.940   7
   7  15   0 42.6602 131.465   4
   7  15   1 1143.66 186.963   4
   7 -15  -2-4.72908 231.349   7
   7 -15  -3 185.972 332.721   7
   7 -15  -4 437.181 289.477   7
   7 -15  -5-118.615 247.486   7
   7 -15  -6-23.8542 235.869   7
  -7  15  -7 53.2909 302.227   6
   7 -15  -7 477.241 265.646   7
   7 -15  -8 48.3260 222.485   7
  -7  15  -8 172.955 334.137   6
   7 -15  -9-24.2669 202.275   7
  -7  15  -9-24.9766 293.565   6
   7 -15 -10-13.6202 193.497   7
  -7  15 -10 146.161 304.337   6
   7 -15 -11-93.6562 172.062   7
  -7  15 -11 1.96387 277.825   6
   7 -15 -12-12.8655 130.493   7
  -7  15 -12-144.815 264.958   6
  -7  15 -13-21.4050 258.128   6
  -7  15 -15 12.3297 219.566   6
  -7  15 -16-56.5285 200.348   6
  -7  15 -18 102.092 134.574   6
   7  16 -15 1074.34 95.9084   4
   7  16 -14 772.645 110.417   4
   7  16 -13 799.650 123.700   4
   7  16 -12 341.830 117.483   4
   7  16 -11 1279.20 168.768   4
   7  16 -10 905.715 164.116   4
   7  16  -9 84.3883 122.295   4
   7  16  -8 1117.81 177.556   4
   7  16  -7 820.524 178.300   4
   7 -16   5-8.82425 184.856   7
   7 -16   4-51.8707 204.699   7
   7 -16   3-3.41137 204.012   7
   7 -16   2 302.491 233.864   7
   7  16  -2 1206.59 192.212   4
   7  16  -1 1667.24 201.996   4
   7 -16   1 7.97143 211.614   7
   7 -16   0-48.5541 236.915   7
   7  16   0 1157.43 177.003   4
   7 -16  -1 1120.50 320.299   7
   7  16   1 1387.34 181.959   4
   7 -16  -2 104.286 244.201   7
   7 -16  -3 19.8560 224.173   7
   7 -16  -4 349.685 259.946   7
   7 -16  -5 51.7518 232.732   7
   7 -16  -6 225.987 252.099   7
   7 -16  -7 365.348 260.005   7
  -7  16  -7-216.339 274.129   6
   7 -16  -8 2.91602 191.031   7
  -7  16  -8-25.5048 260.924   6
   7 -16  -9 37.0004 201.238   7
  -7  16  -9 110.603 272.668   6
   7 -16 -10 12.4909 156.178   7
  -7  16 -10 14.7515 257.453   6
   7 -16 -11 3.66452 139.811   7
   7 -16 -12 3.75031 116.095   7
  -7  16 -12-178.873 245.168   6
  -7  16 -13 778.959 297.192   6
  -7  16 -14-183.101 210.816   6
  -7  16 -15 733.449 243.434   6
  -7  16 -16-6.61898 157.476   6
  -7  16 -17 224.601 130.904   6
   7  17 -14 352.397 71.3629   4
   7  17 -13 154.372 77.8641   4
   7  17 -12 118.346 93.9129   4
   7  17 -11 1873.00 167.622   4
   7  17 -10 1889.94 181.082   4
   7  17  -9 2083.69 188.790   4
   7  17  -8 2376.12 216.294   4
   7  17  -7 1287.85 186.434   4
   7  17  -6 325.055 149.508   4
   7  17  -5 399.396 151.655   4
   7 -17   5-1.63666 169.922   7
   7  17  -4 717.520 164.795   4
   7 -17   4 1.57375 182.861   7
   7  17  -3 89.9715 130.877   4
   7 -17   3 45.2687 200.592   7
   7  17  -2 662.581 163.947   4
   7 -17   2 73.1450 204.422   7
   7  17  -1 543.167 156.566   4
   7 -17   1 134.532 229.741   7
   7  17   0 113.585 127.713   4
   7 -17   0 74.3422 223.932   7
   7 -17  -1-5.25755 229.477   7
   7 -17  -2-36.7773 217.326   7
   7 -17  -3-104.545 215.776   7
   7 -17  -4 313.496 237.611   7
   7 -17  -5 16.9512 197.293   7
   7 -17  -6 40.3471 196.529   7
   7 -17  -7-25.2339 199.633   7
   7 -17  -8-56.8451 192.504   7
   7 -17  -9 26.5257 162.523   7
  -7  17  -9-55.1948 215.055   6
   7 -17 -10 41.6926 154.377   7
  -7  17 -10 68.1570 219.910   6
   7 -17 -11-65.1616 123.800   7
  -7  17 -11 225.359 226.697   6
  -7  17 -12 34.3176 198.209   6
  -7  17 -14 117.778 168.806   6
  -7  17 -15 2.23666 141.376   6
   7  18 -13 106.051 57.9190   4
   7  18 -12 1040.80 106.874   4
   7  18 -11 1087.04 121.393   4
   7  18 -10 962.990 130.342   4
   7  18  -9 345.825 115.836   4
   7  18  -8 886.493 143.478   4
   7  18  -7 859.462 146.334   4
   7  18  -6 958.257 157.357   4
   7  18  -5 219.390 118.383   4
   7 -18   5-31.4097 155.215   7
   7  18  -4 576.528 136.930   4
   7 -18   4 107.879 175.884   7
   7  18  -3 204.165 125.525   4
   7 -18   3 25.8555 183.315   7
   7  18  -2 421.207 130.728   4
   7 -18   2 45.3707 187.058   7
   7  18  -1 573.101 135.746   4
   7 -18   1 1.08123 183.356   7
   7  18   0-18.3244 102.377   4
   7 -18   0 40.7890 202.252   7
   7 -18  -1 171.691 220.217   7
   7 -18  -2 60.5086 220.024   7
   7 -18  -3 55.9387 207.537   7
   7 -18  -4 1248.09 263.054   7
   7 -18  -5 45.8411 189.538   7
   7 -18  -6-33.1639 195.541   7
   7 -18  -7 27.6683 183.796   7
   7 -18  -8 23.8281 158.005   7
   7 -18  -9 55.9396 146.343   7
   7 -18 -10-6.41500 128.047   7
   7 -18 -11-59.2498 98.1651   7
  -7  18 -11-71.4425 155.637   6
  -7  18 -12-199.173 159.119   6
  -7  18 -13 12.6049 132.604   6
   7  19 -11 41.0093 59.4187   4
   7  19 -10 164.504 78.2777   4
   7  19  -9 749.209 116.015   4
   7  19  -8 285.252 100.036   4
   7  19  -7 1398.83 145.718   4
   7  19  -6 2232.50 175.800   4
   7  19  -5 1596.38 162.329   4
   7  19  -4 330.727 113.877   4
   7 -19   4 81.8944 141.018   7
   7  19  -3 198.292 105.363   4
   7 -19   3-6.35349 150.218   7
   7  19  -2 99.5508 99.1692   4
   7 -19   2-7.20643 162.555   7
   7  19  -1 129.399 88.5242   4
   7 -19   1-15.5766 171.362   7
   7 -19   0 4.35207 163.993   7
   7 -19  -1-84.6864 182.332   7
   7 -19  -2 45.7300 178.364   7
   7 -19  -3 25.5710 178.925   7
   7 -19  -4 1221.83 254.667   7
   7 -19  -5 40.9880 166.974   7
   7 -19  -6 4.50494 153.340   7
   7 -19  -7 860.951 197.295   7
   7 -19  -8-20.9176 138.166   7
   7 -19  -9-7.28243 107.223   7
   7 -19 -10 641.886 124.034   7
   7  20  -9-3.84300 55.5988   4
   7  20  -8 837.037 94.7944   4
   7  20  -7 278.973 84.0874   4
   7  20  -6 49.0453 80.5045   4
   7  20  -5 642.910 108.231   4
   7  20  -4 690.541 107.758   4
   7  20  -3 234.309 84.5776   4
   7 -20   3-5.34999 114.500   7
   7 -20   2 59.7010 135.357   7
   7  20  -2 122.388 77.1484   4
   7 -20   1-98.4257 149.215   7
   7 -20   0 31.8709 141.280   7
   7 -20  -1 140.942 162.950   7
   7 -20  -2 56.5150 145.621   7
   7 -20  -3-134.168 157.365   7
   7 -20  -4-5.73807 149.993   7
   7 -20  -5 29.7066 139.839   7
   7 -20  -6-51.1870 129.693   7
   7 -20  -7-73.7284 111.794   7
   7 -20  -8-52.7943 100.990   7
   7 -21   1 43.7889 104.994   7
   7 -21   0 68.3976 114.971   7
   7 -21  -1 124.069 126.398   7
   7 -21  -2-19.3603 117.925   7
   7 -21  -3-53.2490 109.685   7
   7 -21  -4-7.21948 103.440   7
   7 -21  -5 49.6682 104.169   7
  -8   0   0 26834.2 1168.67   2
  -8   0   1 74813.2 1836.88   2
  -8   0  -1 84420.3 2161.82   2
  -8   0  -2 34064.4 1683.47   1
  -8   0  -2 34970.3 1475.29   2
  -8   0  -3 234.215 258.166   1
  -8   0  -3 472.786 301.069   2
  -8   0  -4 1688.84 428.085   2
  -8   0  -5 122.162 280.102   2
  -8   0  -6 207.276 299.004   2
  -8   0  -7 368.384 305.650   2
  -8   0  -8 223.076 309.635   2
  -8   0  -9 1213.54 505.494   2
  -8   0 -10 1180.60 478.881   2
   8   0 -10 798.434 163.608   5
   8   0 -10 832.830 158.382   4
   8   0 -11 4581.93 289.976   5
  -8   0 -11 6923.59 981.296   2
  -8   0 -12 463.030 382.968   2
  -8   0 -13-137.202 327.526   2
  -8   0 -14 24.1050 326.298   2
  -8   0 -14 95.7500 160.939   3
  -8   0 -15 870.646 514.442   2
  -8   0  15 768.254 665.442   1
  -8   0 -15 1215.65 211.789   3
  -8   0 -16 265.280 162.601   3
  -8   0 -17 316.253 157.217   3
  -8   0 -18 2451.13 238.194   3
  -8   0 -19 70.0497 124.833   3
  -8   0 -20 3099.47 233.243   3
  -8   0 -21 58.1523 92.5138   3
  -8   0 -22 347.794 99.3007   3
  -8  -1 -22 71.5557 70.6508   3
  -8  -1 -21 466.274 111.544   3
  -8  -1 -20 865.706 145.855   3
  -8  -1 -19 1498.83 185.406   3
  -8  -1 -18 565.904 166.938   3
  -8  -1 -17 1925.45 232.157   3
  -8  -1 -16 996.278 217.024   3
  -8   1  15 402.753 528.705   1
  -8  -1 -15 214.557 380.633   2
  -8  -1 -15 237.069 164.481   3
  -8   1  14 1223.28 750.169   1
  -8  -1 -14 1206.56 543.786   2
  -8  -1 -14 1233.27 229.092   3
  -8  -1 -13 1170.60 499.419   2
  -8   1  13 1274.29 717.917   1
  -8  -1 -12 3148.94 723.504   2
  -8  -1 -11 939.582 462.354   2
   8   1 -11 663.132 159.094   5
   8   1 -11 590.099 158.158   4
  -8  -1 -10 1463.05 511.516   2
   8   1 -10 1227.30 185.812   5
   8   1 -10 1284.51 186.828   4
  -8  -1  -9 22.8957 286.793   2
  -8  -1  -8 3654.91 694.568   2
  -8  -1  -7-16.7780 291.616   2
  -8  -1  -6 1424.70 421.984   2
  -8  -1  -5 1878.98 458.561   2
  -8  -1  -4 3159.39 537.782   2
  -8  -1  -3 3263.64 555.791   1
  -8  -1  -3 3928.71 569.768   2
  -8  -1  -2 22778.6 1221.89   2
  -8  -1  -1 15354.1 989.308   2
  -8   1   0 1184.03 334.172   2
  -8  -1   0 1224.26 346.801   2
  -8   1   0 951.082 458.587   1
  -8   1  -1 14115.9 1179.22   1
  -8   1  -1 15262.3 943.947   2
  -8  -1   1 13822.0 854.563   2
  -8   1  -2 22473.8 1288.94   1
  -8   1  -2 23810.1 1228.70   2
  -8   1  -3 3421.02 554.267   1
  -8   1  -3 4555.74 588.444   2
  -8   1  -4 2323.43 432.848   1
  -8   1  -4 3287.04 542.420   2
  -8   1  -5 1797.93 437.467   2
  -8   1  -6 1717.44 463.699   2
  -8   1  -7-3.22372 279.951   2
  -8   1  -8 3641.09 676.428   2
  -8   1  -9 272.635 354.761   2
  -8   1 -10 1358.41 463.085   2
   8  -1 -10 1004.14 171.488   5
  -8   1 -11 1059.26 474.292   2
   8  -1 -11 612.875 148.954   5
  -8   1 -12 3301.64 730.256   2
  -8   1 -13 1346.59 529.305   2
  -8   1 -14 863.496 452.180   2
  -8   1 -14 1294.71 216.296   3
  -8   1 -15 435.294 180.592   3
  -8   1 -16 721.398 186.910   3
  -8   1 -17 1828.00 223.352   3
  -8   1 -18 820.341 172.849   3
  -8   1 -19 1460.23 187.379   3
  -8   1 -20 792.037 145.065   3
  -8   1 -21 537.600 116.546   3
  -8   1 -22 48.6709 72.2382   3
  -8   1 -23 104.034 57.9140   3
  -8  -2 -22 121.244 67.0567   3
  -8  -2 -21 194.194 90.8888   3
  -8  -2 -20 1432.77 164.989   3
  -8  -2 -19 588.359 143.065   3
  -8  -2 -18 611.703 167.646   3
  -8  -2 -17 2722.72 318.912   3
  -8  -2 -16 3356.13 291.041   3
  -8  -2 -15 1795.12 247.635   3
  -8  -2 -14 1208.70 518.095   2
  -8  -2 -14 1648.34 247.607   3
  -8   2  14 1070.71 677.018   1
  -8  -2 -13 1913.18 616.966   2
  -8   2  13 2030.49 801.008   1
  -8   2  12 3753.67 1023.18   1
   8   2 -12 2545.47 231.265   5
   8   2 -12 2405.57 240.492   4
  -8  -2 -12 3701.56 795.550   2
  -8   2  11 6081.18 1267.48   1
   8   2 -11 4139.27 285.822   4
  -8  -2 -11 5287.70 912.723   2
  -8   2  10 3918.06 945.081   1
   8   2 -10 3245.23 254.703   4
  -8  -2 -10 3388.29 729.436   2
  -8  -2  -9 1731.49 536.989   2
   8   2  -9 1578.57 192.259   4
  -8  -2  -8 932.082 400.765   2
  -8  -2  -7 43.8337 267.875   2
  -8  -2  -6 1071.59 393.958   2
  -8  -2  -5 5808.38 751.444   2
  -8  -2  -4 18812.7 1262.51   2
  -8  -2  -3 14713.4 1077.66   2
  -8   2   3 13251.5 1276.46   1
  -8  -2  -2 20188.6 1229.18   2
  -8   2   2 19604.7 1465.18   1
  -8  -2  -1 2789.73 500.925   2
  -8   2   1 2683.02 608.011   1
  -8  -2   0 3401.03 524.469   2
  -8   2   0 3014.81 594.562   1
  -8   2   0 3355.52 438.647   2
  -8  -2   1 2430.11 435.953   2
  -8   2  -1 2619.75 561.912   1
  -8   2  -1 2596.50 424.541   2
  -8  -2   2 18390.9 1006.92   2
  -8   2  -2 18743.4 1216.51   1
  -8   2  -2 20099.9 1130.31   2
  -8   2  -3 14043.5 1003.98   1
  -8   2  -3 15668.8 1034.67   2
  -8   2  -4 16081.8 1042.97   1
  -8   2  -4 20373.7 1264.03   2
  -8   2  -5 6621.59 774.201   2
  -8   2  -6 1123.69 383.665   2
  -8   2  -7 38.9292 270.410   2
  -8   2  -8 1166.59 438.829   2
  -8   2  -9 1721.44 497.660   2
   8  -2  -9 1574.38 213.253   5
   8  -2 -10 4910.98 337.618   5
  -8   2 -10 3626.26 698.280   2
  -8   2 -11 5217.00 847.964   2
  -8   2 -12 3420.16 733.670   2
  -8   2 -13 1715.99 568.444   2
  -8   2 -14 1594.87 563.745   2
  -8   2 -14 1764.95 232.945   3
  -8   2 -15 1932.12 236.463   3
  -8   2 -16 3150.14 275.959   3
  -8   2 -17 4276.70 301.182   3
  -8   2 -18 631.088 155.532   3
  -8   2 -19 527.222 141.628   3
  -8   2 -20 1367.29 164.770   3
  -8   2 -21 68.5896 86.5789   3
  -8   2 -22 209.564 86.0646   3
  -8   2 -23 121.951 58.1268   3
  -8  -3 -21 626.242 101.444   3
  -8  -3 -20 1836.10 172.548   3
  -8  -3 -19 241.282 124.734   3
  -8  -3 -18 785.615 197.215   3
  -8  -3 -17 397.753 201.955   3
  -8  -3 -16 754.927 188.544   3
  -8  -3 -15 491.505 192.851   3
  -8   3  14 2943.15 938.236   1
  -8  -3 -14 4520.54 345.453   3
  -8  -3 -14 3620.13 852.075   2
  -8  -3 -13 792.635 488.245   2
  -8   3  13 942.771 612.286   1
  -8  -3 -12 457.106 401.498   2
  -8   3  12 588.502 585.477   1
   8   3 -12 345.978 151.028   4
   8   3 -11 7373.92 375.034   4
  -8  -3 -11 8706.02 1134.53   2
  -8   3  10 6917.65 1256.47   1
   8   3 -10 5417.62 309.950   4
  -8  -3 -10 6393.68 936.005   2
  -8   3   9 11465.0 1525.47   1
   8   3  -9 9548.44 392.036   4
  -8  -3  -9 10347.5 1130.74   2
  -8   3   8 161.918 442.475   1
  -8  -3  -8 102.490 308.083   2
   8   3  -8 145.678 121.614   4
  -8   3   7 427.601 457.250   1
  -8  -3  -7 766.040 411.284   2
  -8   3   6 15.1852 411.295   1
  -8  -3  -6 348.872 340.667   2
  -8  -3  -5 1605.41 482.624   2
  -8   3   5 1176.25 532.957   1
  -8  -3  -4 3443.73 620.263   2
  -8   3   4 2821.81 714.131   1
  -8   3   3 274.852 366.795   1
  -8  -3  -3 244.413 297.316   2
  -8  -3  -2 6501.47 772.415   2
  -8   3   2 6453.00 884.342   1
  -8  -3  -1 11508.0 986.047   2
  -8   3   1 10647.9 1066.70   1
  -8  -3   0 904.515 387.573   2
  -8   3   0 627.322 350.944   1
  -8  -3   1 10717.9 925.518   2
  -8   3  -1 10002.4 969.797   1
  -8   3  -1 11151.7 833.485   2
  -8  -3   2 6101.63 694.268   2
  -8   3  -2 5672.05 747.330   1
  -8   3  -2 6914.13 691.404   2
  -8   3  -3 420.065 299.450   2
  -8   3  -3 389.791 293.319   1
  -8   3  -4 2889.75 514.825   1
  -8   3  -4 3420.77 546.105   2
  -8   3  -5 1614.58 448.309   2
  -8   3  -6 215.592 303.979   2
  -8   3  -7 830.707 388.612   2
  -8   3  -8 90.4103 282.117   2
   8  -3  -9 8441.77 370.122   5
  -8   3  -9 10737.8 1094.01   2
   8  -3 -10 4559.10 357.167   5
  -8   3 -10 6712.90 926.389   2
  -8   3 -11 9379.61 1116.45   2
  -8   3 -12 487.769 420.179   2
  -8   3 -13 739.329 451.246   2
  -8   3 -14 4338.00 308.986   3
  -8   3 -15 554.047 168.144   3
  -8   3 -16 603.678 176.566   3
  -8   3 -17 962.010 174.458   3
  -8   3 -18 921.701 162.577   3
  -8   3 -19 244.321 121.605   3
  -8   3 -20 1779.64 172.933   3
  -8   3 -21 695.542 115.090   3
  -8   3 -22 498.018 89.5544   3
  -8   3 -23 197.319 60.3670   3
  -8  -4 -20 1972.81 166.858   3
  -8  -4 -19 2019.39 187.976   3
  -8  -4 -18 2036.95 212.786   3
  -8  -4 -17 2457.47 252.300   3
  -8  -4 -16 3259.58 282.093   3
  -8  -4 -15 916.885 225.111   3
  -8  -4 -14 5390.00 361.827   3
  -8   4  14 3324.03 974.674   1
  -8  -4 -14 3727.14 849.020   2
  -8  -4 -13 1555.31 606.984   2
   8   4 -13 2498.27 263.400   4
  -8   4  13 1475.43 719.481   1
  -8   4  12 1618.91 703.538   1
  -8  -4 -12 2307.96 669.632   2
   8   4 -12 1753.20 214.941   4
  -8   4  11 5301.12 1099.05   1
   8   4 -11 3938.83 292.092   4
  -8  -4 -11 4641.30 853.976   2
  -8   4  10 6874.27 1223.92   1
   8   4 -10 5955.50 347.926   4
  -8  -4 -10 6381.19 958.145   2
  -8  -4  -9 598.617 386.683   2
  -8   4   9 636.790 460.232   1
   8   4  -9 299.202 143.524   4
  -8  -4  -8 4122.79 752.613   2
  -8   4   8 4353.23 952.580   1
   8   4  -8 4096.27 284.687   4
  -8  -4  -7 1576.11 529.622   2
  -8   4   7 1522.15 613.708   1
  -8  -4  -6 413.458 404.875   2
  -8   4   6 223.990 367.840   1
  -8  -4  -5 1130.17 463.959   2
  -8   4   5 897.389 460.779   1
  -8  -4  -4 4316.03 707.673   2
  -8   4   4 3574.82 734.329   1
  -8  -4  -3 2693.44 628.463   2
  -8   4   3 2302.80 628.091   1
  -8  -4  -2 8237.45 908.619   2
  -8   4   2 7461.77 933.538   1
  -8  -4  -1 7399.90 851.752   2
  -8   4   1 6440.58 843.466   1
  -8   4   0 1281.12 433.058   1
  -8   4  -1 6312.71 783.668   1
  -8   4  -2 6975.59 808.454   1
  -8   4  -3 2314.93 518.600   1
  -8   4  -4 4784.42 642.130   2
  -8   4  -4 4074.67 625.929   1
  -8   4  -5 1060.70 392.912   2
  -8   4  -5 978.063 383.093   1
  -8   4  -6 365.879 283.016   2
  -8   4  -7 1867.99 486.867   2
   8  -4  -8 4552.11 308.381   5
  -8   4  -8 4027.11 672.542   2
  -8   4  -9 552.848 387.942   2
   8  -4  -9 303.081 139.484   5
   8  -4 -10 5143.00 338.565   5
  -8   4 -10 6793.95 919.925   2
  -8   4 -13 1937.03 226.234   3
  -8   4 -14 4796.33 321.159   3
  -8   4 -15 623.945 162.480   3
  -8   4 -16 3080.54 254.993   3
  -8   4 -17 2313.11 229.780   3
  -8   4 -18 1963.86 207.890   3
  -8   4 -19 2090.86 199.216   3
  -8   4 -20 2013.08 177.440   3
  -8   4 -21 168.909 88.2940   3
  -8   4 -22 102.482 72.4305   3
  -8  -5 -18 1130.73 165.266   3
  -8  -5 -17 5204.53 308.925   3
  -8  -5 -16 1441.81 212.679   3
  -8  -5 -15 1540.26 233.711   3
  -8  -5 -14 1312.23 650.122   2
  -8   5  14 896.075 577.879   1
  -8  -5 -14 1919.40 240.851   3
   8   5 -14 1396.07 192.245   4
  -8  -5 -13 603.922 440.794   2
  -8   5  13 239.288 464.178   1
   8   5 -13 478.629 155.011   4
  -8  -5 -12 1534.89 601.331   2
  -8   5  12 1745.13 765.149   1
   8   5 -12 1716.87 207.557   4
  -8  -5 -11 458.285 443.729   2
   8   5 -11 1407.36 219.778   4
  -8   5  11 223.038 426.479   1
  -8  -5 -10-2.69867 320.086   2
   8   5 -10 91.6710 143.886   4
  -8   5   9-54.1155 423.502   1
  -8  -5  -9 231.059 380.069   2
   8   5  -9 324.682 192.382   4
  -8   5   8 978.605 530.438   1
  -8  -5  -8 1117.52 512.304   2
   8   5  -8 1078.88 181.302   4
  -8   5   7 1036.14 565.703   1
  -8  -5  -7 1345.52 527.364   2
   8   5  -7 1024.36 175.965   4
   8   5  -6 659.537 144.073   4
  -8   5   6 569.446 454.339   1
  -8  -5  -6 998.585 463.976   2
  -8  -5  -5 4518.35 788.113   2
  -8   5   5 4126.67 838.798   1
  -8  -5  -4 5125.92 840.740   2
  -8   5   4 4648.60 849.859   1
  -8  -5  -3 1629.03 524.088   2
  -8   5   3 1504.74 538.315   1
  -8  -5  -2 12803.6 1176.34   2
  -8   5   2 10993.2 1152.55   1
  -8   5   1 9027.65 993.364   1
  -8   5   0 1251.23 436.458   1
  -8   5  -1 9454.19 979.156   1
  -8   5  -2 11519.9 1065.72   1
  -8   5  -3 1536.27 469.420   1
  -8   5  -4 4422.08 653.251   1
  -8   5  -5 3721.04 583.064   1
   8  -5  -7 1019.24 194.369   5
   8  -5  -8 874.160 193.672   5
   8  -5 -10 18.1976 145.148   5
  -8   5 -13 632.407 169.596   3
  -8   5 -14 1691.11 214.648   3
  -8   5 -15 1204.05 201.664   3
  -8   5 -16 1267.56 187.412   3
  -8   5 -17 4758.65 298.308   3
  -8   5 -18 998.887 157.452   3
  -8   5 -19 1031.16 147.174   3
  -8   5 -20 45.2205 285.253   6
  -8   5 -20 199.870 94.2873   3
  -8   5 -21 274.472 86.3286   3
  -8   5 -22 69.3157 62.6585   3
  -8  -6 -15 15.6503 156.449   3
  -8  -6 -14 3979.66 307.645   3
   8   6 -14 3287.68 262.473   4
  -8   6  13 1694.40 742.031   1
  -8  -6 -13 2287.32 694.414   2
  -8  -6 -13 2852.19 275.047   3
   8   6 -13 2612.64 244.011   4
  -8   6  12 2761.82 889.373   1
   8   6 -12 3304.47 272.756   4
  -8  -6 -12 2977.55 770.886   2
  -8   6  11 4004.88 975.769   1
   8   6 -11 4065.46 287.294   4
  -8  -6 -11 3888.40 846.285   2
  -8   6  10 3523.17 906.484   1
   8   6 -10 3864.07 284.224   4
  -8  -6 -10 3733.60 860.368   2
  -8  -6  -9 1202.47 602.486   2
  -8   6   9 1141.31 614.984   1
   8   6  -9 1135.91 185.068   4
  -8  -6  -8 9269.74 1227.58   2
  -8   6   8 8719.61 1303.88   1
   8   6  -8 9844.10 421.267   4
  -8  -6  -7 1990.19 621.313   2
  -8   6   7 2082.83 653.625   1
   8   6  -7 1981.63 205.312   4
  -8  -6  -6 1921.42 602.256   2
  -8   6   6 1238.52 575.286   1
   8   6  -6 1737.03 212.262   4
  -8   6   5 1714.73 581.000   1
  -8  -6  -5 1873.68 601.387   2
   8   6  -5 1920.60 222.030   4
  -8   6   4 280.487 371.051   1
  -8  -6  -4 321.415 411.524   2
  -8   6   3 1487.77 532.086   1
  -8  -6  -3 1603.49 534.533   2
  -8   6   2 1723.94 535.198   1
  -8   6   1 10165.3 1096.87   1
  -8   6   0 1206.96 439.634   1
  -8   6  -1 11117.9 1078.59   1
  -8   6  -2 1931.89 535.087   1
  -8   6  -3 1422.95 459.079   1
  -8   6  -4 528.193 349.861   1
  -8   6  -5 1774.29 489.375   1
   8  -6  -7 46.1225 151.962   5
  -8   6 -12 3424.28 260.092   3
  -8   6 -13 2612.16 240.653   3
  -8   6 -14 3751.18 280.387   3
  -8   6 -15 79.2098 121.543   3
  -8   6 -16 1646.47 198.906   3
  -8   6 -17 783.833 151.380   3
  -8   6 -18 571.525 133.692   3
  -8   6 -19 434.542 113.527   3
  -8   6 -20 865.795 120.564   3
  -8   6 -20 10.8345 315.429   6
  -8   6 -21 133.234 74.4360   3
  -8   6 -22 160.109 62.3999   3
   8   7 -15 69.7942 119.945   4
   8   7 -14 2395.19 243.184   4
   8   7 -13 1493.71 202.858   4
  -8   7  12 920.127 624.008   1
  -8  -7 -12 1181.16 531.772   2
   8   7 -12 1391.75 206.097   4
  -8   7  11 1412.61 659.154   1
  -8  -7 -11 2005.45 681.368   2
   8   7 -11 1812.89 232.405   4
  -8   7  10 2373.97 808.320   1
  -8  -7 -10 2628.67 724.257   2
   8   7 -10 2792.61 255.131   4
  -8  -7  -9 4424.82 916.323   2
  -8   7   9 4124.91 941.716   1
   8   7  -9 4442.24 304.851   4
  -8  -7  -8 4014.83 867.419   2
  -8   7   8 3573.75 896.918   1
   8   7  -8 4094.09 287.766   4
  -8  -7  -7 5977.06 990.325   2
  -8   7   7 4953.72 973.998   1
   8   7  -7 5562.78 325.436   4
  -8   7   6 2858.84 754.115   1
  -8  -7  -6 3102.75 749.498   2
   8   7  -6 2851.37 241.620   4
  -8   7   5 1462.21 567.419   1
  -8  -7  -5 1492.61 614.445   2
   8   7  -5 1320.14 176.256   4
   8   7  -4 464.686 141.326   4
  -8   7   4 490.928 396.199   1
  -8  -7  -4 355.317 410.885   2
   8   7  -3 290.775 161.500   4
  -8   7   3 297.325 372.724   1
  -8   7   2 4626.48 823.648   1
  -8   7   1 2061.15 578.043   1
  -8   7   0 499.389 408.794   1
  -8   7  -1 2329.68 592.139   1
  -8   7  -2 8027.92 1086.06   1
  -8   7  -3 119.654 315.083   1
  -8   7  -4 445.816 339.784   1
  -8   7  -5 899.126 387.502   1
   8  -7  -7 2.76364 156.072   5
   8  -7  -8-26.4030 172.756   5
  -8   7 -11 1689.99 203.572   3
  -8   7 -12 1570.47 194.579   3
  -8   7 -13 1568.95 204.083   3
  -8   7 -14 2787.47 236.002   3
  -8   7 -15 742.254 193.785   3
  -8   7 -16 267.041 130.179   3
  -8   7 -17 743.163 141.167   3
  -8   7 -18 941.804 138.356   3
  -8   7 -19 153.066 89.1372   3
  -8   7 -20 93.4504 272.996   6
  -8   7 -20 460.313 94.8349   3
  -8   7 -21 142.085 64.3035   3
   8   8 -15 344.703 136.032   4
   8   8 -14 543.930 173.687   4
   8   8 -13 247.426 159.614   4
   8   8 -12 122.976 164.073   4
  -8  -8 -12-45.3541 388.117   2
  -8   8  12 68.5209 424.992   1
  -8  -8 -11 844.911 586.063   2
  -8   8  11 847.836 622.428   1
   8   8 -10 398.496 161.879   4
  -8  -8 -10 885.085 559.554   2
  -8   8  10 689.947 550.298   1
   8   8  -9 888.658 186.387   4
  -8  -8  -9 1079.22 611.593   2
  -8   8   9 794.297 518.978   1
  -8  -8  -8 3929.80 921.592   2
  -8   8   8 3320.04 901.961   1
   8   8  -8 4076.66 293.295   4
  -8  -8  -7 2776.87 780.681   2
   8   8  -7 2300.21 240.767   4
  -8   8   7 2159.64 707.657   1
   8   8  -6 738.851 179.871   4
  -8  -8  -6 891.546 522.328   2
  -8   8   6 705.904 504.136   1
  -8   8   5 9827.34 1261.99   1
  -8  -8  -5 11734.3 1423.80   2
   8   8  -5 9394.44 416.082   4
  -8   8   4 16493.2 1541.00   1
   8   8  -4 15903.4 504.537   4
  -8   8   3 7907.33 1074.78   1
   8   8  -3 6940.48 355.796   4
  -8   8   2 4275.21 807.629   1
   8   8  -2 4179.99 273.164   4
   8   8  -1 471.902 154.134   4
   8  -8   1 71.9313 214.896   5
  -8   8   1 557.555 348.551   1
   8   8   0 234.395 133.538   4
  -8   8   0 166.215 301.148   1
   8  -8   0 137.286 200.889   5
  -8   8  -1 560.330 370.458   1
  -8   8  -2 4339.35 734.627   1
  -8   8  -3 8354.64 975.975   1
  -8   8  -4 16995.7 1380.02   1
  -8   8  -5 9625.76 1047.33   1
   8  -8  -8-25.7064 172.728   5
   8  -8  -9 17.2693 168.908   5
  -8   8 -10 481.012 140.787   3
  -8   8 -11 677.841 146.965   3
  -8   8 -12 82.0594 126.710   3
  -8   8 -13 238.017 131.658   3
  -8   8 -14 612.135 149.210   3
  -8   8 -15 329.241 126.126   3
  -8   8 -16 204.643 111.168   3
  -8   8 -17 1817.72 170.524   3
  -8   8 -18 477.929 109.985   3
  -8   8 -19-38.1422 256.126   6
  -8   8 -19 137.186 83.1771   3
  -8   8 -20 763.764 96.2260   3
  -8   8 -20-13.1935 225.613   6
  -8   8 -21-24.7440 52.6003   3
  -8   8 -21 58.9645 162.303   6
   8   9 -15 393.673 130.684   4
   8   9 -14 226.695 149.916   4
   8   9 -13 41.5204 130.970   4
   8   9 -12 111.424 150.928   4
  -8  -9 -11 945.433 560.763   2
  -8   9  11 886.112 622.397   1
   8   9 -11 1551.53 213.747   4
  -8  -9 -10 2864.84 825.502   2
  -8   9  10 2204.51 796.031   1
   8   9 -10 2818.30 264.840   4
  -8  -9  -9 1523.87 646.679   2
  -8   9   9 1553.33 618.146   1
   8   9  -9 1818.00 226.626   4
  -8  -9  -8 2178.30 771.511   2
  -8   9   8 1456.98 636.424   1
   8   9  -8 1963.92 225.337   4
   8   9  -7 409.657 158.972   4
  -8  -9  -7 115.902 449.085   2
  -8   9   7 370.459 450.839   1
   8   9  -6 875.843 192.133   4
  -8  -9  -6 658.910 567.396   2
  -8   9   6 908.967 524.266   1
   8   9  -5 662.942 169.629   4
  -8  -9  -5 1093.28 637.722   2
  -8   9   5 850.686 509.433   1
  -8   9   4 1480.26 566.059   1
   8   9  -4 1760.33 218.868   4
   8   9  -3 4617.26 297.224   4
  -8   9   3 4823.26 889.160   1
   8   9  -2 10424.1 428.221   4
  -8   9   2 11151.9 1253.79   1
   8   9  -1 11901.1 436.328   4
  -8   9   1 12600.2 1327.46   1
   8   9   0 272.312 134.160   4
  -8   9   0 345.345 368.397   1
   8   9   1 9176.51 391.181   4
  -8   9  -1 12629.8 1287.22   1
   8  -9  -2 44.0075 174.261   5
  -8   9  -2 10468.2 1149.69   1
   8  -9  -3-61.0401 175.512   5
  -8   9  -3 4700.24 784.955   1
   8  -9  -4-110.675 175.831   5
  -8   9  -4 1590.87 506.820   1
   8  -9  -5-36.2254 178.395   5
  -8   9  -5 778.995 387.963   1
   8  -9  -6-94.9571 182.195   5
  -8   9  -6 667.099 381.986   1
   8  -9  -7-72.1361 176.332   5
  -8   9  -9 1621.50 182.126   3
  -8   9 -10 2428.56 210.568   3
  -8   9 -11 1158.08 171.829   3
  -8   9 -12 254.949 134.411   3
  -8   9 -13-4.18399 117.027   3
  -8   9 -14 193.186 113.802   3
  -8   9 -15 416.426 122.933   3
  -8   9 -16 661.162 125.915   3
  -8   9 -17 483.006 106.828   3
  -8   9 -18 688.204 110.483   3
  -8   9 -19 68.8297 68.3781   3
  -8   9 -19 36.9721 238.638   6
  -8   9 -20 774.426 86.3615   3
  -8   9 -20 30.1813 199.693   6
  -8   9 -21 106.118 149.503   6
   8  10 -16 874.918 132.125   4
   8  10 -15 796.705 145.595   4
   8  10 -14 895.192 181.237   4
   8  10 -13 864.460 198.716   4
   8  10 -12 65.1882 144.308   4
   8  10 -11 137.616 157.843   4
   8  10 -10 327.047 166.162   4
  -8 -10 -10 687.719 565.620   2
  -8  10  10 463.773 493.565   1
   8  10  -9 175.870 164.617   4
  -8 -10  -9 365.536 461.858   2
  -8  10   9 318.323 396.957   1
  -8 -10  -8 1086.04 625.730   2
  -8  10   8 870.675 583.001   1
   8  10  -8 1101.94 205.082   4
  -8  10   7 1737.17 681.106   1
  -8 -10  -7 2509.47 856.820   2
   8  10  -7 2074.85 243.506   4
   8  10  -6 431.490 159.474   4
  -8  10   6 169.589 365.092   1
  -8 -10  -6 416.150 532.659   2
   8  10  -5 885.867 184.722   4
  -8  10   5 669.033 496.596   1
   8  10  -4 538.295 171.308   4
  -8  10   4 748.390 488.763   1
   8  10  -3 152.043 146.263   4
  -8  10   3 93.9278 383.716   1
  -8  10   2 2271.28 659.505   1
   8  10  -2 2211.99 228.332   4
   8  10  -1 7799.07 369.141   4
  -8  10   1 8151.00 1111.07   1
   8  10   0 3556.30 261.756   4
  -8  10   0 4590.10 828.157   1
   8  10   1 6994.39 345.926   4
  -8  10  -1 8403.81 1059.53   1
  -8  10  -2 2164.60 602.479   1
   8  10   2 1525.73 191.836   4
  -8  10  -3 206.548 334.060   1
  -8  10  -4 486.978 407.104   1
  -8  10  -5 820.721 439.371   1
  -8  10  -6 398.933 334.598   1
  -8  10 -10 326.551 127.898   3
   8 -10 -11-41.3012 173.222   7
  -8  10 -11 106.898 105.805   3
  -8  10 -12 338.490 128.024   3
  -8  10 -13 1432.49 164.880   3
  -8  10 -14 604.834 126.790   3
  -8  10 -15 756.549 127.312   3
  -8  10 -16 1198.04 134.641   3
  -8  10 -17 1132.73 122.540   3
  -8  10 -18 221.067 73.1717   3
  -8  10 -18-28.1211 248.989   6
  -8  10 -19 221.676 61.4690   3
  -8  10 -19-78.4050 219.378   6
  -8  10 -20-37.6993 182.031   6
   8  11 -16 737.160 124.968   4
   8  11 -15 612.808 135.815   4
   8  11 -14 1283.05 179.981   4
   8  11 -13 641.981 178.555   4
   8  11 -12 1497.55 212.362   4
   8  11 -11 133.852 148.827   4
   8  11 -10 637.966 177.860   4
   8  11  -9 379.534 166.775   4
  -8 -11  -9 218.888 496.803   2
   8  11  -8 890.417 188.685   4
  -8  11   8 557.769 500.329   1
  -8 -11  -8 910.444 654.544   2
   8  11  -7 130.147 148.953   4
  -8  11   7-95.3999 418.349   1
  -8 -11  -7 163.396 547.201   2
  -8  11   6 1336.15 594.113   1
  -8 -11  -6 1901.71 776.390   2
   8  11  -6 1548.40 211.447   4
   8  11  -5 8860.82 405.033   4
  -8  11   5 8179.60 1197.33   1
   8  11  -4 2909.54 270.529   4
  -8  11   4 3666.38 839.816   1
   8  11  -3 308.741 150.874   4
  -8  11   3 301.202 397.318   1
  -8  11   2 1972.22 635.165   1
   8  11  -2 2317.18 236.274   4
  -8  11   1 775.768 422.285   1
   8  11  -1 1196.41 196.821   4
   8  11   0 121.639 139.352   4
  -8  11   0 166.840 341.501   1
   8  11   1 1320.85 228.694   4
  -8  11  -1 731.512 405.007   1
   8  11   2 4563.59 315.644   4
  -8  11  -2 2180.43 610.875   1
  -8  11  -3 221.928 312.191   1
  -8  11  -4 2947.95 663.116   1
  -8  11  -5 6713.96 954.115   1
   8 -11 -11 87.9735 186.059   7
  -8  11 -13 597.203 112.602   3
  -8  11 -14 1214.35 138.200   3
  -8  11 -15 514.243 102.560   3
  -8  11 -16 825.022 107.906   3
  -8  11 -17 1279.42 107.507   3
  -8  11 -17 34.2065 267.752   6
  -8  11 -18 399.273 65.2838   3
  -8  11 -18-5.65191 237.434   6
  -8  11 -20-90.6632 155.542   6
   8  12 -16 280.230 88.5728   4
   8  12 -15 152.696 102.453   4
   8  12 -14 219.362 122.588   4
   8  12 -13 1426.28 188.946   4
   8  12 -12 756.555 170.196   4
   8  12 -11 1613.86 215.827   4
   8  12 -10 140.870 150.277   4
   8  12  -9 159.974 160.600   4
   8  12  -8 3177.34 275.961   4
   8  12  -7 616.732 182.158   4
  -8  12   7 666.382 491.279   1
  -8 -12  -7 161.891 475.949   2
   8  12  -6 894.154 196.761   4
  -8  12   6 597.761 481.363   1
  -8 -12  -6 850.847 623.220   2
   8  12  -5 874.565 182.024   4
  -8  12   5 810.737 509.559   1
  -8  12   4 525.795 447.428   1
   8  12  -4 773.376 193.549   4
   8  12  -3 360.172 164.285   4
  -8  12   3 593.932 476.069   1
   8  12  -2 929.933 187.709   4
  -8  12   2 925.088 474.292   1
  -8  12   1 4502.48 891.808   1
   8  12  -1 5267.81 319.027   4
   8  12   0 1469.89 202.628   4
  -8  12   0 1462.59 537.814   1
  -8  12  -1 4283.09 833.416   1
   8  12   1 4620.91 302.110   4
  -8  12  -2 768.457 418.112   1
   8  12   2 937.599 177.615   4
  -8  12  -3 314.280 394.739   1
  -8  12  -4 433.681 349.781   1
  -8  12  -5 748.593 399.113   1
   8 -12 -10 8788.85 467.934   7
   8 -12 -11 90.6198 179.421   7
   8 -12 -12-17.9407 153.838   7
  -8  12 -16 12.0274 265.154   6
  -8  12 -17-21.6000 233.638   6
  -8  12 -18-14.2772 200.427   6
  -8  12 -19 82.2425 174.238   6
   8  13 -15 71.3207 86.7841   4
   8  13 -14 1746.01 177.161   4
   8  13 -13 362.590 137.617   4
   8  13 -12 148.272 137.048   4
   8  13 -11 2185.62 239.535   4
   8  13 -10 2296.12 239.155   4
   8  13  -9 1435.54 221.088   4
   8  13  -8 919.167 199.578   4
   8  13  -7 95.2506 170.077   4
   8  13  -6 1495.32 223.446   4
   8  13  -5 1307.34 213.451   4
  -8  13   4 1723.26 638.932   1
   8  13  -4 3627.44 285.854   4
  -8  13   3 3248.95 783.372   1
   8  13  -3 3457.80 290.544   4
  -8  13   2 3823.88 867.370   1
   8  13  -2 4579.16 319.948   4
  -8  13   1 2898.10 753.913   1
   8  13  -1 3225.63 276.593   4
   8  13   0 203.506 151.099   4
  -8  13   0 177.994 356.001   1
  -8  13  -1 2640.38 695.114   1
   8  13   1 2817.05 255.912   4
  -8  13  -2 3625.27 783.422   1
  -8  13  -3 2642.71 686.466   1
  -8  13  -4 1381.66 496.503   1
   8 -13  -8 339.544 264.193   7
   8 -13  -9-2.97881 219.394   7
   8 -13 -10-7.19016 182.549   7
   8 -13 -11-5.34177 165.955   7
   8 -13 -12 12.9776 143.263   7
  -8  13 -14-154.105 287.491   6
  -8  13 -15 123.071 278.316   6
  -8  13 -16-140.216 242.986   6
  -8  13 -17 262.108 234.066   6
  -8  13 -18 50.9924 187.643   6
  -8  13 -19 34.9056 137.686   6
   8  14 -15 522.081 98.7934   4
   8  14 -14 358.123 106.936   4
   8  14 -13 338.899 123.986   4
   8  14 -12 100.334 121.227   4
   8  14 -11 252.448 131.338   4
   8  14 -10 548.260 154.010   4
   8  14  -9 702.932 174.701   4
   8  14  -8 1357.32 207.637   4
   8  14  -7 1186.82 203.817   4
   8  14  -6 70.6890 151.837   4
   8  14  -5 3561.86 287.327   4
   8  14  -4 3870.11 309.773   4
   8  14  -3 1580.43 226.358   4
   8  14  -2 2874.59 256.633   4
   8  14  -1 1060.18 190.565   4
   8  14   0 414.463 160.998   4
   8  14   1 1197.00 192.983   4
   8 -14  -6 74.5998 235.086   7
   8 -14  -7-21.3943 213.725   7
   8 -14  -8-54.9824 221.201   7
   8 -14  -9 19.0674 209.380   7
   8 -14 -10-10.3860 194.108   7
   8 -14 -11 16.4540 158.833   7
   8 -14 -12 5.74727 138.928   7
  -8  14 -12 545.306 320.545   6
  -8  14 -13-44.9122 260.938   6
  -8  14 -14-215.237 256.320   6
  -8  14 -15 39.6365 252.222   6
  -8  14 -17 15.3729 176.238   6
  -8  14 -18-16.6807 141.014   6
   8  15 -15 93.4814 63.7005   4
   8  15 -14 99.0280 82.2197   4
   8  15 -13 242.580 105.419   4
   8  15 -12 429.129 146.988   4
   8  15 -11 311.050 131.657   4
   8  15 -10 833.123 162.887   4
   8  15  -9 717.440 164.912   4
   8  15  -8 1323.74 193.624   4
   8  15  -7 1443.91 227.444   4
   8  15  -6 376.001 160.668   4
   8 -15   6-43.6627 207.085   7
   8 -15   5 746.422 292.342   7
   8  15  -5 2290.59 242.024   4
   8  15  -4 884.869 188.344   4
   8  15  -3 711.377 178.827   4
   8  15  -2 612.753 167.131   4
   8  15  -1 1624.18 225.992   4
   8  15   0 551.895 159.840   4
   8  15   1 1387.41 202.903   4
   8 -15  -4-24.9226 234.311   7
   8 -15  -5 131.232 333.250   7
   8 -15  -6-39.7402 222.012   7
   8 -15  -7-39.7227 227.845   7
  -8  15  -7-2.99988 282.009   6
   8 -15  -8 595.975 386.684   7
  -8  15  -8 23.0658 281.930   6
   8 -15  -9-13.5193 186.258   7
  -8  15  -9 215.007 275.273   6
   8 -15 -10 92.4577 185.198   7
  -8  15 -10 19.6795 261.410   6
   8 -15 -11-49.3068 151.955   7
  -8  15 -11-71.1568 253.362   6
  -8  15 -12 116.484 252.168   6
  -8  15 -13-44.7188 231.799   6
  -8  15 -15-162.430 204.130   6
  -8  15 -16 183.738 177.912   6
   8  16 -14 360.561 81.0558   4
   8  16 -13 258.597 89.9579   4
   8  16 -12 1456.49 151.284   4
   8  16 -11 1745.23 168.853   4
   8  16 -10 2536.53 208.455   4
   8  16  -9 142.818 127.627   4
   8  16  -8 3113.26 245.144   4
   8  16  -7 1319.56 184.612   4
   8  16  -6 485.616 154.638   4
   8 -16   6-76.0303 175.034   7
   8  16  -5 452.900 150.743   4
   8 -16   5 26.0068 191.269   7
   8  16  -4 277.754 143.677   4
   8 -16   4-41.3634 195.770   7
   8  16  -3 35.7475 133.536   4
   8 -16   3-11.3282 211.230   7
   8 -16   2 13.8993 219.474   7
   8  16  -2 571.877 227.066   4
   8 -16   1 86.7288 230.729   7
   8  16  -1 1791.22 203.818   4
   8  16   0 144.781 124.012   4
   8 -16   0 46.3855 225.130   7
   8 -16  -1-11.1925 219.516   7
   8  16   1 1467.34 179.994   4
   8 -16  -2-201.692 244.109   7
   8 -16  -3-19.5652 219.704   7
   8 -16  -4-40.3856 234.721   7
   8 -16  -5 24.2651 216.099   7
   8 -16  -6 26.1851 218.699   7
   8 -16  -7-33.8190 214.388   7
   8 -16  -8 11.6417 188.399   7
  -8  16  -8-94.9793 239.386   6
   8 -16  -9-19.6867 176.596   7
  -8  16  -9 126.383 249.848   6
   8 -16 -10-27.0623 151.080   7
  -8  16 -10-63.6274 230.658   6
   8 -16 -11 14.7662 134.159   7
  -8  16 -12-217.517 229.509   6
  -8  16 -13-137.201 202.949   6
  -8  16 -14-26.6078 178.321   6
  -8  16 -15 172.261 162.854   6
  -8  16 -16 123.383 126.745   6
   8  17 -13 59.7896 62.0369   4
   8  17 -12 211.708 90.6420   4
   8  17 -11 329.074 106.448   4
   8  17 -10 293.699 110.646   4
   8  17  -9 82.5792 107.443   4
   8  17  -8 697.819 142.290   4
   8  17  -7 1147.75 163.485   4
   8  17  -6 1133.92 177.024   4
   8 -17   5-8.35384 173.954   7
   8  17  -5 1077.07 169.493   4
   8  17  -4 302.543 135.189   4
   8 -17   4-6.96275 181.870   7
   8  17  -3 211.461 133.054   4
   8 -17   3-113.292 194.267   7
   8  17  -2 599.112 145.629   4
   8 -17   2-76.7840 203.673   7
   8  17  -1 159.303 120.972   4
   8 -17   1-20.7396 198.968   7
   8  17   0 46.1209 108.349   4
   8 -17   0 85.8078 216.375   7
   8 -17  -1 39.4975 210.610   7
   8 -17  -2-5.53664 205.831   7
   8 -17  -3 47.8924 218.198   7
   8 -17  -4-15.6966 198.517   7
   8 -17  -5 153.605 203.929   7
   8 -17  -6 79.1326 195.820   7
   8 -17  -7-5.22531 184.898   7
   8 -17  -8 82.2098 171.585   7
   8 -17  -9 23.8620 149.343   7
   8 -17 -10 26.2184 130.272   7
  -8  17 -10 592.428 242.423   6
   8 -17 -11 163.285 117.307   7
  -8  17 -11 145.083 181.934   6
  -8  17 -12-110.290 168.931   6
  -8  17 -13 133.551 159.571   6
  -8  17 -14 1.24384 129.359   6
   8  18 -12 321.740 77.2345   4
   8  18 -11 228.431 79.1152   4
   8  18 -10 206.890 89.9003   4
   8  18  -9 300.949 106.789   4
   8  18  -8 1337.13 144.760   4
   8  18  -7 202.038 103.798   4
   8  18  -6 568.293 130.917   4
   8  18  -5 587.805 132.078   4
   8 -18   5 3.41359 131.607   7
   8 -18   4-10.0339 152.738   7
   8  18  -4 897.283 141.003   4
   8 -18   3 0.96245 156.148   7
   8  18  -3 841.062 147.107   4
   8  18  -2 440.962 124.803   4
   8 -18   2 0.08006 168.696   7
   8 -18   1-21.7583 179.974   7
   8  18  -1 2248.40 182.806   4
   8 -18   0-75.7367 184.136   7
   8 -18  -1 191.515 194.787   7
   8 -18  -2 94.5852 186.896   7
   8 -18  -3 78.9986 197.750   7
   8 -18  -4 24.1769 174.347   7
   8 -18  -5 34.9568 187.746   7
   8 -18  -6-29.6358 173.714   7
   8 -18  -7 28.7541 163.529   7
   8 -18  -8 12.2220 142.261   7
   8 -18  -9 91.6001 131.692   7
   8 -18 -10 4.95225 100.933   7
   8  19 -10 314.834 68.6370   4
   8  19  -9 330.269 83.4812   4
   8  19  -8 387.984 91.2860   4
   8  19  -7 231.711 93.5894   4
   8  19  -6 103.320 81.8175   4
   8  19  -5 36.4419 88.5959   4
   8 -19   4 50.3047 120.966   7
   8  19  -4 19.6641 85.2000   4
   8 -19   3 612.678 191.729   7
   8  19  -3 544.360 110.132   4
   8 -19   2-17.8084 144.983   7
   8  19  -2 1091.42 125.678   4
   8 -19   1-38.4938 160.092   7
   8  19  -1 610.902 103.534   4
   8 -19   0 311.553 178.702   7
   8 -19  -1 85.5798 170.417   7
   8 -19  -2 7.90683 164.737   7
   8 -19  -3 104.524 170.004   7
   8 -19  -4 71.3589 165.703   7
   8 -19  -5 57.8426 146.851   7
   8 -19  -6 144.297 145.974   7
   8 -19  -7 150.410 137.925   7
   8 -19  -8-50.7140 111.899   7
   8 -19  -9 36.7221 90.0457   7
   8  20  -7 344.414 71.1057   4
   8  20  -6 114.957 63.1433   4
   8  20  -5 732.294 91.2703   4
   8  20  -4 1162.48 108.289   4
   8 -20   3 39.5318 100.637   7
   8  20  -3 128.145 65.5469   4
   8 -20   2 24.0241 117.125   7
   8 -20   1-25.8520 123.015   7
   8 -20   0-21.5613 130.848   7
   8 -20  -1-0.69273 136.183   7
   8 -20  -2-24.2305 132.813   7
   8 -20  -3 132.769 141.772   7
   8 -20  -4 47.8401 130.469   7
   8 -20  -5-72.5638 123.953   7
   8 -20  -6 55.5024 109.602   7
   8 -20  -7 244.715 100.924   7
  -9   0  -1 12765.5 1230.46   1
  -9   0  -1 14677.8 1003.37   2
  -9   0  -2 13366.0 1167.91   1
  -9   0  -2 17199.8 1117.27   2
  -9   0  -3 338.203 316.012   2
  -9   0  -3 287.252 300.832   1
  -9   0  -4 78.0687 257.939   2
  -9   0  -5 232.205 287.305   2
  -9   0  -6 177.623 286.938   2
   9   0  -7 11122.7 438.206   5
   9   0  -7 10748.6 436.152   4
  -9   0  -7 11663.0 1127.31   2
   9   0  -8 11022.6 442.534   5
   9   0  -8 11623.0 441.728   4
  -9   0  -8 11827.8 1173.08   2
   9   0  -9 2640.11 256.019   5
   9   0  -9 2902.69 256.869   4
  -9   0  -9 2523.11 609.990   2
   9   0 -10 13884.2 472.428   5
   9   0 -10 12806.0 459.270   4
   9   0 -11 2290.35 267.423   5
   9   0 -11 2189.34 259.822   4
  -9   0 -11 2845.11 732.895   2
  -9   0 -12 78.6550 368.613   2
   9   0 -12-85.6292 136.268   5
  -9   0 -13 129.240 333.826   2
  -9   0 -15 1347.79 209.861   3
  -9   0 -16 4931.22 331.452   3
  -9   0 -17 5702.12 339.540   3
  -9   0 -18 51.3758 120.856   3
  -9   0 -19 1237.01 169.109   3
  -9   0 -20 728.436 125.598   3
  -9   0 -21 311.426 91.1638   3
  -9   0 -22 16.0763 55.6659   3
  -9  -1 -22 79.3265 55.7146   3
  -9  -1 -21 62.7723 74.4023   3
  -9  -1 -20 2541.77 189.301   3
  -9  -1 -19 1329.70 167.574   3
  -9  -1 -18 1226.20 177.382   3
  -9  -1 -17 5713.25 339.599   3
  -9  -1 -16 788.655 187.324   3
  -9  -1 -15 872.099 213.145   3
  -9   1  13 117.402 529.280   1
  -9  -1 -13 376.684 419.849   2
  -9   1  12-14.8423 464.280   1
  -9  -1 -12-7.48207 334.233   2
   9   1 -12 35.8861 128.094   5
   9   1 -12-142.330 142.761   4
  -9  -1 -11 1204.12 557.434   2
   9   1 -11 831.318 204.612   5
   9   1 -11 887.857 208.301   4
  -9   1  11 1548.50 698.697   1
   9   1 -10 3860.60 296.276   5
   9   1 -10 3674.87 299.685   4
   9   1  -9 2364.98 239.969   5
   9   1  -9 2406.68 236.797   4
  -9  -1  -9 2508.27 634.725   2
   9   1  -8 2422.00 238.494   4
  -9  -1  -8 2550.40 602.795   2
  -9  -1  -7 692.000 400.046   2
   9   1  -7 599.315 155.294   4
  -9  -1  -6 209.328 302.579   2
   9   1  -6 227.213 142.626   4
  -9  -1  -5 2061.44 511.968   2
  -9  -1  -4 2845.27 563.640   2
  -9  -1  -3 4237.96 600.196   2
  -9  -1  -2 1889.50 522.622   1
  -9   1   2 3032.26 658.042   1
  -9  -1  -2 2654.47 486.521   2
  -9   1   1 8088.94 1001.85   1
  -9  -1  -1 7380.63 737.037   2
  -9   1   0 3874.67 737.241   1
  -9  -1   0 3638.04 517.111   2
  -9   1  -1 6331.54 873.243   1
  -9   1  -1 7502.33 737.808   2
  -9   1  -2 1954.03 496.834   1
  -9   1  -2 2477.86 472.153   2
  -9   1  -3 3222.08 541.712   1
  -9   1  -3 4482.50 618.435   2
  -9   1  -4 3467.71 590.913   2
  -9   1  -5 2072.12 495.985   2
   9  -1  -6 50.4338 123.362   5
  -9   1  -6 231.253 308.622   2
  -9   1  -7 905.234 408.767   2
   9  -1  -7 604.107 157.080   5
   9  -1  -7 689.187 165.163   4
   9  -1  -8 2467.74 238.886   5
   9  -1  -8 2223.62 221.876   4
  -9   1  -8 2654.60 617.199   2
   9  -1  -9 2175.87 260.448   5
   9  -1  -9 2036.29 248.554   4
  -9   1  -9 2542.25 620.541   2
   9  -1 -10 3317.23 290.516   5
  -9   1 -10 4340.34 765.547   2
  -9   1 -11 1422.45 537.594   2
   9  -1 -11 1001.29 191.782   5
  -9   1 -12 203.535 351.381   2
   9  -1 -12-93.9828 139.452   5
  -9   1 -13 406.570 386.075   2
  -9   1 -14 4566.84 323.250   3
  -9   1 -15 493.135 176.641   3
  -9   1 -16 789.997 178.726   3
  -9   1 -17 5712.55 342.250   3
  -9   1 -18 1131.82 181.077   3
  -9   1 -19 1178.29 163.813   3
  -9   1 -20 2561.68 188.104   3
  -9   1 -21 127.765 83.6118   3
  -9   1 -22 187.975 66.8967   3
  -9  -2 -21 72.7720 74.6262   3
  -9  -2 -20 1723.98 160.277   3
  -9  -2 -19 894.213 148.191   3
  -9  -2 -18 1150.46 177.931   3
  -9  -2 -17 259.635 165.537   3
  -9  -2 -16 1137.25 227.732   3
  -9  -2 -15 89.3752 153.447   3
  -9  -2 -14 534.484 182.414   3
  -9  -2 -13 334.181 449.132   2
  -9   2  13 51.2352 503.049   1
  -9  -2 -12 182.095 344.518   2
  -9   2  12 338.418 508.918   1
   9   2 -12 241.761 145.354   5
   9   2 -12 356.475 151.697   4
  -9  -2 -11 889.557 473.601   2
   9   2 -11 823.322 181.833   5
  -9   2  11 1404.73 748.701   1
   9   2 -11 840.969 185.205   4
  -9  -2 -10 1752.12 584.631   2
  -9   2  10 1962.76 791.075   1
   9   2 -10 1607.45 220.785   4
  -9  -2  -9 186.123 332.816   2
  -9   2   9 421.546 490.108   1
   9   2  -9 159.323 140.830   4
  -9   2   8 4298.82 985.357   1
   9   2  -8 4374.92 302.760   4
  -9  -2  -8 4520.88 799.733   2
  -9  -2  -7 1365.01 477.826   2
  -9   2   7 1564.58 625.240   1
   9   2  -7 1347.14 189.527   4
  -9  -2  -6 88.8500 279.623   2
  -9   2   6-12.0189 364.804   1
   9   2  -6-52.0462 135.545   4
  -9   2   5 1106.65 571.100   1
  -9  -2  -5 1486.26 452.666   2
  -9  -2  -4 1944.46 472.098   2
  -9   2   4 1663.16 617.780   1
  -9   2   3 1756.24 572.073   1
  -9  -2  -3 1780.62 453.543   2
  -9   2   2 7559.53 1029.97   1
  -9  -2  -2 7456.59 800.710   2
  -9  -2  -1 12103.2 959.523   2
  -9   2   1 11613.1 1181.41   1
  -9  -2   0 5617.92 659.595   2
  -9   2   0 5488.46 801.715   1
  -9   2  -1 10954.9 1079.40   1
  -9   2  -2 6855.25 814.429   1
  -9   2  -2 7842.79 749.700   2
  -9   2  -3 1278.89 382.504   1
  -9   2  -3 1720.27 422.380   2
  -9   2  -4 1828.19 449.071   2
  -9   2  -5 1254.07 417.706   2
  -9   2  -6-51.6731 285.475   2
   9  -2  -6-62.6143 127.105   5
  -9   2  -7 1401.21 443.382   2
   9  -2  -7 1270.99 192.406   5
   9  -2  -8 4313.94 297.263   5
  -9   2  -8 4426.83 732.622   2
  -9   2  -9 321.777 336.041   2
   9  -2  -9 274.037 156.004   5
  -9   2 -10 1644.88 515.865   2
   9  -2 -10 1428.68 222.398   5
  -9   2 -11 1107.52 456.956   2
   9  -2 -11 822.278 169.884   5
  -9   2 -12 375.574 391.697   2
  -9   2 -13 388.070 392.970   2
  -9   2 -14 537.370 171.483   3
  -9   2 -15 90.9414 136.330   3
  -9   2 -16 1714.24 212.985   3
  -9   2 -17 914.520 175.865   3
  -9   2 -18 1030.78 170.936   3
  -9   2 -19 702.590 138.170   3
  -9   2 -20 1850.37 165.289   3
  -9   2 -21 89.2459 77.9729   3
  -9   2 -22 574.874 83.6101   3
  -9  -3 -20 7.97369 79.7314   3
  -9  -3 -19 743.248 139.161   3
  -9  -3 -18 234.126 131.205   3
  -9  -3 -17 2563.75 268.048   3
  -9  -3 -16 922.218 227.000   3
  -9  -3 -15 519.969 184.054   3
  -9  -3 -14 1561.13 240.598   3
  -9  -3 -13 160.852 368.483   2
  -9   3  13 375.766 563.094   1
   9   3 -13 100.222 137.215   5
   9   3 -13 198.928 144.890   4
  -9   3  12 3245.05 973.444   1
   9   3 -12 3580.20 283.068   5
   9   3 -12 4104.26 290.171   4
  -9  -3 -12 3734.86 802.832   2
  -9  -3 -11 367.879 398.104   2
  -9   3  11 279.699 473.529   1
   9   3 -11 556.661 168.052   4
  -9   3  10 2192.56 834.856   1
  -9  -3 -10 2054.66 612.931   2
   9   3 -10 2117.35 230.961   4
  -9   3   9 425.072 498.590   1
  -9  -3  -9 534.855 400.896   2
   9   3  -9 666.245 159.522   4
  -9   3   8 4659.82 1056.06   1
   9   3  -8 5050.18 317.369   4
  -9  -3  -8 5144.15 835.774   2
  -9   3   7 4836.52 1014.68   1
   9   3  -7 5044.89 295.039   4
  -9  -3  -7 4951.09 777.640   2
  -9   3   6 2391.58 731.327   1
   9   3  -6 2731.41 243.229   4
  -9  -3  -6 2445.60 576.802   2
  -9   3   5 1806.13 651.530   1
  -9  -3  -5 1929.19 531.270   2
   9   3  -5 1711.22 197.903   4
  -9   3   4 1585.29 602.105   1
  -9  -3  -4 1945.77 509.266   2
  -9  -3  -3 1814.73 488.018   2
  -9   3   3 1736.99 592.131   1
  -9  -3  -2 7038.72 836.317   2
  -9   3   2 5933.41 928.268   1
  -9  -3  -1 4659.59 685.572   2
  -9   3   1 4133.84 722.589   1
  -9  -3   0-83.2949 324.540   2
  -9   3   0 335.375 366.696   1
  -9  -3   1 4059.12 608.935   2
  -9   3  -1 3982.10 678.046   1
  -9   3  -2 5663.33 785.152   1
  -9   3  -2 6645.97 716.838   2
  -9   3  -3 1962.02 459.777   2
  -9   3  -3 1612.89 453.166   1
  -9   3  -4 1766.70 459.265   2
  -9   3  -5 1844.85 477.569   2
   9  -3  -5 1858.82 198.854   5
   9  -3  -6 2465.56 235.323   5
  -9   3  -6 2309.05 546.038   2
   9  -3  -7 5023.46 312.186   5
  -9   3  -7 5177.76 749.860   2
   9  -3  -8 6216.80 408.100   5
  -9   3  -8 5769.04 827.165   2
  -9   3  -9 596.438 375.321   2
   9  -3  -9 465.085 161.082   5
  -9   3 -10 2398.03 599.007   2
   9  -3 -10 1567.50 226.360   5
  -9   3 -11 434.719 414.446   2
   9  -3 -11 493.225 174.806   5
  -9   3 -12 3917.70 762.210   2
  -9   3 -14 1365.44 200.471   3
  -9   3 -15 446.934 155.731   3
  -9   3 -16 1518.13 206.099   3
  -9   3 -17 3186.98 250.346   3
  -9   3 -18 96.7248 115.450   3
  -9   3 -19 704.249 137.553   3
  -9   3 -20 89.9224 87.7281   3
  -9   3 -21 230.679 82.5276   3
  -9   3 -22 24.7530 53.3645   3
  -9  -4 -19 442.076 109.064   3
  -9  -4 -18 150.762 119.121   3
  -9  -4 -17 1562.49 198.685   3
  -9  -4 -16 1285.11 211.727   3
  -9  -4 -15 1321.61 246.944   3
  -9  -4 -14 1540.19 230.685   3
   9   4 -14 985.223 184.349   4
  -9  -4 -13 1106.47 580.925   2
   9   4 -13 1013.76 187.378   5
   9   4 -13 1263.66 206.049   4
  -9   4  13 898.589 607.415   1
  -9   4  12 1404.59 726.280   1
  -9  -4 -12 1095.53 489.256   2
   9   4 -12 1305.63 205.595   4
  -9   4  11 3541.78 1006.34   1
   9   4 -11 3897.58 292.726   4
  -9  -4 -11 3791.52 822.502   2
  -9   4  10 3950.89 976.123   1
   9   4 -10 3608.54 295.772   4
  -9  -4 -10 3790.19 789.602   2
  -9  -4  -9 324.353 451.814   2
  -9   4   9 160.244 403.391   1
   9   4  -9 404.864 154.491   4
  -9   4   8 7196.51 1229.12   1
   9   4  -8 7481.77 371.205   4
  -9  -4  -8 6915.75 979.045   2
  -9  -4  -7 1219.69 488.400   2
  -9   4   7 736.108 515.405   1
   9   4  -7 1206.83 187.715   4
  -9  -4  -6 757.550 418.776   2
  -9   4   6 676.963 496.912   1
  -9   4   5 392.925 399.034   1
  -9  -4  -5 218.256 345.241   2
   9   4  -5 263.849 137.777   4
  -9   4   4 1195.58 540.431   1
  -9  -4  -4 1614.64 516.634   2
   9   4  -4 1525.87 193.319   4
  -9   4   3 532.832 400.472   1
  -9  -4  -3 842.558 414.753   2
  -9  -4  -2 3826.79 666.810   2
  -9   4   2 3258.63 712.033   1
  -9  -4  -1 7321.47 880.759   2
  -9   4   1 6789.99 928.351   1
  -9   4   0 1795.48 503.500   1
  -9  -4   0 1920.10 503.373   2
  -9  -4   1 6853.66 830.328   2
  -9   4  -1 7161.97 871.719   1
  -9   4  -2 3524.48 652.063   1
  -9   4  -3 755.160 366.016   1
  -9   4  -4 1086.61 385.856   1
   9  -4  -4 1466.51 198.847   5
   9  -4  -5 1080.66 256.594   5
  -9   4  -5 265.357 285.976   2
   9  -4  -6 641.588 176.117   5
  -9   4  -6 416.902 325.906   2
   9  -4  -7 1013.99 186.919   5
  -9   4  -7 1328.47 468.354   2
   9  -4  -8 7511.37 404.586   5
  -9   4  -8 7691.47 942.754   2
   9  -4  -9 300.655 171.444   5
   9  -4 -10 3211.84 335.459   5
  -9   4 -14 1336.54 200.203   3
  -9   4 -15 2011.54 228.408   3
  -9   4 -16 1048.21 179.617   3
  -9   4 -17 1235.27 179.711   3
  -9   4 -18 138.951 111.067   3
  -9   4 -19 564.119 123.427   3
  -9   4 -20 1095.73 128.301   3
  -9   4 -21 46.9978 67.9721   3
  -9   4 -22 117.947 58.6375   3
  -9  -5 -18 351.860 114.000   3
  -9  -5 -17 341.485 139.339   3
  -9  -5 -16 168.329 139.713   3
  -9  -5 -15 941.894 198.135   3
  -9  -5 -14 3358.95 295.713   3
   9   5 -14 2336.11 234.023   4
   9   5 -13 1834.52 216.105   4
  -9  -5 -12 533.696 436.540   2
  -9   5  12 444.888 601.296   1
   9   5 -12 691.637 174.887   4
  -9   5  11 7024.07 1340.82   1
   9   5 -11 7687.46 393.232   4
  -9  -5 -11 7970.00 1164.33   2
  -9   5  10 3995.72 979.091   1
   9   5 -10 4292.87 319.009   4
  -9  -5 -10 3961.33 815.780   2
  -9  -5  -9 2548.40 663.206   2
   9   5  -9 2558.29 244.292   4
  -9   5   9 2414.46 823.514   1
  -9  -5  -8 1358.99 628.885   2
   9   5  -8 1561.22 207.869   4
  -9   5   8 1535.35 645.393   1
  -9  -5  -7 1407.64 526.261   2
   9   5  -7 1395.25 199.894   4
  -9   5   7 1318.63 632.479   1
  -9  -5  -6 336.720 350.574   2
  -9   5   6 114.876 376.715   1
   9   5  -6 211.408 137.125   4
  -9  -5  -5 1157.93 505.777   2
  -9   5   5 964.928 520.683   1
   9   5  -5 1041.96 176.418   4
  -9  -5  -4 351.841 352.325   2
  -9   5   4 75.9250 343.505   1
   9   5  -4 626.419 155.024   4
  -9  -5  -3 1087.78 488.160   2
  -9   5   3 676.568 446.036   1
   9   5  -3 555.698 141.127   4
  -9  -5  -2 2888.35 626.270   2
  -9   5   2 2608.25 638.733   1
  -9  -5  -1 3834.38 701.145   2
  -9   5   1 3577.12 711.944   1
  -9   5   0 2255.29 578.095   1
  -9  -5   0 2157.82 560.808   2
  -9   5  -1 3290.54 656.983   1
  -9  -5   1 3513.86 688.623   2
  -9   5  -2 2842.12 591.918   1
   9  -5  -2 3093.65 249.953   5
  -9   5  -3 635.781 368.866   1
   9  -5  -3 827.302 179.530   5
  -9   5  -4-8.67918 298.338   1
   9  -5  -4 211.203 184.718   5
   9  -5  -5 1138.45 191.740   5
   9  -5  -6 275.899 161.816   5
   9  -5  -7 1697.72 240.201   5
   9  -5  -8 659.355 196.141   5
   9  -5 -10-37.5476 165.346   5
  -9   5 -13 2171.45 234.945   3
  -9   5 -14 2996.69 254.051   3
  -9   5 -15 877.781 172.129   3
  -9   5 -16 209.759 125.686   3
  -9   5 -17 318.440 129.458   3
  -9   5 -18 397.139 120.810   3
  -9   5 -19 268.303 105.559   3
  -9   5 -20 1289.97 132.527   3
  -9   5 -20-136.820 225.850   6
  -9   5 -21 158.035 68.7621   3
  -9   5 -22 94.7160 49.7905   3
  -9  -6 -16 125.185 126.838   3
  -9  -6 -15 580.716 183.171   3
   9   6 -15 234.235 135.663   4
  -9  -6 -14 1782.71 237.289   3
   9   6 -14 1370.39 196.131   4
  -9  -6 -13 139.878 171.886   3
   9   6 -13 107.512 147.635   4
  -9   6  12 289.496 444.877   1
  -9  -6 -12 492.002 438.594   2
   9   6 -12 463.307 174.723   4
  -9   6  11 502.553 477.155   1
  -9  -6 -11 515.156 402.377   2
   9   6 -11 542.487 171.982   4
  -9  -6 -10 1848.37 622.850   2
  -9   6  10 1262.46 621.685   1
   9   6 -10 1645.12 220.088   4
  -9  -6  -9 1133.86 559.868   2
  -9   6   9 1088.59 616.009   1
   9   6  -9 1244.19 202.752   4
  -9  -6  -8 985.309 522.239   2
  -9   6   8 853.640 526.391   1
   9   6  -8 822.730 185.422   4
  -9  -6  -7 835.782 476.993   2
  -9   6   7 790.168 536.864   1
   9   6  -7 928.566 192.274   4
   9   6  -6 209.463 152.489   4
  -9   6   6 5.55969 355.534   1
  -9  -6  -6 130.414 383.118   2
  -9  -6  -5 8526.21 1125.36   2
  -9   6   5 7117.22 1088.26   1
   9   6  -5 7090.00 359.185   4
  -9   6   4 11827.7 1339.25   1
   9   6  -4 12099.3 441.943   4
  -9  -6  -3 5461.24 898.524   2
  -9   6   3 4263.05 821.025   1
   9   6  -3 3750.99 269.613   4
  -9  -6  -2 10658.0 1182.58   2
  -9   6   2 9233.43 1124.65   1
   9   6  -2 8433.95 375.603   4
  -9   6   1 6132.54 928.295   1
  -9  -6  -1 7443.09 1028.01   2
   9   6  -1 5355.54 304.617   4
  -9   6   0 307.423 320.418   1
   9   6   0 249.716 131.003   4
  -9   6  -1 6635.82 899.696   1
   9  -6  -1-49.2453 145.196   5
  -9   6  -2 8876.21 1009.43   1
  -9   6  -3 3858.36 678.410   1
  -9   6  -4 11493.5 1110.65   1
   9  -6  -7-46.8009 170.976   5
   9  -6 -11-102.863 167.028   5
  -9   6 -12 762.256 264.741   3
  -9   6 -13 49.1154 121.885   3
  -9   6 -14 1622.77 201.544   3
  -9   6 -15 375.509 146.682   3
  -9   6 -16 138.046 109.247   3
  -9   6 -17 697.007 139.391   3
  -9   6 -18 272.504 115.474   3
  -9   6 -19 681.087 113.419   3
  -9   6 -20 31.0120 212.519   6
  -9   6 -20 213.171 81.4918   3
  -9   6 -21 169.435 63.4604   3
   9   7 -15 301.888 141.875   4
   9   7 -14 2788.36 235.833   4
   9   7 -13 3002.46 260.049   4
   9   7 -12 965.000 199.908   4
  -9   7  11 846.174 638.785   1
  -9  -7 -11 865.114 552.483   2
   9   7 -11 339.657 187.639   4
  -9   7  10 519.733 542.969   1
  -9  -7 -10 226.639 375.149   2
   9   7 -10 524.488 178.660   4
  -9   7   9 1034.37 562.320   1
  -9  -7  -9 1044.11 573.760   2
   9   7  -9 1500.21 272.344   4
  -9  -7  -8 3739.01 839.784   2
  -9   7   8 2864.72 836.168   1
   9   7  -8 3604.19 290.875   4
  -9  -7  -7 6203.36 1061.70   2
  -9   7   7 3937.14 948.531   1
   9   7  -7 4680.60 323.917   4
  -9   7   6 2757.41 733.689   1
  -9  -7  -6 2794.13 723.686   2
   9   7  -6 2793.23 255.238   4
  -9  -7  -5 3436.09 816.064   2
  -9   7   5 3666.72 828.349   1
   9   7  -5 3441.60 273.203   4
  -9  -7  -4 9425.17 1247.25   2
  -9   7   4 8243.14 1156.56   1
   9   7  -4 8290.29 387.005   4
  -9   7   3 2630.22 684.730   1
  -9  -7  -3 3402.44 809.197   2
   9   7  -3 2772.67 243.961   4
  -9   7   2 8656.60 1120.95   1
  -9  -7  -2 10860.7 1277.28   2
   9   7  -2 8523.98 375.954   4
  -9   7   1 7163.44 1004.09   1
   9   7  -1 6324.64 328.833   4
  -9   7   0 675.257 391.485   1
   9   7   0 303.128 126.253   4
   9   7   1 5731.58 314.134   4
  -9   7  -1 6941.15 936.365   1
   9   7   2 6509.82 319.697   4
  -9   7  -2 8694.51 1042.75   1
  -9   7  -3 2733.13 613.946   1
  -9   7  -4 7350.12 921.142   1
   9  -7  -7 30.2638 168.700   5
   9  -7  -8 29.5295 179.568   5
  -9   7 -12 1013.11 173.845   3
  -9   7 -13 3396.17 257.372   3
  -9   7 -14 3276.28 245.955   3
  -9   7 -15 338.456 131.719   3
  -9   7 -16 760.081 141.131   3
  -9   7 -17 2285.57 185.742   3
  -9   7 -18 122.979 90.1344   3
  -9   7 -19 42.0078 75.2861   3
  -9   7 -20-17.5187 194.154   6
  -9   7 -20 345.675 79.7151   3
  -9   7 -21 227.031 59.2320   3
   9   8 -15 276.347 132.416   4
   9   8 -14 2135.07 222.647   4
   9   8 -13 1521.30 222.974   4
   9   8 -12 1113.10 203.823   4
   9   8 -11 2304.08 248.892   4
  -9  -8 -10 1388.59 605.890   2
   9   8 -10 1336.94 211.468   4
  -9   8  10 826.238 575.816   1
   9   8  -9 554.329 174.964   4
  -9  -8  -9 609.203 545.825   2
  -9   8   9 501.997 517.978   1
  -9  -8  -8 4033.57 919.808   2
  -9   8   8 3567.70 915.077   1
   9   8  -8 4218.30 308.394   4
  -9  -8  -7 1873.53 663.208   2
   9   8  -7 1461.82 208.432   4
  -9   8   7 1455.47 661.296   1
  -9  -8  -6 1368.74 622.266   2
   9   8  -6 1383.38 220.959   4
  -9   8   6 878.867 537.400   1
  -9  -8  -5 1673.88 684.872   2
   9   8  -5 1213.71 208.079   4
  -9   8   5 1493.19 608.809   1
   9   8  -4 767.454 173.209   4
  -9  -8  -4 911.638 564.295   2
  -9   8   4 793.095 497.847   1
   9   8  -3 394.511 158.501   4
  -9  -8  -3 248.710 445.716   2
  -9   8   3 481.859 455.639   1
  -9   8   2 4029.06 809.520   1
   9   8  -2 4098.19 294.819   4
   9   8  -1 12263.5 466.615   4
  -9   8   1 12769.2 1349.41   1
  -9   8   0 2045.64 595.507   1
   9   8   0 1874.28 237.873   4
   9   8   1 11087.4 436.481   4
  -9   8  -1 12002.6 1270.43   1
   9   8   2 3041.65 239.990   4
  -9   8  -2 4154.42 770.573   1
  -9   8  -3 528.430 365.183   1
  -9   8  -4 818.370 416.162   1
   9  -8  -8 42.5137 194.289   5
   9  -8  -9-107.679 189.279   5
   9  -8 -10-163.216 187.983   5
  -9   8 -11 1858.64 195.982   3
  -9   8 -12 1160.08 172.278   3
  -9   8 -13 1985.93 202.132   3
  -9   8 -14 2081.74 195.932   3
  -9   8 -15 241.781 111.852   3
  -9   8 -16 1630.27 170.525   3
  -9   8 -17 176.242 96.6212   3
  -9   8 -18 1292.76 127.759   3
  -9   8 -19 630.200 92.6629   3
  -9   8 -19 45.9158 235.134   6
  -9   8 -20 549.685 75.4488   3
  -9   8 -20 157.142 192.731   6
   9   9 -15 1075.28 156.773   4
   9   9 -14 3520.56 258.703   4
   9   9 -13 970.939 205.673   4
   9   9 -12 573.094 190.972   4
   9   9 -11 676.168 217.347   4
   9   9 -10 2219.85 239.978   4
   9   9  -9 626.113 196.472   4
  -9  -9  -9 363.382 446.691   2
  -9   9   9 298.889 441.252   1
  -9  -9  -8 2296.26 723.123   2
  -9   9   8 2108.06 764.832   1
   9   9  -8 2526.24 269.921   4
   9   9  -7 120.534 147.285   4
  -9  -9  -7 296.266 498.974   2
  -9   9   7-2.11543 391.669   1
   9   9  -6 479.508 169.958   4
  -9  -9  -6 445.367 518.571   2
  -9   9   6 536.985 457.750   1
  -9  -9  -5 2127.50 769.743   2
  -9   9   5 1499.41 604.327   1
   9   9  -5 1941.66 234.838   4
  -9  -9  -4 1572.29 693.407   2
  -9   9   4 1530.52 609.862   1
   9   9  -4 3223.31 362.109   4
   9   9  -3 774.513 180.242   4
  -9   9   3 665.587 460.454   1
  -9   9   2 1033.87 507.505   1
   9   9  -2 1424.92 204.256   4
   9   9  -1 761.775 182.909   4
  -9   9   1 799.522 430.919   1
  -9   9   0 48.6857 327.711   1
   9   9   0 434.123 172.313   4
  -9   9  -1 852.899 463.882   1
   9   9   1 641.720 160.640   4
  -9   9  -2 1229.81 505.118   1
   9   9   2 1075.27 183.064   4
   9  -9  -3 122.686 186.827   5
  -9   9  -3 723.899 419.189   1
   9  -9  -4-87.7831 187.557   5
  -9   9  -4 950.479 410.143   1
   9  -9  -5-65.8060 187.155   5
   9  -9  -6 16.0434 196.044   5
   9  -9  -7-104.076 201.173   5
  -9   9  -9 370.522 135.333   3
  -9   9 -10 1864.98 196.464   3
  -9   9 -11 497.822 134.693   3
  -9   9 -12 547.407 157.904   3
  -9   9 -13 1577.03 167.477   3
  -9   9 -14 3724.77 231.810   3
  -9   9 -15 1235.86 148.749   3
  -9   9 -16 1711.71 154.827   3
  -9   9 -17 2931.98 177.109   3
  -9   9 -18 314.226 78.4344   3
  -9   9 -19 450.617 71.7953   3
  -9   9 -19 96.9830 217.338   6
  -9   9 -20 189.483 173.352   6
   9  10 -15 740.422 138.097   4
   9  10 -14 692.271 152.595   4
   9  10 -13 733.140 193.447   4
   9  10 -12 215.979 156.685   4
   9  10 -11 799.329 195.277   4
   9  10 -10 143.660 176.078   4
   9  10  -9 1023.19 195.429   4
  -9 -10  -8 2840.01 842.568   2
  -9  10   8 2540.11 794.865   1
   9  10  -8 3257.75 277.646   4
  -9 -10  -7 1971.12 718.374   2
  -9  10   7 1396.04 599.763   1
   9  10  -7 1730.09 227.915   4
   9  10  -6 199.720 169.992   4
  -9  10   6-86.5056 362.030   1
  -9 -10  -6 363.751 452.051   2
  -9  10   5 1719.68 644.939   1
  -9 -10  -5 1588.45 690.119   2
   9  10  -5 1649.92 226.561   4
   9  10  -4 125.317 152.595   4
  -9  10   4 73.7010 372.720   1
  -9 -10  -4 33.0776 453.422   2
   9  10  -3 440.523 177.718   4
  -9  10   3 277.558 387.290   1
  -9  10   2 1646.08 606.700   1
   9  10  -2 1933.31 268.039   4
  -9  10   1 1534.11 590.544   1
   9  10  -1 1379.43 209.453   4
  -9  10   0 1145.23 493.088   1
   9  10   0 1075.67 185.352   4
  -9  10  -1 1114.71 474.695   1
   9  10   1 1190.53 183.230   4
   9  10   2 1537.20 193.156   4
  -9  10  -2 1597.02 524.724   1
  -9  10  -3 352.242 355.666   1
  -9  10  -4 122.038 302.630   1
  -9  10 -10 96.7936 115.746   3
  -9  10 -11 610.456 137.111   3
  -9  10 -12 290.691 119.414   3
  -9  10 -13 803.786 133.302   3
  -9  10 -14 704.280 120.358   3
  -9  10 -15 882.715 120.947   3
  -9  10 -16 2241.82 151.818   3
  -9  10 -17 2760.81 153.594   3
  -9  10 -18 27.9622 54.8655   3
  -9  10 -18-11.7365 233.286   6
  -9  10 -19 43.4709 191.279   6
  -9  10 -20 10.3525 144.909   6
   9  11 -15 147.640 106.626   4
   9  11 -14 1204.58 164.535   4
   9  11 -13 966.325 167.357   4
   9  11 -12 95.5770 139.182   4
   9  11 -11 202.140 147.494   4
   9  11 -10 1743.84 233.453   4
   9  11  -9 205.222 158.065   4
   9  11  -8 515.715 185.115   4
   9  11  -7 171.378 160.962   4
   9  11  -6 94.9294 148.121   4
  -9  11   6 282.955 437.602   1
  -9 -11  -6 94.7802 499.622   2
   9  11  -5 527.494 179.094   4
  -9  11   5 550.739 453.416   1
  -9 -11  -5 554.289 503.463   2
  -9  11   4 882.108 516.558   1
  -9 -11  -4 1328.11 703.014   2
   9  11  -4 1585.29 240.221   4
   9  11  -3 645.739 179.201   4
  -9  11   3 505.001 451.614   1
  -9  11   2 1785.78 603.156   1
   9  11  -2 2289.81 246.186   4
   9  11  -1 8039.14 398.277   4
  -9  11   1 7130.87 1086.17   1
  -9  11   0 1058.26 495.269   1
   9  11   0 1257.84 203.747   4
  -9  11  -1 6914.77 1044.32   1
   9  11   1 7405.29 374.320   4
   9  11   2 1951.96 217.498   4
  -9  11  -2 1851.44 573.519   1
  -9  11  -3 396.681 354.856   1
  -9  11  -4 973.903 447.674   1
   9 -11 -11-126.076 177.031   7
  -9  11 -14 1017.51 115.850   3
  -9  11 -15 147.194 71.4044   3
  -9  11 -16 45.7405 56.7318   3
  -9  11 -17 214.713 251.629   6
  -9  11 -18 49.7405 203.994   6
   9  12 -15 153.077 93.4079   4
   9  12 -14 610.361 147.372   4
   9  12 -13 326.901 133.705   4
   9  12 -12 55.5528 132.955   4
   9  12 -11 1015.69 182.435   4
   9  12 -10 245.389 157.223   4
   9  12  -9 289.228 157.291   4
   9  12  -8 769.711 190.692   4
   9  12  -7 313.950 165.496   4
   9  12  -6 811.070 189.153   4
   9  12  -5 7160.92 388.260   4
  -9 -12  -4 6947.21 1299.06   2
   9  12  -4 6641.99 389.846   4
  -9  12   4 4889.97 992.907   1
   9  12  -3 4567.59 319.101   4
  -9  12   3 3149.31 791.231   1
   9  12  -2 3556.72 298.620   4
  -9  12   2 2899.61 761.582   1
  -9  12   1 2810.77 718.957   1
   9  12  -1 4051.80 300.598   4
   9  12   0 565.606 163.773   4
  -9  12   0 708.241 465.526   1
  -9  12  -1 3185.23 750.050   1
   9  12   1 3564.78 274.784   4
  -9  12  -2 2835.67 706.759   1
   9  12   2 3135.70 259.276   4
  -9  12  -3 3053.62 699.624   1
   9 -12 -10 13.6191 178.060   7
   9 -12 -11 87.8577 181.460   7
  -9  12 -16-6.69834 237.796   6
  -9  12 -17 117.860 212.436   6
  -9  12 -19 56.4186 133.401   6
   9  13 -15 98.9276 79.7177   4
   9  13 -14 718.424 124.996   4
   9  13 -13 324.322 118.813   4
   9  13 -12 548.693 137.802   4
   9  13 -11 151.130 136.362   4
   9  13 -10 249.573 144.151   4
   9  13  -9 294.206 157.490   4
   9  13  -8 934.400 198.026   4
   9  13  -7 1004.25 204.631   4
   9  13  -6 321.579 168.172   4
   9  13  -5 3796.66 305.075   4
   9  13  -4 3977.32 307.659   4
   9  13  -3 480.745 188.802   4
   9  13  -2 3227.02 281.925   4
   9  13  -1 2064.28 234.061   4
   9  13   0 85.5990 140.929   4
   9  13   1 2033.09 233.828   4
   9 -13  -8-25.2344 215.786   7
   9 -13  -9 22.5129 200.384   7
   9 -13 -10-15.3530 170.220   7
   9 -13 -11 85.2734 162.886   7
  -9  13 -14 77.9346 256.371   6
  -9  13 -15 14.8122 227.036   6
  -9  13 -16 187.484 222.985   6
  -9  13 -18-131.358 147.309   6
   9  14 -15 21.7422 63.3299   4
   9  14 -14 277.581 93.4557   4
   9  14 -13 272.451 103.072   4
   9  14 -12 636.673 131.793   4
   9  14 -11 672.966 150.552   4
   9  14 -10 51.4059 128.118   4
   9  14  -9-7.55575 123.856   4
   9  14  -8 1109.78 198.634   4
   9  14  -7 409.301 164.742   4
   9  14  -6 109.812 150.221   4
   9  14  -5 106.174 142.070   4
   9  14  -4 413.072 163.313   4
   9  14  -3 131.565 151.015   4
   9  14  -2 2674.20 256.408   4
   9  14  -1 4072.66 287.810   4
   9  14   0 1175.98 183.005   4
   9  14   1 3675.26 265.078   4
   9 -14  -7-16.2930 217.626   7
   9 -14  -8 49.1028 210.597   7
   9 -14  -9 40.4369 191.495   7
   9 -14 -10 0.95302 170.294   7
   9 -14 -11-31.2490 143.542   7
  -9  14 -12-95.4326 252.094   6
  -9  14 -13 83.1214 239.556   6
  -9  14 -14 26.8795 220.443   6
  -9  14 -15-80.3248 202.992   6
  -9  14 -16-4.82807 169.956   6
  -9  14 -17 165.825 153.979   6
   9  15 -14 879.213 104.237   4
   9  15 -13 422.205 106.616   4
   9  15 -12 94.4820 102.914   4
   9  15 -11 622.804 129.382   4
   9  15 -10 453.190 129.607   4
   9  15  -9 349.020 139.168   4
   9  15  -8 343.919 139.197   4
   9  15  -7 793.311 165.379   4
   9  15  -6 501.455 160.331   4
   9 -15   6 7.51911 182.271   7
   9  15  -5 1012.93 183.584   4
   9 -15   5 45.4765 212.655   7
   9  15  -4 1810.53 224.824   4
   9  15  -3 303.190 156.015   4
   9  15  -2 3017.73 247.916   4
   9  15  -1 4463.22 288.956   4
   9  15   0 162.857 132.859   4
   9  15   1 3577.08 258.945   4
   9 -15  -4 97.1457 266.757   7
   9 -15  -5 35.3807 218.039   7
   9 -15  -6-6.35302 204.802   7
   9 -15  -7 11.0104 201.030   7
  -9  15  -7-69.3382 254.324   6
   9 -15  -8-81.9003 194.021   7
  -9  15  -8-66.2128 247.688   6
   9 -15  -9 8.41116 169.901   7
  -9  15  -9 4.88807 254.406   6
   9 -15 -10-32.0039 155.643   7
  -9  15 -10 69.4410 239.545   6
   9 -15 -11-15.4439 124.208   7
  -9  15 -11-92.0052 233.682   6
  -9  15 -12-36.0327 214.675   6
  -9  15 -13 86.7749 208.377   6
  -9  15 -15-173.008 171.980   6
  -9  15 -16 310.727 146.200   6
   9  16 -13 117.512 70.0407   4
   9  16 -12 350.756 101.663   4
   9  16 -11 77.5377 89.3322   4
   9  16 -10 294.463 113.546   4
   9  16  -9 144.040 111.090   4
   9  16  -8 207.783 120.594   4
   9  16  -7 265.628 127.491   4
   9  16  -6 322.986 139.922   4
   9 -16   6-13.7226 176.962   7
   9 -16   5 35.5626 176.334   7
   9  16  -5 1760.45 198.868   4
   9 -16   4 37.6689 196.548   7
   9  16  -4 2976.45 233.926   4
   9 -16   3 175.588 213.123   7
   9  16  -3 1128.49 174.579   4
   9 -16   2 47.4755 209.431   7
   9  16  -2 1331.69 180.593   4
   9 -16   1 32.5460 204.171   7
   9  16  -1 328.700 133.453   4
   9 -16   0 108.421 218.263   7
   9  16   0 53.9082 115.741   4
   9 -16  -1 18.2260 213.555   7
   9 -16  -2-10.9017 209.726   7
   9 -16  -3 2.45746 207.591   7
   9 -16  -4 58.1584 215.831   7
   9 -16  -5-40.6944 207.275   7
   9 -16  -6 14.7118 198.614   7
   9 -16  -7 31.1061 194.018   7
   9 -16  -8 13.9458 177.056   7
   9 -16  -9-77.7871 164.820   7
  -9  16  -9-64.4291 205.327   6
   9 -16 -10-19.1907 135.840   7
  -9  16 -10 175.657 213.979   6
  -9  16 -11 45.8947 187.663   6
  -9  16 -12-99.7803 178.670   6
  -9  16 -13 37.8309 166.433   6
  -9  16 -14 167.045 142.888   6
   9  17 -12 242.754 70.4160   4
   9  17 -11 1327.69 126.400   4
   9  17 -10 828.869 117.180   4
   9  17  -9 910.121 134.830   4
   9  17  -8 726.618 129.884   4
   9  17  -7 315.208 115.707   4
   9  17  -6 9.78779 111.367   4
   9 -17   5 12.5643 150.480   7
   9  17  -5 594.131 141.709   4
   9 -17   4 57.6114 177.642   7
   9  17  -4 168.245 119.468   4
   9 -17   3-11.4218 178.054   7
   9  17  -3 216.101 115.498   4
   9 -17   2 1654.37 243.992   7
   9  17  -2 1495.42 176.911   4
   9 -17   1 95.9709 207.740   7
   9  17  -1 2386.29 197.469   4
   9 -17   0-5.67015 193.971   7
   9  17   0-53.5588 98.6696   4
   9 -17  -1 71.6744 267.848   7
   9 -17  -2 76.6380 197.227   7
   9 -17  -3-176.744 197.669   7
   9 -17  -4-32.5906 186.384   7
   9 -17  -5 80.6082 204.684   7
   9 -17  -6-11.9813 181.184   7
   9 -17  -7 52.7908 168.186   7
   9 -17  -8 18.5944 149.556   7
   9 -17  -9 22.0411 121.576   7
   9 -17 -10 45.4800 107.959   7
   9  18 -11 663.468 77.3847   4
   9  18 -10 458.305 79.7495   4
   9  18  -9 62.1500 77.8303   4
   9  18  -8 525.079 102.761   4
   9  18  -7 203.903 93.7979   4
   9  18  -6 95.8456 94.8956   4
   9  18  -5 315.729 107.882   4
   9 -18   4 689.129 208.320   7
   9  18  -4 303.042 110.903   4
   9 -18   3-49.1040 149.080   7
   9  18  -3-63.4672 97.1135   4
   9 -18   2 51.5471 159.165   7
   9  18  -2 90.9307 92.8790   4
   9 -18   1 3.96665 154.773   7
   9  18  -1 430.317 100.718   4
   9 -18   0 3.12796 170.539   7
   9 -18  -1 124.862 173.356   7
   9 -18  -2 68.6106 171.281   7
   9 -18  -3-4.32194 164.931   7
   9 -18  -4-4.48932 160.769   7
   9 -18  -5-23.1380 157.951   7
   9 -18  -6-194.628 160.306   7
   9 -18  -7 8.81124 136.825   7
   9 -18  -8 74.9659 131.572   7
   9 -18  -9 75.3488 103.370   7
   9  19  -8 432.495 78.0206   4
   9  19  -7 304.537 76.8512   4
   9  19  -6 238.125 85.2834   4
   9  19  -5 632.494 98.6876   4
   9 -19   4-6.94386 93.5967   7
   9  19  -4 565.124 95.5031   4
   9 -19   3-21.9013 118.953   7
   9  19  -3 127.311 75.6376   4
   9 -19   2 34.5057 130.471   7
   9  19  -2 397.225 81.3944   4
   9 -19   1 2646.95 241.092   7
   9 -19   0 3.13953 145.232   7
   9 -19  -1-82.0217 154.409   7
   9 -19  -2 116.460 203.354   7
   9 -19  -3-41.1991 138.814   7
   9 -19  -4 17.4732 128.333   7
   9 -19  -5-60.7216 134.499   7
   9 -19  -6-4.84112 117.269   7
   9 -19  -7 3.31215 104.759   7
   9 -20   1 42.7566 101.684   7
   9 -20   0-18.6096 104.732   7
   9 -20  -1 24.0996 109.955   7
   9 -20  -2 299.075 118.484   7
   9 -20  -3-79.1368 110.353   7
   9 -20  -4-39.8787 94.9932   7
 -10   0   0 2442.56 625.330   1
  10   0   0 2716.92 250.635   4
 -10   0  -1 28236.6 1739.67   1
 -10   0   1 28497.7 1923.97   1
  10   0  -1 29806.2 647.598   5
  10   0  -1 30310.7 679.866   4
 -10   0  -2 24280.3 1501.40   1
  10   0  -2 26890.7 643.212   5
  10   0  -2 26604.4 675.634   4
 -10   0  -2 27380.0 1481.91   2
 -10   0  -3-30.8157 259.886   2
  10   0  -3 99.7440 127.699   5
  10   0  -3 132.537 143.934   4
  10   0  -4 4111.21 284.657   5
  10   0  -4 4222.48 280.696   4
 -10   0  -4 4020.66 662.583   2
 -10   0  -5 608.953 371.747   2
  10   0  -5 609.486 148.438   5
  10   0  -5 755.113 177.440   4
 -10   0  -6 2060.07 550.960   2
  10   0  -6 1945.53 241.314   5
  10   0  -6 1878.32 241.570   4
  10   0  -7 4803.09 315.580   5
  10   0  -7 5113.67 323.170   4
 -10   0  -7 5150.95 801.641   2
  10   0  -8 6260.98 366.167   5
  10   0  -8 7036.46 376.581   4
 -10   0  -8 6862.17 961.030   2
 -10   0  -9-70.9674 318.211   2
  10   0  -9 125.823 198.800   5
  10   0  -9 26.9680 160.683   4
 -10   0 -10 22.7375 299.530   2
  10   0 -10 98.4277 142.042   5
  10   0 -10 8.05225 143.004   4
 -10   0 -11 63.1696 313.475   2
  10   0 -11 1076.05 215.446   5
 -10   0 -12 1889.67 619.392   2
  10   0 -12 1059.93 206.351   5
 -10   0  12 1452.83 770.043   1
  10   0 -13 369.760 145.721   5
 -10   0 -15 63.7984 146.103   3
 -10   0 -16 187.842 140.831   3
 -10   0 -17 85.5478 123.262   3
 -10   0 -18 2274.82 206.567   3
 -10   0 -19 46.9242 95.3778   3
 -10   0 -20 354.152 97.6282   3
 -10   0 -21 479.587 82.2956   3
 -10  -1 -21 16.0345 57.7550   3
 -10  -1 -20 606.875 104.346   3
 -10  -1 -19 569.683 120.601   3
 -10  -1 -18 109.469 111.310   3
 -10  -1 -17 1603.33 199.833   3
 -10  -1 -16 549.393 162.769   3
 -10  -1 -15 755.889 181.563   3
  10   1 -13 174.680 134.911   5
 -10  -1 -12 287.713 362.570   2
  10   1 -12 71.9271 151.210   5
 -10   1  12 137.417 489.176   1
  10   1 -12 53.3348 137.420   4
 -10  -1 -11 155.778 338.762   2
 -10   1  11-9.87022 514.563   1
  10   1 -11 534.862 175.470   5
  10   1 -11 319.860 186.706   4
 -10   1  10 291.648 514.413   1
 -10  -1 -10 365.713 365.504   2
  10   1 -10 174.986 157.683   5
  10   1 -10 199.090 158.212   4
 -10  -1  -9 871.996 447.975   2
 -10   1   9 708.295 542.828   1
  10   1  -9 627.094 181.618   5
  10   1  -9 322.412 176.222   4
 -10  -1  -8 1832.92 552.937   2
  10   1  -8 1860.28 237.030   5
 -10   1   8 1498.65 709.160   1
  10   1  -8 2424.22 244.856   4
 -10  -1  -7 584.545 351.992   2
  10   1  -7 656.717 179.187   5
  10   1  -7 819.111 175.151   4
 -10  -1  -6 1472.62 489.512   2
  10   1  -6 1376.90 209.557   5
  10   1  -6 1482.84 230.415   4
 -10   1   5 5018.84 990.527   1
  10   1  -5 5537.13 310.940   5
  10   1  -5 5564.34 328.996   4
 -10  -1  -5 5204.10 777.727   2
 -10   1   4 2470.13 701.657   1
  10   1  -4 4099.94 290.085   4
 -10  -1  -4 2729.23 586.395   2
 -10   1   3 2230.78 685.808   1
  10   1  -3 2594.81 239.457   4
 -10  -1  -3 2735.01 552.335   2
 -10  -1  -2 10343.6 1025.26   1
 -10   1   2 13428.6 1406.30   1
  10   1  -2 12670.3 445.273   5
  10   1  -2 12875.8 473.115   4
 -10  -1  -2 13001.1 1040.49   2
 -10   1   1 13208.3 1302.84   1
 -10  -1  -1 11718.4 1158.61   1
  10   1  -1 11789.1 434.495   5
  10   1  -1 12788.0 452.169   4
 -10   1   0 3030.34 658.348   1
  10   1   0 3074.58 268.856   4
 -10   1  -1 11881.5 1123.44   1
  10  -1  -1 11984.3 432.200   5
 -10   1  -2 11799.7 1069.12   1
  10  -1  -2 12934.1 442.608   5
  10  -1  -3 2685.98 240.435   5
  10  -1  -3 2966.28 249.739   4
 -10   1  -3 2757.06 545.923   2
  10  -1  -4 2771.11 253.822   5
  10  -1  -4 2948.97 267.082   4
 -10   1  -4 2770.85 556.334   2
  10  -1  -5 5569.56 322.344   5
  10  -1  -5 5738.30 326.015   4
 -10   1  -5 5387.78 754.675   2
 -10   1  -6 1376.14 472.465   2
  10  -1  -6 1264.67 192.805   5
  10  -1  -6 1528.03 209.269   4
 -10   1  -7 782.469 397.045   2
  10  -1  -7 631.660 176.453   5
  10  -1  -7 693.545 172.811   4
 -10   1  -8 1886.99 560.019   2
  10  -1  -8 3576.00 314.707   5
 -10   1  -9 702.759 395.902   2
  10  -1  -9 656.594 183.653   5
 -10   1 -10 374.957 444.827   2
  10  -1 -10 123.147 147.468   5
 -10   1 -11-107.632 351.634   2
  10  -1 -11 98.6217 154.728   5
 -10   1 -12 75.3143 395.294   2
  10  -1 -12 3.32168 139.620   5
 -10   1 -14 1935.89 235.835   3
 -10   1 -15 805.818 179.697   3
 -10   1 -16 801.365 190.113   3
 -10   1 -17 1614.55 196.831   3
 -10   1 -18 77.9960 108.859   3
 -10   1 -19 559.973 122.210   3
 -10   1 -20 544.059 101.480   3
 -10   1 -21 232.137 77.5158   3
 -10  -2 -20 667.077 102.601   3
 -10  -2 -19 574.799 120.524   3
 -10  -2 -18 372.649 130.889   3
 -10  -2 -17 3729.53 264.528   3
 -10  -2 -16 1293.93 212.104   3
 -10  -2 -15 1408.39 242.052   3
 -10  -2 -14 835.106 207.285   3
  10   2 -13 176.070 149.113   5
  10   2 -13 476.124 158.378   4
 -10  -2 -12-32.9313 338.858   2
 -10   2  12-104.336 442.896   1
  10   2 -12 336.346 179.591   4
 -10   2  11 653.155 637.659   1
 -10  -2 -11 609.733 408.969   2
  10   2 -11 842.581 195.020   5
  10   2 -11 879.428 192.143   4
 -10  -2 -10 2181.60 624.591   2
 -10   2  10 1991.26 800.539   1
  10   2 -10 2081.40 232.080   5
  10   2 -10 2198.56 243.437   4
 -10  -2  -9 176.501 362.856   2
 -10   2   9 256.101 496.884   1
  10   2  -9 62.8770 138.615   5
  10   2  -9 103.620 152.946   4
 -10  -2  -8 808.014 430.703   2
 -10   2   8 1096.33 639.800   1
  10   2  -8 1242.36 222.245   4
 -10   2   7 4692.27 1056.56   1
  10   2  -7 4768.87 322.551   4
 -10  -2  -7 4568.93 794.425   2
 -10  -2  -6 1033.29 441.752   2
  10   2  -6 1062.37 187.792   4
 -10   2   6 585.148 490.875   1
 -10   2   5 6297.77 1172.57   1
  10   2  -5 7113.31 366.463   4
 -10  -2  -5 6853.22 889.498   2
 -10   2   4 5267.04 1021.24   1
  10   2  -4 5896.89 323.345   4
 -10  -2  -4 5783.61 766.541   2
 -10   2   3 300.229 436.211   1
 -10  -2  -3 311.762 320.061   2
  10  -2   3 175.856 119.216   5
  10   2  -3 463.416 165.709   4
 -10   2   2 6962.53 1022.77   1
  10  -2   2 7156.31 345.114   5
  10   2  -2 7101.94 352.446   4
 -10  -2  -2 6670.52 785.745   2
 -10   2   1 840.929 441.116   1
  10  -2   1 822.798 164.158   5
  10   2  -1 801.341 159.263   4
  10  -2   0 139.021 153.030   5
  10   2   0-1.13682 123.105   4
 -10   2   0 1.96329 294.423   1
  10  -2  -1 924.142 182.049   5
 -10   2  -1 773.443 410.055   1
  10   2   1 801.032 159.751   4
 -10   2  -2 5948.78 787.746   1
  10  -2  -2 7319.25 350.175   5
  10   2   2 6513.79 333.840   4
 -10   2  -3 325.628 295.644   2
  10  -2  -3 474.403 145.412   5
  10  -2  -4 6196.90 321.844   5
 -10   2  -4 5681.64 749.152   2
  10  -2  -5 6793.60 359.015   5
 -10   2  -5 6662.80 835.872   2
 -10   2  -6 708.398 391.108   2
  10  -2  -6 2295.91 230.848   5
  10  -2  -7 4678.82 324.974   5
 -10   2  -7 4307.82 730.959   2
 -10   2  -8 1043.61 467.761   2
  10  -2  -8 1923.62 265.994   5
 -10   2  -9 71.1567 283.303   2
  10  -2  -9 177.458 167.326   5
 -10   2 -10 1928.13 572.758   2
  10  -2 -10 2128.91 249.422   5
 -10   2 -11 480.030 371.572   2
  10  -2 -11 822.810 198.815   5
 -10   2 -12 176.511 309.618   2
  10  -2 -12 127.238 165.345   5
 -10   2 -14 754.830 178.064   3
 -10   2 -15 2050.61 226.679   3
 -10   2 -16 1869.77 209.939   3
 -10   2 -17 3575.34 259.250   3
 -10   2 -18 322.553 122.881   3
 -10   2 -19 554.938 118.632   3
 -10   2 -20 748.654 112.066   3
 -10   2 -21 141.667 68.0813   3
 -10  -3 -20 1627.70 141.799   3
 -10  -3 -19 212.534 95.3693   3
 -10  -3 -18 707.032 140.731   3
 -10  -3 -17 851.705 162.387   3
 -10  -3 -16 178.127 143.664   3
 -10  -3 -15 583.574 330.716   3
 -10  -3 -14 1075.79 264.641   3
  10   3 -13 858.072 182.731   5
  10   3 -13 1176.34 202.228   4
 -10   3  12 738.365 600.627   1
 -10  -3 -12 1230.22 534.646   2
  10   3 -12 380.976 196.838   5
  10   3 -12 1137.52 211.851   4
 -10  -3 -11 908.359 522.499   2
 -10   3  11 560.748 567.511   1
  10   3 -11 442.693 180.767   5
  10   3 -11 853.461 191.178   4
 -10  -3 -10 825.883 464.210   2
 -10   3  10 1102.00 617.448   1
  10   3 -10 1286.54 217.863   4
 -10  -3  -9 470.780 386.129   2
 -10   3   9 145.900 415.763   1
  10   3  -9 445.864 173.129   4
 -10   3   8 4630.32 1075.02   1
  10   3  -8 6141.26 380.434   4
 -10  -3  -8 5135.33 883.334   2
 -10   3   7 5581.70 1091.96   1
  10   3  -7 6533.07 355.396   4
 -10  -3  -7 5773.52 887.445   2
 -10  -3  -6 1955.89 548.122   2
 -10   3   6 1816.22 680.026   1
  10   3  -6 1989.92 237.783   4
 -10  -3  -5 1103.93 451.222   2
 -10   3   5 929.592 496.935   1
  10   3  -5 1227.62 230.072   4
 -10  -3  -4 658.172 362.102   2
 -10   3   4 780.341 459.305   1
  10  -3   4 48.8712 166.982   5
  10   3  -4 625.133 162.418   4
 -10   3   3 374.468 392.518   1
 -10  -3  -3 182.789 304.838   2
  10  -3   3 499.970 172.520   5
  10   3  -3 310.017 141.667   4
 -10   3   2 4124.07 801.276   1
  10  -3   2 4899.61 316.374   5
  10   3  -2 4188.66 282.286   4
 -10  -3  -2 3867.90 649.711   2
 -10   3   1 12755.5 1274.24   1
  10  -3   1 12529.7 449.000   5
  10   3  -1 11444.4 451.686   4
 -10  -3  -1 12060.8 1067.99   2
 -10   3   0 2115.09 587.453   1
  10  -3   0 2714.63 265.205   5
  10   3   0 2108.59 217.982   4
 -10   3  -1 11037.9 1130.78   1
  10  -3  -1 13068.2 455.229   5
  10   3   1 10692.5 433.742   4
 -10   3  -2 3429.93 633.872   1
  10  -3  -2 4690.75 292.608   5
  10   3   2 3463.85 268.243   4
  10  -3  -3 364.320 146.605   5
  10   3   3 226.177 131.845   4
 -10   3  -4 610.276 336.177   2
  10  -3  -4 713.121 173.305   5
 -10   3  -5 1026.14 376.651   2
  10  -3  -5 1272.74 197.100   5
 -10   3  -6 1615.23 479.504   2
  10  -3  -6 2080.47 243.027   5
  10  -3  -7 6580.22 360.093   5
 -10   3  -7 5866.82 845.433   2
  10  -3  -8 5905.47 356.982   5
 -10   3  -8 4972.92 794.550   2
 -10   3  -9 224.521 290.194   2
  10  -3  -9 232.109 173.572   5
  10  -3 -10 1326.84 219.726   5
 -10   3 -10 886.940 411.192   2
  10  -3 -11 444.577 206.399   5
  10  -3 -12-18.6756 153.430   5
 -10   3 -14 2736.99 265.757   3
 -10   3 -15 609.810 162.734   3
 -10   3 -16 288.231 135.099   3
 -10   3 -17 861.181 155.384   3
 -10   3 -18 639.069 132.186   3
 -10   3 -19 199.647 95.4355   3
 -10   3 -20 1369.74 129.321   3
 -10   3 -21 110.476 63.1314   3
 -10  -4 -18 1170.94 145.932   3
 -10  -4 -17 2687.97 219.581   3
 -10  -4 -16 1048.36 179.943   3
 -10  -4 -15 2723.00 292.770   3
  10   4 -14 1671.06 190.502   5
 -10  -4 -14 2142.38 275.117   3
  10   4 -14 1707.73 215.879   4
  10   4 -13 531.918 158.486   5
  10   4 -13 687.591 174.145   4
  10   4 -12 114.579 148.958   5
  10   4 -12 332.713 164.688   4
 -10  -4 -11 398.159 402.979   2
 -10   4  11 269.938 453.135   1
  10   4 -11 245.032 163.572   4
 -10   4  10 929.766 604.290   1
 -10  -4 -10 808.016 445.427   2
  10   4 -10 1229.51 218.938   4
 -10   4   9 1446.02 675.068   1
 -10  -4  -9 1639.07 571.944   2
  10   4  -9 2102.86 262.277   4
 -10   4   8 1225.31 680.588   1
 -10  -4  -8 1176.30 496.607   2
  10   4  -8 1531.02 221.622   4
 -10   4   7 2398.20 766.958   1
  10   4  -7 3123.44 265.806   4
 -10  -4  -7 2792.16 657.329   2
 -10   4   6 845.425 552.977   1
 -10  -4  -6 788.140 429.029   2
  10   4  -6 787.028 193.665   4
 -10   4   5 2293.36 709.837   1
  10   4  -5 2702.26 267.581   4
 -10  -4  -5 2652.03 625.331   2
 -10  -4  -4 2536.71 616.970   2
 -10   4   4 2508.75 718.649   1
  10   4  -4 2524.68 246.442   4
 -10  -4  -3 198.424 319.145   2
 -10   4   3 319.052 380.206   1
  10   4  -3 348.072 146.086   4
 -10  -4  -2 1616.84 496.914   2
  10  -4   2 494.831 162.224   5
 -10   4   2 1664.35 583.676   1
  10   4  -2 1702.33 200.334   4
 -10  -4  -1 2971.33 620.366   2
 -10   4   1 2453.60 614.928   1
  10  -4   1 3547.94 265.733   5
  10   4  -1 2749.41 242.479   4
 -10   4   0 99.8808 314.172   1
  10  -4   0 146.719 144.144   5
  10   4   0 38.6362 133.486   4
 -10   4  -1 2691.87 620.975   1
  10  -4  -1 3486.03 266.162   5
  10   4   1 2686.77 240.535   4
  10  -4  -2 2049.13 222.492   5
  10   4   2 1515.10 189.117   4
 -10   4  -2 1551.21 498.374   1
 -10   4  -3 401.507 337.844   1
  10  -4  -3 462.846 166.313   5
  10   4   3 276.366 134.573   4
  10  -4  -4 3204.23 275.142   5
  10  -4  -5 2836.28 278.422   5
  10  -4  -6 766.074 186.823   5
  10  -4  -7 3444.83 303.475   5
  10  -4  -8 1772.51 252.375   5
  10  -4  -9 1328.77 269.942   5
  10  -4 -10 376.021 183.347   5
  10  -4 -12 39.4795 156.724   5
 -10   4 -14 2497.69 242.522   3
 -10   4 -15 3156.32 247.706   3
 -10   4 -16 1102.64 171.194   3
 -10   4 -17 2368.44 204.937   3
 -10   4 -18 1127.66 153.813   3
 -10   4 -19 863.725 121.073   3
 -10   4 -20 1128.68 114.587   3
 -10   4 -21 154.231 59.6943   3
 -10  -5 -17 3827.49 236.863   3
 -10  -5 -16 1876.95 203.380   3
 -10  -5 -15 392.876 160.387   3
  10   5 -14 2126.29 208.856   5
  10   5 -14 2276.81 235.965   4
  10   5 -13 95.5992 137.782   5
  10   5 -13 150.778 146.617   4
  10   5 -12 395.710 161.824   4
 -10  -5 -11 251.660 386.069   2
 -10   5  11 392.013 517.763   1
  10   5 -11 594.727 202.569   4
 -10  -5 -10 605.629 441.169   2
 -10   5  10 474.412 540.214   1
  10   5 -10 893.134 297.979   4
 -10  -5  -9 1636.65 578.543   2
 -10   5   9 1300.19 646.183   1
  10   5  -9 1618.42 220.132   4
 -10   5   8 3384.62 890.128   1
  10   5  -8 3779.39 285.343   4
 -10  -5  -8 3025.42 753.094   2
 -10   5   7 5080.15 1024.92   1
  10   5  -7 5916.30 354.443   4
 -10  -5  -7 5866.80 969.521   2
 -10  -5  -6 1310.72 482.753   2
 -10   5   6 992.369 559.768   1
 -10  -5  -5 2354.09 629.271   2
 -10   5   5 2290.78 706.200   1
  10   5  -5 2625.94 247.428   4
 -10  -5  -4 648.274 412.659   2
 -10   5   4 637.886 451.478   1
  10  -5   4-133.721 167.347   5
  10   5  -4 637.151 197.871   4
 -10   5   3 1114.91 506.535   1
 -10  -5  -3 1684.38 580.051   2
  10   5  -3 1258.96 208.319   4
 -10  -5  -2 7114.81 965.153   2
 -10   5   2 5775.08 969.650   1
  10   5  -2 6460.59 345.193   4
 -10  -5  -1 5985.17 859.764   2
 -10   5   1 5395.74 908.545   1
  10   5  -1 5594.31 315.274   4
 -10   5   0 90.3013 302.040   1
 -10  -5   0-65.6202 336.218   2
  10   5   0 73.8979 127.843   4
 -10   5  -1 5233.03 830.214   1
  10   5   1 5296.66 314.839   4
 -10   5  -2 5760.95 870.305   1
  10   5   2 5593.27 326.690   4
 -10   5  -3 1026.05 436.971   1
  10  -5  -3 1648.84 246.780   5
  10   5   3 981.081 185.162   4
  10  -5  -4 892.662 214.530   5
  10  -5  -5 3517.25 304.074   5
  10  -5  -6 1525.21 238.350   5
  10  -5  -7 2083.83 281.911   5
  10  -5 -12-112.894 165.959   5
 -10   5 -13 339.669 151.246   3
 -10   5 -14 2727.66 243.998   3
 -10   5 -15 270.964 136.937   3
 -10   5 -16 1664.31 188.447   3
 -10   5 -17 3829.21 236.372   3
 -10   5 -18 27.7393 92.5281   3
 -10   5 -19 373.936 93.4188   3
 -10   5 -20 119.005 184.556   6
 -10   5 -20 348.855 80.4344   3
 -10   5 -21 59.9322 50.9759   3
 -10  -6 -15 916.417 172.162   3
  10   6 -15 625.477 141.653   4
  10   6 -14 3743.12 257.266   5
  10   6 -14 4406.81 293.750   4
  10   6 -13 271.195 143.459   5
 -10  -6 -13 304.952 172.234   3
  10   6 -13 159.659 149.947   4
  10   6 -12 1617.09 244.605   4
  10   6 -11 802.988 183.847   4
 -10   6  10 455.994 467.431   1
 -10  -6 -10 439.610 445.853   2
  10   6 -10 833.281 224.864   4
 -10   6   9 759.314 584.948   1
 -10  -6  -9 562.228 433.915   2
  10   6  -9 695.737 180.088   4
 -10   6   8 8972.94 1383.89   1
  10   6  -8 11924.1 481.669   4
 -10  -6  -8 11116.0 1329.28   2
 -10  -6  -7 4700.80 896.804   2
 -10   6   7 4142.84 942.636   1
  10   6  -7 4669.51 307.775   4
 -10   6   6 494.914 484.103   1
 -10  -6  -6 870.599 509.425   2
  10   6  -6 824.415 188.192   4
 -10   6   5 362.974 421.411   1
 -10  -6  -5 505.034 414.972   2
  10  -6   5 45.9924 166.718   5
  10   6  -5 444.948 168.312   4
 -10   6   4 539.928 413.604   1
 -10  -6  -4 528.712 423.489   2
  10  -6   4 45.1987 170.502   5
  10   6  -4 435.792 162.809   4
 -10   6   3 305.586 390.897   1
 -10  -6  -3 518.170 422.910   2
  10   6  -3 91.2171 130.428   4
 -10  -6  -2 5578.46 900.849   2
 -10   6   2 4902.70 897.000   1
  10   6  -2 5403.94 322.604   4
 -10  -6  -1 8599.53 1108.85   2
 -10   6   1 6880.61 1036.88   1
  10   6  -1 8538.42 386.234   4
 -10  -6   0 278.383 381.871   2
  10  -6   0-85.1562 168.837   5
 -10   6   0 381.421 403.139   1
 -10   6  -1 7986.26 1034.27   1
  10   6   1 7931.53 374.978   4
  10   6   2 4552.83 294.403   4
 -10   6  -2 4723.27 786.563   1
 -10   6  -3 368.339 333.880   1
  10  -6  -3-36.0847 172.563   5
  10   6   3 233.677 133.313   4
  10  -6  -4 4735.23 435.554   5
  10  -6  -5-187.458 189.480   5
  10  -6  -6 194.470 186.786   5
  10  -6  -8 4.69572 171.706   5
  10  -6 -10-54.6079 179.876   5
 -10   6 -12 1870.20 207.205   3
 -10   6 -13 213.444 133.110   3
 -10   6 -14 5168.81 298.484   3
 -10   6 -15 984.501 154.787   3
 -10   6 -16 2083.98 190.436   3
 -10   6 -17 1347.41 152.559   3
 -10   6 -18 378.546 101.621   3
 -10   6 -19 92.8429 76.9692   3
 -10   6 -20-48.6148 178.362   6
 -10   6 -20 297.421 72.5469   3
  10   7 -15 505.938 135.981   4
  10   7 -14 1665.82 184.640   5
  10   7 -14 1978.73 214.485   4
  10   7 -13 1405.71 219.598   4
  10   7 -12 287.609 165.951   4
  10   7 -11 1424.60 225.273   4
  10   7 -10 1291.09 212.068   4
 -10   7   9 240.990 451.571   1
 -10  -7  -9 127.521 361.724   2
  10   7  -9 590.725 178.281   4
 -10   7   8 840.519 546.171   1
 -10  -7  -8 1344.08 600.002   2
  10   7  -8 1471.42 212.379   4
 -10   7   7 1792.51 712.265   1
 -10  -7  -7 1781.72 643.672   2
  10   7  -7 2185.65 244.290   4
 -10   7   6 499.032 441.779   1
 -10  -7  -6 519.066 463.450   2
  10   7  -6 1738.17 242.786   4
 -10  -7  -5 4854.69 921.211   2
 -10   7   5 4585.27 938.875   1
  10   7  -5 4986.30 327.156   4
 -10  -7  -4 5041.59 946.612   2
 -10   7   4 4847.24 995.771   1
  10   7  -4 4888.20 346.625   4
 -10  -7  -3 1237.38 571.368   2
  10   7  -3 1329.92 208.758   4
 -10   7   3 1148.25 541.653   1
 -10   7   2 2338.89 674.706   1
 -10  -7  -2 2292.19 666.244   2
  10   7  -2 2666.40 246.802   4
 -10  -7  -1 1998.49 628.671   2
 -10   7   1 1524.73 514.058   1
  10   7  -1 2088.95 229.388   4
 -10  -7   0 1080.19 508.844   2
 -10   7   0 1093.06 505.048   1
  10  -7   0-71.4330 179.127   5
  10   7   0 1177.60 186.881   4
 -10   7  -1 2095.11 583.262   1
  10   7   1 1991.45 213.534   4
 -10   7  -2 1987.93 566.308   1
  10   7   2 2207.71 221.426   4
 -10   7  -3 795.551 397.362   1
  10   7   3 1392.76 222.030   4
  10  -7  -6-158.979 180.908   5
  10  -7  -7-83.0306 192.373   5
  10  -7  -8 25.0873 184.932   5
  10  -7 -11-137.828 183.889   5
 -10   7 -12 614.121 146.026   3
 -10   7 -13 1877.47 201.312   3
 -10   7 -14 2439.44 206.167   3
 -10   7 -15 589.225 131.884   3
 -10   7 -16 58.1476 96.0551   3
 -10   7 -17 812.444 121.044   3
 -10   7 -18 486.336 100.712   3
 -10   7 -19 396.351 86.9192   3
 -10   7 -20 244.162 59.5866   3
 -10   7 -20 64.0811 168.794   6
  10   8 -15 1011.73 155.788   4
  10   8 -14 286.346 128.535   5
  10   8 -14 392.947 140.120   4
  10   8 -13 213.303 152.005   4
  10   8 -12 211.160 150.616   4
  10   8 -11 888.576 191.894   4
  10   8 -10 570.973 178.705   4
 -10  -8  -9 49.2660 409.074   2
 -10   8   9 229.509 410.885   1
  10   8  -9 163.746 167.362   4
 -10  -8  -8 1501.94 603.797   2
  10   8  -8 1661.98 234.962   4
 -10   8   8 850.106 558.831   1
 -10  -8  -7 2187.24 746.984   2
  10   8  -7 2847.42 297.267   4
 -10   8   7 1999.41 703.627   1
 -10  -8  -6 2564.44 818.022   2
  10   8  -6 2156.45 244.486   4
 -10   8   6 1578.92 626.557   1
 -10  -8  -5 8321.91 1241.26   2
 -10   8   5 7119.25 1168.63   1
  10   8  -5 9120.25 431.563   4
 -10   8   4 4352.86 906.155   1
 -10  -8  -4 5242.30 984.829   2
  10   8  -4 4559.36 319.598   4
 -10  -8  -3 963.402 540.280   2
 -10   8   3 870.203 486.050   1
  10   8  -3 827.175 187.946   4
 -10   8   2 4578.74 899.502   1
 -10  -8  -2 4938.75 994.057   2
  10   8  -2 5337.50 343.338   4
 -10   8   1 2364.03 651.829   1
 -10  -8  -1 2594.50 761.506   2
  10   8  -1 2618.58 278.732   4
 -10   8   0 523.746 403.721   1
  10  -8   0-157.933 184.684   5
 -10  -8   0 518.396 443.695   2
  10   8   0 535.061 164.927   4
 -10   8  -1 2155.95 601.603   1
  10   8   1 2872.56 319.493   4
  10   8   2 8585.07 398.141   4
 -10   8  -2 4006.55 757.274   1
 -10   8  -3 768.060 392.235   1
  10   8   3 662.906 159.824   4
  10  -8  -8-457.378 205.801   5
  10  -8  -9-24.6417 194.949   5
  10  -8 -10 172.310 204.549   5
 -10   8 -11 841.825 153.446   3
 -10   8 -12 363.773 128.877   3
 -10   8 -13 348.206 122.578   3
 -10   8 -14 400.533 120.973   3
 -10   8 -15 1303.44 153.595   3
 -10   8 -16 561.932 111.470   3
 -10   8 -17 942.156 116.895   3
 -10   8 -18 217.568 73.0852   3
 -10   8 -19 276.387 63.9728   3
 -10   8 -19 157.137 207.814   6
 -10   8 -20 160.716 154.450   6
  10   9 -15 180.558 112.739   4
  10   9 -14 814.010 153.144   4
  10   9 -13 48.9509 129.313   4
  10   9 -12 208.824 141.804   4
  10   9 -11 3324.03 277.279   4
  10   9 -10 860.804 186.500   4
  10   9  -9 851.143 205.749   4
  10   9  -8 2311.45 255.654   4
 -10  -9  -7 411.837 514.783   2
 -10   9   7 209.243 427.080   1
  10   9  -7 313.882 172.559   4
 -10  -9  -6 2120.70 745.433   2
 -10   9   6 1900.50 697.620   1
  10   9  -6 2101.60 238.730   4
 -10  -9  -5 1290.02 619.807   2
 -10   9   5 1633.53 629.707   1
  10   9  -5 1823.68 231.669   4
 -10  -9  -4 1645.20 719.021   2
 -10   9   4 1615.51 582.154   1
  10   9  -4 1727.18 222.500   4
 -10   9   3 1193.07 569.432   1
 -10  -9  -3 1430.00 625.942   2
  10   9  -3 1237.04 212.978   4
 -10   9   2 2088.69 635.672   1
 -10  -9  -2 2429.98 759.327   2
  10   9  -2 2638.14 262.943   4
 -10  -9  -1 2869.62 832.421   2
  10   9  -1 3284.58 276.221   4
 -10   9   1 2807.26 699.364   1
 -10   9   0 845.909 471.117   1
  10   9   0 944.075 201.710   4
  10   9   1 2770.99 255.295   4
 -10   9  -1 2520.09 661.054   1
  10   9   2 2278.29 233.181   4
 -10   9  -2 2231.83 611.314   1
  10  -9  -3 38.2031 187.317   5
 -10   9  -3 932.515 420.967   1
  10  -9  -4-55.9578 182.542   5
  10  -9  -5 279.204 230.926   5
  10  -9  -6 6.27099 184.259   5
  10  -9  -7 299.761 228.044   5
 -10   9  -9 612.149 143.203   3
 -10   9 -10 825.498 151.982   3
 -10   9 -11 3074.21 219.941   3
 -10   9 -12 308.873 123.456   3
 -10   9 -13 120.264 104.263   3
 -10   9 -14 869.851 131.649   3
 -10   9 -15 181.212 90.8751   3
 -10   9 -16 1001.61 116.771   3
 -10   9 -17 68.8123 64.2748   3
 -10   9 -18 262.858 66.2058   3
 -10   9 -19 75.6019 182.325   6
  10  10 -15 539.989 136.728   4
  10  10 -14 1189.23 161.710   4
  10  10 -13 83.1035 119.281   4
  10  10 -12 270.365 148.441   4
  10  10 -11 1182.32 196.160   4
  10  10 -10 322.520 169.399   4
  10  10  -9 160.046 160.921   4
  10  10  -8 1209.90 221.460   4
  10  10  -7 586.417 180.169   4
  10  10  -6 182.797 167.517   4
 -10  10   6 191.879 439.200   1
 -10 -10  -6 68.1276 469.007   2
 -10  10   5 1461.63 617.519   1
 -10 -10  -5 2218.77 782.834   2
  10  10  -5 2158.15 245.205   4
 -10 -10  -4 3128.39 871.250   2
  10  10  -4 3351.61 290.037   4
 -10  10   4 2441.76 756.468   1
 -10  10   3 872.232 508.190   1
 -10 -10  -3 906.390 580.249   2
  10  10  -3 871.338 199.457   4
 -10  10   2 1574.87 624.520   1
 -10 -10  -2 1797.34 745.157   2
  10  10  -2 2962.54 304.105   4
 -10 -10  -1 3528.65 871.617   2
  10  10  -1 4142.85 310.854   4
 -10  10   1 3118.19 731.639   1
 -10  10   0 1137.80 500.655   1
  10  10   0 1424.47 225.702   4
  10  10   1 3734.41 283.413   4
 -10  10  -1 3038.58 692.853   1
  10  10   2 2078.01 239.148   4
 -10  10  -2 1147.41 470.598   1
 -10  10  -3 648.764 419.622   1
 -10  10 -10 243.889 113.749   3
  10 -10 -11-9.30372 168.229   7
 -10  10 -11 1030.88 140.033   3
 -10  10 -12 274.049 108.621   3
 -10  10 -13 134.255 97.2231   3
 -10  10 -14 1029.95 123.352   3
 -10  10 -15 353.473 84.8377   3
 -10  10 -16 126.877 65.8611   3
 -10  10 -17 444.749 68.4583   3
 -10  10 -18 318.517 206.058   6
 -10  10 -19 432.200 175.840   6
  10  11 -15 576.326 114.864   4
  10  11 -14 3021.96 212.235   4
  10  11 -13 311.395 126.967   4
  10  11 -12 674.899 149.700   4
  10  11 -11 324.337 151.137   4
  10  11 -10 471.873 162.425   4
  10  11  -9 316.903 171.093   4
  10  11  -8 1590.34 239.423   4
  10  11  -7 1758.48 229.440   4
  10  11  -6 708.757 199.712   4
  10  11  -5 2436.31 254.232   4
  10  11  -4 5285.33 355.615   4
 -10  11   3 463.759 388.546   1
 -10 -11  -3 1087.45 629.336   2
 -10 -11  -2 3166.96 906.694   2
  10  11  -2 3241.06 285.488   4
 -10  11   2 2832.51 758.528   1
 -10  11   1 811.488 431.974   1
  10  11  -1 1051.04 205.401   4
 -10  11   0 44.2296 283.862   1
  10  11   0 56.9925 142.268   4
  10  11   1 1116.29 186.737   4
 -10  11  -1 689.236 418.121   1
  10  11   2 3088.11 253.369   4
 -10  11  -2 2316.59 614.239   1
  10 -11 -11-8.87103 161.808   7
 -10  11 -17-80.7861 205.413   6
 -10  11 -18 52.7637 167.496   6
  10  12 -15 349.240 89.7949   4
  10  12 -14 699.978 128.386   4
  10  12 -13 152.822 106.478   4
  10  12 -12-16.7465 116.729   4
  10  12 -11 468.761 147.260   4
  10  12 -10 139.035 135.014   4
  10  12  -9 129.449 158.101   4
  10  12  -8 870.687 188.510   4
  10  12  -7 894.962 184.222   4
  10  12  -6 951.184 193.450   4
  10  12  -5-67.5070 152.937   4
  10  12  -4 237.007 162.206   4
  10  12  -3 1123.18 234.888   4
  10  12  -2 2136.63 245.518   4
  10  12  -1 3145.90 271.096   4
  10  12   0 808.231 173.039   4
  10  12   1 2809.72 243.231   4
  10  12   2 2044.53 219.098   4
  10 -12 -10-33.1444 176.388   7
  10 -12 -11 23.8197 147.921   7
 -10  12 -16-45.6958 206.448   6
 -10  12 -17 40.0524 172.334   6
 -10  12 -18 132.459 141.664   6
  10  13 -15 82.3645 66.9688   4
  10  13 -14 343.464 98.6143   4
  10  13 -13 729.210 127.404   4
  10  13 -12 346.980 122.422   4
  10  13 -11 1133.78 169.801   4
  10  13 -10 927.841 169.760   4
  10  13  -9 159.605 138.832   4
  10  13  -8 322.493 156.226   4
  10  13  -7 465.951 181.124   4
  10  13  -6 735.811 182.303   4
  10  13  -5 461.850 168.802   4
  10  13  -4 1335.08 204.015   4
  10  13  -3 908.264 190.314   4
  10  13  -2 2047.17 245.750   4
  10  13  -1 3006.88 268.065   4
  10  13   0 1738.35 216.620   4
  10  13   1 2403.29 237.649   4
  10 -13  -8 27.7846 206.778   7
  10 -13  -9 31.9447 186.941   7
  10 -13 -10 10.0032 165.388   7
  10 -13 -11 21.3653 141.021   7
 -10  13 -14-73.0619 234.881   6
 -10  13 -15-121.498 197.941   6
 -10  13 -16 150.253 186.645   6
 -10  13 -17-52.8214 138.778   6
  10  14 -14 430.974 86.4315   4
  10  14 -13 1239.57 122.308   4
  10  14 -12 209.472 100.431   4
  10  14 -11 247.027 115.794   4
  10  14 -10 359.883 135.081   4
  10  14  -9-15.3491 119.652   4
  10  14  -8 1307.61 189.093   4
  10  14  -7 1361.43 191.203   4
  10  14  -6-23.8966 137.167   4
  10  14  -5 3236.03 263.142   4
  10  14  -4 552.114 159.730   4
  10  14  -3 1329.50 238.029   4
  10  14  -2 3513.15 268.021   4
  10  14  -1 632.823 160.115   4
  10  14   0 227.917 143.080   4
  10  14   1 592.285 156.070   4
  10 -14  -7-6.96417 196.611   7
  10 -14  -8 137.470 250.391   7
  10 -14  -9-22.5779 165.261   7
  10 -14 -10 14.5805 141.149   7
 -10  14 -11 5.30626 238.844   6
 -10  14 -12-73.4360 232.772   6
 -10  14 -13 169.523 220.905   6
 -10  14 -14 41.3959 187.756   6
 -10  14 -15 189.528 169.942   6
 -10  14 -16 12.0132 133.756   6
  10  15 -13 471.574 89.8622   4
  10  15 -12 534.566 105.937   4
  10  15 -11 934.396 126.639   4
  10  15 -10 432.111 121.178   4
  10  15  -9 381.967 130.783   4
  10  15  -8 397.833 131.886   4
  10  15  -7 554.034 143.321   4
  10 -15   6-1.62433 163.338   7
  10  15  -6 401.596 144.917   4
  10 -15   5 84.3020 192.527   7
  10  15  -5 564.197 152.528   4
  10  15  -4 777.347 164.484   4
  10  15  -3 38.5633 120.424   4
  10  15  -2 69.8685 120.187   4
  10  15  -1 1081.95 174.665   4
  10  15   0 552.079 141.560   4
  10 -15  -4-98.1249 226.520   7
  10 -15  -5 4.80678 200.409   7
  10 -15  -6 12.6846 189.860   7
  10 -15  -7-39.3611 196.230   7
  10 -15  -8 136.227 192.394   7
 -10  15  -8-171.795 220.009   6
  10 -15  -9-24.0997 159.431   7
 -10  15  -9 90.8961 212.959   6
  10 -15 -10 4.03922 126.855   7
 -10  15 -10-323.180 232.481   6
 -10  15 -11-194.672 213.457   6
 -10  15 -12 1224.61 278.306   6
 -10  15 -13-101.128 170.084   6
 -10  15 -14 4.24298 148.434   6
  10  16 -12 170.838 75.2369   4
  10  16 -11 1129.38 123.282   4
  10  16 -10 633.455 109.869   4
  10  16  -9 141.191 101.736   4
  10  16  -8 1603.35 169.924   4
  10  16  -7 91.6899 105.176   4
  10 -16   6-17.3390 143.766   7
  10  16  -6-35.3007 115.894   4
  10 -16   5-7.18692 173.112   7
  10  16  -5 780.991 149.893   4
  10 -16   4-22.6793 175.663   7
  10  16  -4 770.215 151.264   4
  10 -16   3 108.738 190.580   7
  10  16  -3 247.742 118.009   4
  10 -16   2 50.3881 193.831   7
  10  16  -2 1013.94 156.192   4
  10 -16   1-89.0570 196.291   7
  10  16  -1 1312.52 159.681   4
  10 -16   0 97.9407 203.670   7
  10  16   0 1627.67 166.890   4
  10 -16  -1-63.0794 211.137   7
  10 -16  -2 27.5302 208.709   7
  10 -16  -3 28.3982 212.123   7
  10 -16  -4 71.4358 200.952   7
  10 -16  -5 27.0107 195.639   7
  10 -16  -6 97.0930 192.337   7
  10 -16  -7 49.1180 173.928   7
  10 -16  -8 33.8474 152.790   7
  10 -16  -9 84.3806 151.631   7
  10 -16 -10 31.1580 107.975   7
 -10  16 -10 52.5010 160.620   6
 -10  16 -11-101.787 155.513   6
 -10  16 -12 66.5774 136.532   6
  10  17 -11 297.721 73.4281   4
  10  17 -10 320.457 79.7499   4
  10  17  -9 198.964 82.2762   4
  10  17  -8 537.264 107.755   4
  10  17  -7 926.734 129.656   4
  10  17  -6 58.4183 87.9283   4
  10 -17   5 209.882 156.082   7
  10  17  -5 283.846 109.032   4
  10 -17   4-36.5898 144.933   7
  10  17  -4 311.105 112.219   4
  10 -17   3 15.2508 154.671   7
  10  17  -3 1102.32 145.557   4
  10 -17   2 9.24669 162.412   7
  10  17  -2 1240.37 146.387   4
  10 -17   1 7.00531 179.591   7
  10  17  -1 949.030 129.456   4
  10 -17   0 2491.72 337.725   7
  10 -17  -1-19.9933 180.746   7
  10 -17  -2 0.55778 183.935   7
  10 -17  -3 62.3224 189.626   7
  10 -17  -4-26.1388 177.103   7
  10 -17  -5 31.2651 159.337   7
  10 -17  -6 29.4758 151.100   7
  10 -17  -7 12.9293 140.797   7
  10 -17  -8-39.7904 120.420   7
  10 -17  -9 4.61760 97.4977   7
  10  18  -9 89.5892 59.4141   4
  10  18  -8 948.335 102.280   4
  10  18  -7 680.196 95.1873   4
  10  18  -6 718.207 108.043   4
  10  18  -5 485.841 97.0757   4
  10 -18   4 10.6010 113.541   7
  10  18  -4 453.076 99.4771   4
  10 -18   3-2.92743 129.482   7
  10  18  -3 58.0030 78.0327   4
  10 -18   2-78.8148 149.165   7
  10  18  -2 90.2474 75.2207   4
  10 -18   1 80.8812 152.512   7
  10 -18   0 24.9707 150.963   7
  10 -18  -1-25.0889 155.044   7
  10 -18  -2-22.4873 146.479   7
  10 -18  -3 322.128 164.905   7
  10 -18  -4-39.3627 138.531   7
  10 -18  -5 52.4100 133.500   7
  10 -18  -6 230.946 140.613   7
  10 -18  -7 74.8365 104.845   7
  10 -19   2 62.9944 108.861   7
  10 -19   1-94.9467 117.789   7
  10 -19   0 37.7836 114.649   7
  10 -19  -1 567.765 161.940   7
  10 -19  -2-148.951 132.736   7
  10 -19  -3 5.93024 116.273   7
  10 -19  -4-17.5229 110.144   7
  10 -19  -5-57.7113 104.786   7
 -11   0   0 16.4374 337.985   1
  11   0   0 263.226 145.078   5
 -11   0  -1 1161.06 458.276   1
 -11   0   1 1159.06 520.840   1
  11   0   1 1668.49 215.346   5
  11   0  -1 2032.05 226.935   5
  11   0   2 556.792 159.482   5
 -11   0   2 313.929 424.852   1
  11   0   3 155.619 126.351   5
  11   0  -3 185.625 148.838   5
  11   0  -3 297.754 162.377   4
 -11   0   3 235.266 403.109   1
  11   0   4 772.911 154.811   5
  11   0  -4 948.819 188.587   5
  11   0  -4 829.441 184.014   4
 -11   0   4 704.495 499.943   1
 -11   0   5 6289.47 1109.42   1
  11   0  -5 7891.39 396.908   5
  11   0  -5 7697.63 412.646   4
 -11   0  -5 6562.68 880.912   2
  11   0  -6 3516.03 297.933   5
  11   0  -6 3236.68 296.512   4
 -11   0  -6 2561.89 604.352   2
 -11   0  -7 2072.73 572.511   2
  11   0  -7 2566.83 254.213   5
  11   0  -7 2422.28 260.361   4
 -11   0  -8 431.883 366.059   2
 -11   0   8 299.505 469.941   1
  11   0  -8 591.892 192.911   5
  11   0  -8 513.325 183.775   4
 -11   0  -9 3.02778 289.165   2
 -11   0   9 60.6018 445.378   1
  11   0  -9 11.3635 138.363   5
 -11   0  10 1096.79 637.266   1
 -11   0 -10 1845.14 594.542   2
  11   0 -10 1442.00 231.070   5
  11   0 -11-29.4345 157.573   5
  11   0 -12 271.321 176.384   5
  11   0 -13 480.801 211.983   5
 -11   0 -14 619.685 177.565   3
 -11   0 -15 2382.29 238.092   3
 -11   0 -16 1185.28 175.688   3
 -11   0 -17 1566.66 180.939   3
 -11   0 -18 311.399 107.734   3
 -11   0 -19 2118.85 160.578   3
 -11   0 -20 256.255 83.1699   3
 -11  -1 -20 413.823 79.4730   3
 -11  -1 -19 330.071 95.6266   3
 -11  -1 -18 217.325 100.813   3
 -11  -1 -17 1451.43 172.230   3
 -11  -1 -16 1083.07 178.150   3
 -11  -1 -15 144.378 139.834   3
 -11  -1 -14 2213.68 243.296   3
  11   1 -13 1862.81 222.400   5
  11   1 -12 384.791 228.918   5
  11   1 -11 955.455 193.031   5
 -11  -1 -10 324.293 352.987   2
 -11   1  10 650.266 586.311   1
  11   1 -10 432.809 187.360   5
  11   1 -10 565.599 191.851   4
 -11  -1  -9 71.1811 309.435   2
  11   1  -9 322.758 191.963   5
 -11   1   9 353.877 540.952   1
  11   1  -9 359.543 190.981   4
 -11   1   8 2418.95 878.873   1
 -11  -1  -8 1744.59 557.292   2
  11   1  -8 2562.67 263.554   5
  11   1  -8 2274.86 260.040   4
 -11  -1  -7 2397.77 592.232   2
 -11   1   7 2521.65 875.842   1
  11   1  -7 2945.42 272.475   5
  11   1  -7 3347.20 293.465   4
 -11   1   6 135.722 409.224   1
 -11  -1  -6 314.021 325.957   2
  11   1  -6 345.817 185.292   5
  11   1  -6 478.487 180.042   4
 -11   1   5 3945.98 950.977   1
  11   1  -5 5007.24 319.329   5
  11   1  -5 4768.05 328.774   4
 -11  -1  -5 3416.64 656.221   2
 -11   1   4 3894.06 932.667   1
  11  -1   4 3672.61 273.833   5
  11   1  -4 4379.29 307.310   5
  11   1  -4 4279.56 317.772   4
 -11  -1  -4 3155.93 630.477   2
 -11   1   3 647.361 507.107   1
  11  -1   3 440.180 147.531   5
  11   1  -3 662.881 172.629   5
  11   1  -3 579.912 177.788   4
 -11   1   2 2493.67 710.849   1
  11  -1   2 2924.55 253.548   5
  11   1  -2 3140.34 257.515   5
  11   1  -2 2891.65 267.291   4
  11  -1   1 6459.78 356.537   5
  11   1  -1 6939.01 361.103   5
  11   1  -1 7278.52 373.506   4
 -11   1   0 1332.62 520.389   1
 -11  -1   0 1174.79 514.267   1
  11  -1   0 2449.75 232.913   5
  11   1   0 4730.57 321.242   5
  11   1   0 4038.01 329.970   4
 -11   1  -1 4583.36 812.218   1
 -11  -1   1 4452.53 934.607   1
  11  -1  -1 7236.36 363.622   5
  11   1   1 6343.27 356.246   5
  11  -1  -2 3261.35 265.507   5
  11   1   2 2638.08 232.374   5
  11   1   3 408.255 136.700   5
  11  -1  -3 653.697 169.457   5
  11   1   4 3393.21 253.639   5
  11  -1  -4 4689.22 306.490   5
  11  -1  -5 4718.37 318.567   5
 -11   1  -5 3419.85 653.624   2
 -11   1  -6 89.5231 275.800   2
  11  -1  -6 1069.04 233.376   5
  11  -1  -7 3459.12 287.984   5
 -11   1  -7 2564.55 604.292   2
 -11   1  -8 1859.46 536.280   2
  11  -1  -8 2727.88 275.699   5
 -11   1  -9 620.201 425.361   2
  11  -1  -9 469.067 166.346   5
 -11   1 -10 392.775 376.659   2
  11  -1 -10 420.896 178.094   5
  11  -1 -11 1008.16 210.073   5
  11  -1 -12 117.995 160.267   5
  11  -1 -13 2006.86 233.294   5
 -11   1 -14 2293.89 239.712   3
 -11   1 -15 146.557 132.631   3
 -11   1 -16 968.428 165.538   3
 -11   1 -17 1443.54 171.005   3
 -11   1 -18 186.602 101.888   3
 -11   1 -19 340.912 94.5755   3
 -11   1 -20 348.739 76.6133   3
 -11  -2 -20 310.254 68.8450   3
 -11  -2 -19 212.992 83.9734   3
 -11  -2 -18 1114.77 141.837   3
 -11  -2 -17 726.549 146.127   3
 -11  -2 -16 148.322 125.944   3
 -11  -2 -15 74.0320 130.881   3
  11   2 -14 757.912 154.585   5
 -11  -2 -14 1111.99 212.096   3
  11   2 -13 790.699 168.365   5
  11   2 -12 138.879 167.163   5
  11   2 -12 481.311 177.992   4
  11   2 -11 1450.75 229.774   5
  11   2 -11 1806.55 226.048   4
 -11  -2 -10 1207.97 531.710   2
  11   2 -10 1610.99 229.000   5
 -11   2  10 1570.51 735.321   1
  11   2 -10 1403.55 241.410   4
 -11  -2  -9 742.811 439.720   2
  11   2  -9 1021.53 218.278   5
  11   2  -9 907.027 230.498   4
 -11   2   9 800.246 597.982   1
 -11   2   8 2313.88 822.993   1
  11   2  -8 3467.66 299.473   5
  11   2  -8 3613.49 299.136   4
 -11  -2  -8 2726.57 660.739   2
 -11   2   7 1493.89 644.441   1
 -11  -2  -7 1576.09 507.302   2
  11   2  -7 2053.03 240.236   5
  11   2  -7 2200.94 247.842   4
 -11  -2  -6 704.140 409.715   2
  11   2  -6 1144.14 208.275   5
  11   2  -6 941.962 205.240   4
 -11   2   6 731.066 532.304   1
  11   2  -5 1632.64 213.350   5
  11   2  -5 1623.80 235.418   4
 -11   2   5 1373.67 590.642   1
 -11  -2  -5 2478.66 692.446   2
 -11  -2  -4 1486.28 490.692   2
  11  -2   4 1757.16 225.257   5
  11   2  -4 2610.52 296.647   5
 -11   2   4 1748.25 635.931   1
  11   2  -4 2409.10 318.093   4
 -11   2   3 1488.93 572.787   1
  11  -2   3 2124.39 233.850   5
  11   2  -3 1997.38 222.833   5
  11   2  -3 1946.80 239.958   4
  11  -2   2 3151.97 265.823   5
  11   2  -2 3226.73 272.681   5
  11   2  -2 3330.70 277.526   4
  11  -2   1 2511.00 256.604   5
  11   2  -1 1788.17 207.133   5
  11   2  -1 1804.42 224.935   4
 -11   2   1 1513.20 559.148   1
  11  -2   0 2631.06 246.049   5
  11   2   0 2406.09 241.318   5
 -11   2  -1 1240.66 455.648   1
  11  -2  -1 1897.87 215.806   5
  11   2   1 1876.71 206.992   5
  11   2   1 1757.83 224.216   4
  11  -2  -2 3328.43 280.692   5
  11   2   2 3084.10 250.051   5
  11  -2  -3 2091.53 225.038   5
  11   2   3 1638.24 192.862   5
  11  -2  -4 3190.81 274.597   5
  11   2   4 1364.51 179.196   5
  11  -2  -5 1761.28 219.956   5
 -11   2  -6 621.068 334.854   2
  11  -2  -6 992.296 214.809   5
 -11   2  -7 1254.96 480.493   2
  11  -2  -7 2196.37 250.870   5
  11  -2  -8 3268.00 303.022   5
 -11   2  -8 2741.69 644.722   2
 -11   2  -9 620.795 400.437   2
  11  -2  -9 1513.75 218.803   5
 -11   2 -10 1431.90 523.108   2
  11  -2 -10 1501.31 239.945   5
  11  -2 -11 1577.21 239.741   5
  11  -2 -12 526.999 186.928   5
 -11   2 -14 1448.76 201.556   3
 -11   2 -15 16.0764 128.230   3
 -11   2 -16 149.940 122.567   3
 -11   2 -17 877.474 146.663   3
 -11   2 -18 1080.38 145.168   3
 -11   2 -19 148.618 86.2928   3
 -11   2 -20 380.752 78.5981   3
 -11  -3 -19 28.9075 67.0226   3
 -11  -3 -18 173.226 92.3620   3
 -11  -3 -17 633.726 133.523   3
 -11  -3 -16 742.312 155.977   3
 -11  -3 -15 662.640 185.901   3
  11   3 -14 3257.35 243.852   5
 -11  -3 -14 3146.14 354.965   3
  11   3 -13 203.851 147.600   5
  11   3 -13 109.744 136.614   4
  11   3 -12 546.364 165.780   5
  11   3 -12 656.999 180.782   4
  11   3 -11 266.679 156.337   5
  11   3 -11 259.575 165.001   4
 -11   3  10 977.964 648.175   1
 -11  -3 -10 1134.64 528.566   2
  11   3 -10 1661.33 232.350   5
  11   3 -10 2154.60 242.649   4
 -11  -3  -9 21.0391 345.998   2
 -11   3   9-3.66250 395.765   1
  11   3  -9 65.9333 158.706   5
  11   3  -9 127.565 171.052   4
 -11  -3  -8 721.614 469.496   2
 -11   3   8 761.600 574.189   1
  11   3  -8 821.618 189.351   5
  11   3  -8 951.583 206.797   4
 -11  -3  -7 2448.42 627.963   2
 -11   3   7 2616.44 806.740   1
  11   3  -7 3408.33 290.200   4
 -11   3   6 1.82442 368.697   1
 -11  -3  -6-121.949 322.723   2
  11   3  -6 138.382 183.997   4
 -11   3   5 4861.85 1000.96   1
  11   3  -5 6356.53 371.928   4
 -11  -3  -5 5222.34 814.167   2
 -11   3   4 3812.94 891.087   1
  11   3  -4 5210.88 337.234   4
 -11  -3  -4 3593.39 685.242   2
 -11  -3  -3 342.979 318.105   2
  11  -3   3 423.703 166.899   5
  11   3  -3 848.208 198.450   4
 -11   3   3 568.262 439.553   1
  11  -3   2 1077.89 210.325   5
 -11   3   2 559.600 431.698   1
  11   3  -2 787.235 179.063   4
 -11   3   1 526.302 349.070   1
  11  -3   1 1086.96 195.012   5
  11   3  -1 764.560 183.155   4
 -11   3   0 138.440 342.575   1
  11  -3   0 95.7773 144.346   5
  11   3   0 165.625 144.139   4
 -11   3  -1 525.625 344.808   1
  11  -3  -1 868.134 188.991   5
  11   3   1 499.484 151.978   5
  11   3   1 705.741 168.262   4
  11  -3  -2 952.220 191.253   5
  11   3   2 733.318 158.602   5
  11   3   2 871.584 187.622   4
  11  -3  -3 779.661 175.862   5
  11   3   3 491.997 144.411   5
  11  -3  -4 5930.39 342.844   5
  11  -3  -5 6958.37 371.391   5
  11  -3  -6 91.3834 158.723   5
  11  -3  -7 3211.41 304.569   5
  11  -3  -8 912.850 211.351   5
  11  -3  -9 28.3100 174.938   5
  11  -3 -10 1930.79 252.789   5
  11  -3 -11 74.3092 178.770   5
 -11   3 -14 5106.80 313.404   3
 -11   3 -15 919.231 162.313   3
 -11   3 -16 792.454 155.891   3
 -11   3 -17 538.022 128.249   3
 -11   3 -18 167.386 93.7118   3
 -11   3 -19 61.1746 76.2603   3
 -11   3 -20 130.922 63.8009   3
 -11  -4 -18 351.628 94.7015   3
 -11  -4 -17 898.005 136.907   3
 -11  -4 -16 224.580 124.366   3
 -11  -4 -15 220.734 139.604   3
  11   4 -14 1380.89 178.258   5
  11   4 -14 1377.47 188.682   4
  11   4 -13 501.322 159.570   5
  11   4 -13 690.084 176.854   4
  11   4 -12 143.028 140.976   5
  11   4 -12 119.240 161.599   4
  11   4 -11 404.254 175.021   5
  11   4 -11 587.271 179.144   4
 -11  -4 -10 273.017 397.858   2
  11   4 -10 390.081 174.971   5
 -11   4  10 337.185 470.748   1
  11   4 -10 422.966 187.071   4
 -11  -4  -9 192.902 379.355   2
 -11   4   9 191.527 415.586   1
  11   4  -9 465.764 174.869   4
 -11   4   8 2939.49 883.081   1
  11   4  -8 4449.52 334.918   4
 -11  -4  -8 3461.98 792.273   2
 -11  -4  -7 2627.63 653.998   2
  11   4  -7 3493.72 287.203   4
 -11   4   7 2481.55 787.085   1
 -11  -4  -6 1522.38 527.956   2
  11   4  -6 1654.57 230.436   4
 -11   4   6 1342.29 610.772   1
 -11  -4  -5 1359.05 493.879   2
  11  -4   5 74.7718 157.419   5
 -11   4   5 1354.21 601.446   1
  11   4  -5 1697.07 234.321   4
 -11  -4  -4 987.755 457.544   2
 -11   4   4 803.042 498.582   1
  11   4  -4 644.450 184.128   4
 -11  -4  -3 897.519 437.885   2
 -11   4   3 1042.95 477.057   1
 -11   4   2 3030.85 741.320   1
  11   4  -2 3861.09 298.636   4
 -11   4   1 3819.21 813.179   1
  11   4  -1 5255.66 333.786   4
 -11   4   0 2200.44 612.935   1
  11  -4   0 3643.39 307.235   5
  11   4   0 2914.96 264.321   4
  11  -4  -1 6315.82 371.040   5
  11   4   1 5070.72 328.448   4
  11  -4  -2 4799.42 331.005   5
  11   4   2 3670.81 281.963   4
  11  -4  -3 1542.15 232.366   5
  11   4   3 1012.40 174.978   5
  11   4   3 1049.91 186.258   4
  11  -4  -4 1106.99 214.658   5
  11  -4  -5 1718.38 247.046   5
  11  -4  -6 2242.49 264.382   5
  11  -4  -7 4131.22 330.091   5
  11  -4  -8 6953.55 451.177   5
  11  -4  -9 151.965 176.766   5
 -11   4 -13 650.099 161.647   3
 -11   4 -14 2085.77 217.859   3
 -11   4 -15 291.953 124.889   3
 -11   4 -16 171.182 116.726   3
 -11   4 -17 889.926 136.225   3
 -11   4 -18 354.055 102.017   3
 -11   4 -19 121.061 73.5660   3
 -11   4 -20 327.831 70.3365   3
 -11  -5 -16 326.675 121.814   3
 -11  -5 -15 167.205 132.834   3
  11   5 -14 181.357 115.025   5
 -11  -5 -14 243.368 153.717   3
  11   5 -14 200.341 135.820   4
  11   5 -13 1434.51 191.006   5
  11   5 -13 1375.77 205.079   4
  11   5 -12 529.068 184.254   5
  11   5 -12 434.132 172.711   4
  11   5 -11 4249.08 321.675   5
  11   5 -11 4912.79 331.333   4
  11   5 -10 1738.91 233.462   4
 -11  -5  -9 854.238 516.475   2
 -11   5   9 812.457 527.516   1
  11   5  -9 1161.69 215.408   4
 -11  -5  -8 798.747 514.034   2
 -11   5   8 655.488 538.285   1
  11   5  -8 1171.32 214.850   4
 -11  -5  -7 1157.21 501.587   2
 -11   5   7 1153.37 590.139   1
  11   5  -7 2174.47 296.573   4
 -11  -5  -6 1337.44 499.284   2
 -11   5   6 1147.57 596.082   1
  11   5  -6 1846.06 229.475   4
 -11  -5  -5 472.629 369.863   2
 -11   5   5 310.517 405.874   1
  11  -5   5 56.5540 169.597   5
  11   5  -5 777.425 181.536   4
 -11   5   4-99.3220 389.446   1
 -11  -5  -4-54.7696 294.152   2
  11   5  -4 67.5881 152.774   4
 -11   5   3 78.9946 357.483   1
 -11  -5  -3 92.6742 331.922   2
  11  -5   3-83.1359 169.579   5
  11   5  -3 221.719 162.495   4
 -11   5   2 4973.58 910.634   1
  11   5  -2 5774.82 354.231   4
 -11   5   1 5791.86 957.046   1
  11   5  -1 7419.42 387.860   4
  11   5   0 1778.36 238.213   4
 -11   5   0 1571.87 543.627   1
 -11   5  -1 5224.51 859.402   1
  11   5   1 6866.86 374.962   4
  11   5   2 5630.49 355.744   4
 -11   5  -2 3547.58 708.644   1
  11  -5  -3 574.350 271.448   5
  11   5   3 507.949 212.352   4
  11  -5  -4-32.3139 169.431   5
  11   5   4-46.2730 134.746   4
  11  -5  -5 567.331 241.020   5
  11  -5  -6-32.5221 169.576   5
  11  -5 -12-25.2195 160.161   5
 -11   5 -13 1427.11 188.488   3
 -11   5 -14 273.590 128.490   3
 -11   5 -15 322.417 122.411   3
 -11   5 -16 311.274 111.032   3
 -11   5 -17 427.769 109.222   3
 -11   5 -18 144.595 82.6742   3
 -11   5 -19 231.179 72.9043   3
 -11   5 -20 226.353 58.1609   3
 -11  -6 -15 1601.41 178.949   3
  11   6 -15 995.901 149.103   4
  11   6 -14 918.938 155.813   5
  11   6 -14 1150.79 174.080   4
  11   6 -13 118.484 128.169   5
 -11  -6 -13 112.933 150.825   3
  11   6 -13 62.6014 140.604   4
  11   6 -12 155.876 154.997   5
  11   6 -12 1796.26 324.397   4
  11   6 -11 623.853 211.509   4
  11   6 -10 260.127 173.075   4
  11   6  -9 17.7840 151.902   4
 -11   6   8 1142.18 641.118   1
 -11  -6  -8 1076.43 555.206   2
  11   6  -8 1488.76 216.022   4
 -11   6   7 1731.66 685.497   1
 -11  -6  -7 1861.10 629.349   2
  11   6  -7 2069.78 244.268   4
 -11   6   6 922.985 593.403   1
 -11  -6  -6 1018.83 502.859   2
  11   6  -6 1321.19 208.017   4
 -11   6   5 6261.65 1139.48   1
  11   6  -5 7599.10 394.658   4
 -11  -6  -5 6425.42 1013.78   2
 -11  -6  -4 3927.88 802.557   2
 -11   6   4 3700.86 862.830   1
  11   6  -4 4730.75 314.406   4
 -11   6   3 152.566 327.491   1
 -11  -6  -3 108.928 339.972   2
  11   6  -3 34.4225 148.369   4
 -11  -6  -2 1006.32 465.795   2
  11  -6   2 127.963 207.529   5
  11   6  -2 1375.24 210.385   4
 -11   6   2 946.785 474.164   1
  11  -6   1 37.2537 188.862   5
 -11   6   1 520.673 404.524   1
  11   6  -1 545.692 173.234   4
 -11   6   0 161.363 311.604   1
  11   6   0 541.820 210.388   4
 -11   6  -1 324.816 333.688   1
  11   6   1 563.861 178.483   4
 -11   6  -2 916.832 422.974   1
  11   6   2 1249.81 198.886   4
  11   6   3 97.5395 139.891   4
  11  -6  -6-37.4266 196.315   5
  11  -6  -9-66.9677 181.675   5
  11  -6 -10-45.3417 187.832   5
 -11   6 -12 368.509 140.904   3
 -11   6 -13 182.413 124.792   3
 -11   6 -14 1538.42 176.877   3
 -11   6 -15 1630.73 171.222   3
 -11   6 -16 190.844 98.0180   3
 -11   6 -17 282.327 92.7691   3
 -11   6 -18 389.203 103.843   3
 -11   6 -19 494.016 79.7586   3
  11   7 -15 676.303 135.983   4
  11   7 -14 1618.67 172.803   5
  11   7 -14 1805.74 193.865   4
  11   7 -13 2929.61 237.928   5
  11   7 -13 2995.04 264.231   4
  11   7 -12 1007.04 206.560   4
  11   7 -11 1892.30 248.573   4
  11   7 -10 278.871 157.561   4
  11   7  -9 248.547 172.338   4
  11   7  -8 2315.03 256.310   4
 -11   7   7 1242.16 636.696   1
 -11  -7  -7 1867.14 654.021   2
  11   7  -7 2234.20 251.143   4
 -11  -7  -6 1090.66 555.563   2
  11   7  -6 1317.99 214.751   4
 -11   7   6 894.042 571.672   1
 -11  -7  -5 1663.65 595.577   2
  11   7  -5 2692.62 256.935   4
 -11   7   5 1950.56 714.397   1
 -11  -7  -4 1161.90 526.386   2
  11   7  -4 1666.54 231.680   4
 -11   7   4 1306.42 588.626   1
 -11  -7  -3 592.421 425.372   2
  11  -7   3 42.6046 173.389   5
 -11   7   3 405.682 342.684   1
  11   7  -3 502.476 170.530   4
 -11  -7  -2 1147.38 504.041   2
  11  -7   2 12.5022 186.259   5
 -11   7   2 1265.86 526.702   1
  11   7  -2 1363.74 223.540   4
 -11   7   1 979.149 468.064   1
  11   7  -1 1263.83 213.557   4
 -11   7   0-30.1742 296.278   1
  11   7   0 403.539 185.218   4
 -11   7  -1 874.931 444.892   1
  11  -7  -1-87.9872 192.180   5
 -11   7  -2 833.994 400.846   1
  11  -7  -2 28.2446 189.524   5
  11  -7  -3 183.559 181.765   5
  11   7   3 406.561 158.317   4
  11  -7  -4 125.570 193.998   5
  11  -7  -5-0.07327 183.170   5
  11  -7  -6 37.4305 192.633   5
  11  -7  -7 52.8553 204.355   5
  11  -7 -10 64.6278 171.113   5
 -11   7 -12 1241.10 169.279   3
 -11   7 -13 3056.52 223.718   3
 -11   7 -14 2365.23 190.614   3
 -11   7 -15 876.300 133.399   3
 -11   7 -16 570.632 110.067   3
 -11   7 -17 567.348 98.5628   3
 -11   7 -18 82.2741 62.2434   3
 -11   7 -19 6.01360 182.954   6
 -11   7 -19 67.2163 49.0015   3
  11   8 -15 6.52045 96.9696   4
  11   8 -14 828.020 137.994   5
  11   8 -14 994.163 159.249   4
  11   8 -13 254.409 129.505   5
  11   8 -13 321.860 144.014   4
  11   8 -12 64.9750 136.594   4
  11   8 -11 3101.26 281.272   4
  11   8 -10 1665.86 228.555   4
  11   8  -9 160.016 151.422   4
  11   8  -8 1001.25 203.369   4
  11   8  -7 455.540 174.681   4
 -11  -8  -6 134.263 361.613   2
 -11   8   6 55.1334 360.925   1
  11   8  -6 275.419 169.971   4
 -11  -8  -5 277.924 394.369   2
 -11   8   5 545.919 504.862   1
  11   8  -5 584.589 180.475   4
 -11  -8  -4 56.5079 429.144   2
 -11   8   4 137.957 380.718   1
  11   8  -4 275.396 154.041   4
 -11  -8  -3 679.626 412.771   2
 -11   8   3 928.543 522.797   1
  11   8  -3 1354.55 221.067   4
 -11  -8  -2 2074.30 646.881   2
  11   8  -2 3189.32 299.773   4
 -11   8   2 2299.55 721.253   1
 -11   8   1 1177.50 528.641   1
  11   8  -1 1852.92 233.474   4
 -11   8   0 63.2149 294.274   1
  11   8   0 120.022 147.860   4
 -11   8  -1 1357.31 513.535   1
  11   8   1 1731.41 230.485   4
  11   8   2 3236.23 269.558   4
 -11   8  -2 2414.35 654.168   1
  11   8   3 1198.17 192.070   4
  11  -8  -7 9.01234 186.598   5
  11  -8  -8 44.2192 192.265   5
  11  -8  -9-10.5847 183.851   5
 -11   8 -11 3188.15 227.308   3
 -11   8 -12 253.520 114.354   3
 -11   8 -13 379.802 124.114   3
 -11   8 -14 1219.16 141.305   3
 -11   8 -15 181.907 90.5590   3
 -11   8 -16 680.983 102.441   3
 -11   8 -17 251.208 72.0000   3
 -11   8 -18 169.950 57.7123   3
 -11   8 -19 95.0722 175.385   6
  11   9 -15 328.103 106.779   4
  11   9 -14 3263.17 214.497   5
  11   9 -14 4047.04 248.656   4
  11   9 -13 403.533 138.932   5
  11   9 -13 407.130 141.353   4
  11   9 -12 34.2745 134.477   4
  11   9 -11 53.4532 137.246   4
  11   9 -10 112.999 151.639   4
  11   9  -9 642.885 178.117   4
  11   9  -8 793.263 186.200   4
  11   9  -7 1390.53 235.144   4
  11   9  -6 933.567 191.827   4
  11   9  -5 169.547 173.015   4
 -11  -9  -4 1437.50 638.033   2
 -11   9   4 878.095 536.405   1
  11   9  -4 1614.29 226.821   4
 -11   9   3 1166.21 567.382   1
 -11  -9  -3 967.820 495.442   2
  11   9  -3 1337.76 235.621   4
 -11   9   2 1758.41 632.403   1
 -11  -9  -2 1593.61 634.198   2
  11   9  -2 2215.33 251.115   4
 -11   9   1 880.086 486.175   1
  11   9  -1 1164.41 201.260   4
 -11   9   0 550.319 375.557   1
  11   9   0 775.086 179.814   4
 -11   9  -1 733.684 458.249   1
  11   9   1 1219.34 200.806   4
 -11   9  -2 1262.97 512.050   1
  11   9   2 2294.34 239.445   4
  11  -9  -3-30.5076 196.750   5
  11  -9  -4-53.0943 199.409   5
  11  -9  -5-170.513 204.136   5
  11  -9  -6-90.4548 206.497   5
 -11   9  -9 612.584 136.458   3
 -11   9 -10 50.1294 106.637   3
 -11   9 -11 161.204 106.433   3
 -11   9 -12 79.0238 95.9849   3
 -11   9 -13 531.553 110.662   3
 -11   9 -14 4206.90 211.800   3
 -11   9 -15 422.605 88.7298   3
 -11   9 -16 983.087 99.5626   3
 -11   9 -17 457.664 69.3134   3
 -11   9 -18 41.4696 182.078   6
 -11   9 -19-139.644 138.931   6
  11  10 -15 544.764 106.223   4
  11  10 -14 875.693 124.443   5
  11  10 -14 1301.18 155.738   4
  11  10 -13 478.041 134.067   4
  11  10 -12 215.842 130.340   4
  11  10 -11 230.478 142.785   4
  11  10 -10 181.708 141.745   4
  11  10  -9 207.151 152.350   4
  11  10  -8 1548.53 216.240   4
  11  10  -7 5442.95 343.911   4
  11  10  -6 1079.22 200.997   4
  11  10  -5 3249.21 280.845   4
  11  10  -4 1290.81 215.556   4
  11  10  -3 414.823 165.871   4
  11  10  -2 1103.55 203.893   4
 -11  10   1 863.010 473.702   1
  11  10  -1 1680.18 223.091   4
 -11  10   0 164.284 334.611   1
  11  10   0 553.869 167.299   4
 -11  10  -1 955.918 478.528   1
  11  10   1 1539.77 206.613   4
  11  10   2 1014.89 192.904   4
 -11  10 -10 140.369 95.4066   3
  11 -10 -11-55.1515 165.055   7
 -11  10 -11 227.716 99.6598   3
 -11  10 -12 128.510 84.7176   3
 -11  10 -13 493.561 93.3434   3
 -11  10 -14 1278.97 115.169   3
 -11  10 -15 461.936 73.3312   3
 -11  10 -17 1082.91 251.009   6
 -11  10 -18-47.4615 152.920   6
  11  11 -15 88.0883 75.6172   4
  11  11 -14 394.574 101.056   5
  11  11 -14 505.507 122.366   4
  11  11 -13 819.113 142.880   4
  11  11 -12 215.593 125.641   4
  11  11 -11 1201.16 186.780   4
  11  11 -10 976.135 174.599   4
  11  11  -9 267.664 147.643   4
  11  11  -8 481.216 166.063   4
  11  11  -7 48.6635 151.568   4
  11  11  -6 268.986 165.547   4
  11  11  -5 230.477 171.394   4
  11  11  -4 738.061 182.641   4
  11  11  -3 108.070 150.222   4
  11  11  -2 564.024 177.012   4
  11  11  -1 1625.12 214.599   4
  11  11   0 365.326 165.774   4
  11  11   1 1209.61 200.923   4
  11  11   2 382.192 141.034   4
  11 -11 -10-9.11042 169.674   7
  11 -11 -11-7.45754 145.112   7
 -11  11 -16-78.8324 195.126   6
 -11  11 -17 12.9991 162.349   6
  11  12 -14 538.453 105.366   4
  11  12 -13 457.460 104.712   5
  11  12 -13 534.412 118.988   4
  11  12 -12 145.584 117.815   4
  11  12 -11 746.824 149.454   4
  11  12 -10 875.515 162.929   4
  11  12  -9 10.4776 131.061   4
  11  12  -8 1817.00 214.030   4
  11  12  -7 1400.64 206.751   4
  11  12  -6 257.732 158.738   4
  11  12  -5 2849.14 265.005   4
  11  12  -4 1026.14 191.277   4
  11  12  -3 511.799 172.429   4
  11  12  -2 3114.19 259.761   4
  11  12  -1 1011.64 187.998   4
  11  12   0 211.228 147.783   4
  11  12   1 1028.92 185.493   4
  11  12   2 2112.31 215.857   4
  11 -12  -9 1325.24 325.466   7
  11 -12 -10-33.8775 161.331   7
 -11  12 -15-54.2371 192.331   6
 -11  12 -16-48.5987 170.367   6
 -11  12 -17-36.4011 129.102   6
  11  13 -14 467.199 85.6893   4
  11  13 -13 75.7506 70.1888   5
  11  13 -13 272.675 94.9613   4
  11  13 -12 32.6923 89.8549   4
  11  13 -11 89.8876 114.140   4
  11  13 -10 102.275 118.145   4
  11  13  -9-64.9050 117.242   4
  11  13  -8 340.364 141.931   4
  11  13  -7 345.572 141.600   4
  11  13  -6 359.418 149.699   4
  11  13  -5 633.399 170.269   4
  11  13  -4 918.725 183.795   4
  11  13  -3 1091.11 182.728   4
  11  13  -2 2281.82 227.056   4
  11  13  -1 635.546 178.266   4
  11  13   0 564.469 152.677   4
  11  13   1 369.992 141.768   4
  11 -13  -8-42.7450 189.301   7
  11 -13  -9 37.8555 163.437   7
  11 -13 -10 24.9869 150.072   7
 -11  13 -13-24.5178 201.969   6
 -11  13 -14 796.263 242.963   6
 -11  13 -15 207.492 168.119   6
  11  14 -13 47.7623 53.8985   5
  11  14 -13 43.5625 67.2827   4
  11  14 -12 192.227 101.626   4
  11  14 -11 319.732 105.740   4
  11  14 -10 347.112 115.397   4
  11  14  -9 524.417 126.993   4
  11  14  -8 303.771 127.686   4
  11  14  -7 131.998 121.270   4
  11  14  -6 75.5509 130.153   4
  11  14  -5 151.437 132.857   4
  11  14  -4 700.689 158.205   4
  11  14  -3 1297.76 181.577   4
  11  14  -2 5319.08 298.186   4
  11  14  -1 5538.52 304.513   4
  11  14   0 1012.80 164.541   4
  11  14   1 4911.83 274.453   4
  11 -14  -6-56.6968 210.817   7
  11 -14  -7 27.8181 186.044   7
  11 -14  -8-42.1814 170.385   7
  11 -14  -9-95.7772 161.757   7
  11 -14 -10 7.07235 122.473   7
 -11  14 -10 193.514 219.753   6
 -11  14 -11 83.9200 203.042   6
 -11  14 -12 32.2492 186.382   6
 -11  14 -13 43.4357 170.493   6
 -11  14 -14-132.280 151.676   6
  11  15 -12 144.969 61.3725   5
  11  15 -12 219.162 74.7489   4
  11  15 -11 711.089 110.702   4
  11  15 -10 313.847 103.059   4
  11  15  -9 565.989 125.093   4
  11  15  -8 624.759 131.998   4
  11  15  -7 631.436 137.792   4
  11 -15   6 80.2458 161.866   7
  11  15  -6 1178.87 160.899   4
  11 -15   5 5.56290 165.303   7
  11  15  -5 75.0672 111.680   4
  11  15  -4 542.839 134.301   4
  11  15  -3 189.842 121.356   4
  11  15  -2 1457.00 172.522   4
  11  15  -1 4051.34 246.029   4
  11  15   0 878.995 150.610   4
  11 -15  -3-34.9248 190.938   7
  11 -15  -4 131.553 220.576   7
  11 -15  -5-3.03811 180.607   7
  11 -15  -6-28.5278 174.829   7
  11 -15  -7-113.335 170.512   7
  11 -15  -8-102.284 150.058   7
  11 -15  -9-25.3240 124.839   7
 -11  15  -9-112.624 172.360   6
 -11  15 -10 489.107 189.796   6
 -11  15 -11 54.9383 154.878   6
  11  16 -11 379.705 79.1631   4
  11  16 -10 160.600 75.2750   4
  11  16  -9 172.662 82.6743   4
  11  16  -8 475.568 115.983   4
  11  16  -7 894.039 130.358   4
  11  16  -6 76.5526 92.1455   4
  11 -16   5 868.669 211.542   7
  11  16  -5 833.998 130.551   4
  11 -16   4 85.6595 153.984   7
  11  16  -4 114.063 99.0202   4
  11 -16   3-23.4082 161.096   7
  11  16  -3 48.0359 95.2125   4
  11 -16   2 154.647 180.526   7
  11  16  -2 594.860 127.085   4
  11 -16   1-23.7779 172.407   7
  11  16  -1 323.092 111.096   4
  11 -16   0-92.1600 177.644   7
  11 -16  -1 31.0053 183.559   7
  11 -16  -2 75.4907 181.880   7
  11 -16  -3 74.3902 178.454   7
  11 -16  -4 731.334 241.516   7
  11 -16  -5-37.7769 159.769   7
  11 -16  -6-69.0581 159.607   7
  11 -16  -7 62.1412 145.508   7
  11 -16  -8 47.7858 123.816   7
  11 -16  -9 86.0115 100.848   7
  11  17  -9 342.596 76.2809   4
  11  17  -8 587.955 95.2070   4
  11  17  -7 292.528 91.0451   4
  11  17  -6 151.920 82.9935   4
  11 -17   5 1.10930 109.979   7
  11  17  -5 184.891 87.3257   4
  11 -17   4-102.542 124.403   7
  11  17  -4 21.4042 83.2756   4
  11 -17   3 216.742 151.202   7
  11  17  -3 203.389 90.7246   4
  11 -17   2-48.6017 147.101   7
  11  17  -2 513.362 101.314   4
  11 -17   1 63.9827 162.287   7
  11 -17   0-63.0008 165.619   7
  11 -17  -1 35.5052 151.911   7
  11 -17  -2 291.271 174.983   7
  11 -17  -3-3.30694 153.597   7
  11 -17  -4-7.41440 137.337   7
  11 -17  -5 65.6293 144.490   7
  11 -17  -6 39.5708 121.066   7
  11 -17  -7 87.0310 109.650   7
  11  18  -5 57.5303 62.2791   4
  11  18  -4 275.604 72.0030   4
  11 -18   3 182.309 104.344   7
  11 -18   2 0.27289 111.483   7
  11 -18   1 62.8080 123.858   7
  11 -18   0-0.93185 119.710   7
  11 -18  -1-64.1097 127.697   7
  11 -18  -2 105.804 133.062   7
  11 -18  -3-43.0886 122.542   7
  11 -18  -4 17.5711 111.751   7
  11 -18  -5 141.606 117.988   7
  12   0   0 564.582 176.785   5
  12   0   1 4139.23 300.996   5
  12   0  -1 3941.57 304.920   5
  12   0   2 8453.15 406.858   5
  12   0  -2 9079.70 450.755   5
  12   0   3 3395.64 279.438   5
  12   0  -3 3932.59 307.205   5
 -12   0   4 535.519 466.259   1
  12   0   4 871.024 197.166   5
  12   0  -4 803.347 187.749   5
 -12   0   5 242.002 402.710   1
  12   0  -5 159.878 162.626   5
  12   0  -6 1770.94 224.738   5
 -12   0   6 1260.08 682.481   1
  12   0  -7-2.91855 150.092   5
 -12   0   7 2.91402 413.457   1
  12   0  -8 24.3260 156.340   5
 -12   0   8-141.959 546.588   1
  12   0  -9 478.972 184.577   5
  12   0 -10 1281.44 222.174   5
  12   0 -11 510.806 214.711   5
  12   0 -12 692.698 185.000   5
  12   0 -13 212.886 160.892   5
 -12   0 -14 143.005 126.615   3
 -12   0 -15 269.788 131.206   3
 -12   0 -16 39.4942 107.628   3
 -12   0 -17 432.153 114.502   3
 -12   0 -18 872.841 116.164   3
 -12   0 -19 209.140 70.2958   3
 -12  -1 -19 49.7267 61.5222   3
 -12  -1 -18 131.436 79.9391   3
 -12  -1 -17 209.014 100.582   3
 -12  -1 -16 642.718 141.697   3
 -12  -1 -15 699.890 159.297   3
  12   1 -14 1682.45 196.070   5
 -12  -1 -14 2676.12 244.524   3
  12   1 -13 763.555 173.453   5
  12   1 -12 633.562 171.833   5
  12   1 -11 180.889 174.871   5
  12   1 -10 3548.51 295.940   5
  12   1  -9 469.998 177.630   5
 -12  -1  -8 319.018 305.188   2
 -12   1   8 731.214 607.359   1
 -12   1   7 23.0527 402.633   1
 -12  -1  -7 0.39520 271.318   2
  12   1  -7 18.9992 155.284   5
  12   1  -7 39.0848 169.628   4
  12   1  -6 1052.03 207.375   5
  12   1  -6 860.675 195.659   4
 -12   1   6 808.913 523.319   1
  12   1  -5 3380.59 278.233   5
  12   1  -5 3139.92 285.560   4
 -12   1   4 3332.83 841.916   1
  12  -1   4 3896.22 308.413   5
  12   1  -4 4255.69 302.923   5
  12   1  -4 4007.91 320.025   4
 -12   1   3 2091.80 707.581   1
  12  -1   3 3183.84 284.744   5
  12   1  -3 4877.56 404.955   5
  12   1  -3 5212.34 414.184   4
  12  -1   2 3031.47 262.249   5
  12   1  -2 2517.50 265.724   5
  12  -1   1 6052.56 353.456   5
  12   1  -1 6155.09 365.009   5
  12  -1   0 1517.70 222.126   5
  12   1   0 1484.69 210.197   5
  12  -1  -1 6084.65 360.063   5
  12   1   1 5478.26 349.085   5
  12  -1  -2 3198.86 275.962   5
  12   1   2 2830.28 257.822   5
 -12  -1   3 2322.78 699.488   1
  12   1   3 3105.22 267.869   5
  12  -1  -3 2581.96 285.384   5
 -12  -1   4 2610.02 801.045   1
  12   1   4 3402.35 271.948   5
  12  -1  -4 4376.18 306.339   5
 -12  -1   5 1775.93 668.027   1
  12  -1  -5 3409.63 290.535   5
 -12  -1   6 537.873 555.281   1
  12  -1  -6 1035.30 209.131   5
  12  -1  -7 116.236 161.966   5
 -12  -1   7 166.828 393.897   1
  12  -1  -8 566.989 193.825   5
 -12  -1   8 72.0723 410.512   1
  12  -1  -9 532.399 185.426   5
  12  -1 -10 3571.71 299.727   5
  12  -1 -11 284.021 187.334   5
  12  -1 -12 699.221 193.678   5
  12  -1 -13 34.7338 138.418   5
 -12   1 -14 2366.02 228.363   3
 -12   1 -15 556.705 143.537   3
 -12   1 -16 609.009 136.228   3
 -12   1 -17 291.308 103.211   3
 -12   1 -18 176.506 84.9603   3
 -12   1 -19-5.28348 60.5576   3
 -12  -2 -19 389.872 69.8314   3
 -12  -2 -18 207.823 81.3322   3
 -12  -2 -17 1049.03 140.103   3
 -12  -2 -16 304.060 116.859   3
 -12  -2 -15 310.082 130.495   3
  12   2 -14 554.165 142.075   5
 -12  -2 -14 593.757 176.792   3
  12   2 -13 1216.69 184.276   5
  12   2 -12 411.388 168.770   5
  12   2 -11 664.674 217.627   5
  12   2 -10 1055.57 200.489   5
  12   2 -10 1045.22 215.119   4
  12   2  -9 34.3774 147.444   5
  12   2  -9 54.7101 160.750   4
 -12  -2  -8 3.94060 324.980   2
 -12   2   8 223.887 562.800   1
  12   2  -8 353.311 175.713   5
  12   2  -8 494.336 188.293   4
 -12  -2  -7 292.011 360.251   2
 -12   2   7 207.135 454.804   1
  12   2  -7 342.579 164.545   5
  12   2  -7 344.298 192.069   4
 -12   2   6 1160.75 636.134   1
  12   2  -6 1548.86 228.948   5
  12   2  -6 1524.70 231.232   4
  12   2  -5 9188.49 453.347   5
  12   2  -5 9893.24 462.377   4
  12   2  -4 3154.59 287.825   5
  12   2  -4 3510.08 300.300   4
  12  -2   3 207.515 169.351   5
  12   2  -3 415.179 188.036   5
  12   2  -3 752.748 203.140   4
 -12   2   3 153.645 374.569   1
  12  -2   2 1462.75 214.988   5
  12   2  -2 1436.27 207.850   5
  12   2  -2 1043.30 214.629   4
 -12   2   2 927.727 490.781   1
 -12   2   1 235.318 343.733   1
  12  -2   1 455.172 170.067   5
  12   2  -1 309.061 160.664   5
  12   2  -1 279.133 161.638   4
 -12   2   0-43.3893 285.486   1
  12  -2   0 115.912 165.758   5
  12   2   0 259.813 165.772   5
  12  -2  -1 433.982 178.356   5
  12   2   1 353.723 166.363   5
 -12  -2   1 111.502 328.518   1
 -12  -2   2 859.852 463.445   1
  12  -2  -2 1596.05 221.575   5
  12   2   2 1168.36 189.329   5
  12  -2  -3 323.619 169.716   5
  12   2   3 270.436 151.827   5
  12  -2  -4 3778.71 300.227   5
  12   2   4 3019.43 270.655   5
  12  -2  -5 10651.2 468.814   5
  12  -2  -6 1404.20 234.651   5
  12  -2  -7 288.853 170.637   5
  12  -2  -8 407.473 182.346   5
  12  -2  -9 23.2213 154.124   5
  12  -2 -10 1192.78 218.789   5
  12  -2 -11 1165.67 263.974   5
 -12   2 -14 989.123 173.884   3
 -12   2 -15 332.906 126.963   3
 -12   2 -16 280.117 113.526   3
 -12   2 -17 1077.57 134.341   3
 -12   2 -18 179.938 81.0975   3
 -12   2 -19 562.533 83.7055   3
 -12  -3 -18 291.080 78.6063   3
 -12  -3 -17 485.815 107.705   3
 -12  -3 -16-3.62671 102.146   3
 -12  -3 -15 66.8227 116.937   3
  12   3 -14 121.229 109.134   5
 -12  -3 -14 249.806 140.063   3
  12   3 -13 1222.32 177.889   5
  12   3 -12 1180.21 226.159   5
  12   3 -11 3977.24 394.390   5
  12   3 -11 5679.94 407.539   4
  12   3 -10 2058.04 229.146   5
  12   3 -10 2229.97 248.919   4
  12   3  -9 1689.00 232.989   5
  12   3  -9 1762.73 256.324   4
 -12  -3  -8 838.449 480.698   2
  12   3  -8 1640.22 238.231   5
  12   3  -8 1666.41 238.128   4
 -12   3   8 817.200 587.238   1
 -12  -3  -7 117.486 313.080   2
  12   3  -7-4.00097 151.989   5
  12   3  -7 62.6182 169.761   4
 -12   3   7 116.861 415.735   1
 -12  -3  -6 544.221 381.406   2
  12   3  -6 1186.19 210.356   5
  12   3  -6 1200.84 223.173   4
 -12   3   6 758.161 578.277   1
  12  -3   5 848.105 228.859   5
  12   3  -5 387.155 175.003   5
 -12   3   5 222.308 418.893   1
  12   3  -5 378.576 171.236   4
  12  -3   4-88.4535 163.144   5
 -12   3   4 40.7739 346.840   1
  12   3  -4 120.434 156.103   5
  12   3  -4 116.559 156.377   4
 -12   3   3 786.031 457.266   1
  12   3  -3 914.603 199.212   5
  12   3  -3 1089.17 199.130   4
 -12   3   2 403.266 379.853   1
  12  -3   2 399.493 174.269   5
  12   3  -2 807.795 189.155   5
  12   3  -2 480.228 164.736   4
  12   3  -1 7391.21 393.367   5
  12   3  -1 7337.64 402.210   4
 -12   3   0 168.379 308.963   1
  12  -3   0 548.169 200.331   5
  12   3   0 423.064 174.785   5
  12   3   0 228.057 161.456   4
  12   3   1 7214.87 385.349   5
  12   3   1 7209.22 405.885   4
  12  -3  -2 1411.99 266.226   5
  12   3   2 756.737 170.261   5
  12  -3  -3 1627.11 291.545   5
  12   3   3 934.441 172.982   5
  12  -3  -4 152.776 151.318   5
  12   3   4 121.185 132.686   5
  12  -3  -5 346.611 172.090   5
  12  -3  -6 1340.62 234.794   5
  12  -3  -7 45.5728 172.977   5
  12  -3  -8 1820.59 270.763   5
  12  -3  -9 1926.86 256.002   5
  12  -3 -10 300.615 217.873   5
  12  -3 -12 920.823 231.471   5
 -12   3 -14 223.955 126.029   3
 -12   3 -15 52.6501 106.733   3
 -12   3 -16 35.8880 93.3859   3
 -12   3 -17 522.250 107.472   3
 -12   3 -18 342.059 86.9248   3
 -12   3 -19 52.9240 56.6146   3
 -12  -4 -17 1380.25 130.405   3
 -12  -4 -16 545.151 118.908   3
 -12  -4 -15 147.883 120.506   3
  12   4 -14 1698.06 176.568   5
 -12  -4 -14 2821.18 242.810   3
  12   4 -13 346.477 134.068   5
  12   4 -12 1346.08 219.949   5
  12   4 -12 1187.04 227.475   4
  12   4 -11 10537.5 434.949   5
  12   4 -11 4311.61 469.179   4
  12   4 -10 1889.01 283.612   5
  12   4 -10 2358.67 287.931   4
  12   4  -9 356.261 191.506   5
  12   4  -9 648.389 233.073   4
  12   4  -8 1498.65 228.442   5
  12   4  -8 1547.90 245.633   4
 -12  -4  -7 1011.23 500.749   2
 -12   4   7 993.996 585.832   1
  12   4  -7 2690.82 277.489   5
  12   4  -7 2535.90 275.538   4
 -12  -4  -6 478.244 411.371   2
 -12   4   6 532.768 486.326   1
  12   4  -6 819.769 204.395   4
 -12   4   5 596.045 495.084   1
  12   4  -5 1276.34 229.939   4
 -12   4   4 2098.87 682.385   1
  12   4  -4 2717.40 277.463   4
 -12   4   3 490.182 427.575   1
  12   4  -3 876.679 206.655   4
 -12   4   2 142.852 344.362   1
  12   4  -2 48.3760 156.657   4
 -12   4   1 54.8411 329.041   1
  12   4  -1 282.342 188.289   4
  12  -4   0-31.2925 169.398   5
  12   4   0 271.963 170.831   5
  12   4   0 391.429 178.409   4
 -12   4   0 187.619 302.594   1
  12  -4  -1 252.223 193.973   5
  12   4   1 95.2667 137.131   5
  12   4   1 119.035 148.176   4
  12  -4  -2-18.1525 170.945   5
  12   4   2 108.524 142.063   5
  12   4   2 63.9365 150.660   4
  12  -4  -3 933.053 224.882   5
  12   4   3 860.501 177.531   5
  12  -4  -4 3449.15 316.145   5
  12   4   4 1825.59 208.179   5
  12  -4  -5 1663.36 297.183   5
  12  -4  -6 1002.48 229.576   5
  12  -4  -7 1937.40 280.014   5
  12  -4  -8-70.8439 178.037   5
  12  -4 -12 303.443 175.042   5
 -12   4 -13 533.041 141.550   3
 -12   4 -14 2549.25 218.402   3
 -12   4 -15 125.106 101.328   3
 -12   4 -16 513.397 117.121   3
 -12   4 -17 1396.27 140.142   3
 -12   4 -18 225.258 77.2731   3
 -12   4 -19 246.731 61.2844   3
 -12  -5 -16 209.680 92.2326   3
 -12  -5 -15 1720.69 172.739   3
  12   5 -14 1293.73 158.906   5
 -12  -5 -14 2553.11 225.834   3
  12   5 -13 907.625 170.367   5
  12   5 -13 956.803 168.542   4
  12   5 -12-29.3741 132.147   5
  12   5 -12 36.4271 133.942   4
  12   5 -11 7196.56 412.361   5
  12   5 -11 318.910 173.649   4
  12   5 -10 501.778 202.230   5
  12   5 -10 1110.61 204.035   4
  12   5  -9 422.743 167.904   5
  12   5  -9 427.559 181.620   4
  12   5  -8 818.016 232.934   4
  12   5  -7 380.100 173.771   4
 -12   5   6 212.643 378.091   1
  12   5  -6 147.658 169.070   4
 -12   5   5 878.611 532.321   1
  12   5  -5 1391.33 220.771   4
 -12   5   4 3187.46 828.351   1
  12   5  -4 4176.94 337.671   4
 -12   5   3 345.282 381.971   1
  12  -5   3-4.74716 188.056   5
  12   5  -2 684.546 191.761   4
 -12   5   2 370.458 348.649   1
 -12   5   1 596.569 456.903   1
  12   5  -1 823.353 195.371   4
 -12   5   0 616.239 404.347   1
  12   5   0 1170.44 211.056   4
  12  -5  -1 11.8048 175.475   5
  12   5   1 880.531 193.388   4
  12   5   2 639.245 175.510   5
  12   5   2 718.523 190.809   4
  12   5   3 454.874 164.591   5
  12  -5  -7 37.5900 187.085   5
  12  -5 -11-50.7512 164.823   5
 -12   5 -13 1191.52 166.091   3
 -12   5 -14 2257.47 196.955   3
 -12   5 -15 1667.63 168.794   3
 -12   5 -16 251.308 95.2543   3
 -12   5 -17 875.896 113.011   3
 -12   5 -18 20.8805 58.4887   3
 -12   5 -19 100.486 51.1016   3
 -12  -6 -14 1037.86 154.051   3
  12   6 -14 628.600 123.834   5
 -12  -6 -13 1255.73 184.214   3
  12   6 -13 885.258 154.218   5
  12   6 -13 1045.03 175.624   4
  12   6 -12 398.039 149.662   5
  12   6 -12 385.667 148.164   4
  12   6 -11 755.015 212.909   5
  12   6 -11 1094.25 227.791   4
  12   6 -10 2998.01 285.045   5
  12   6 -10 3784.54 298.763   4
  12   6  -9 3011.97 281.657   4
  12   6  -8 2070.76 259.283   4
  12   6  -7 51.6350 160.549   4
  12   6  -6 301.732 179.066   4
 -12   6   5 129.404 320.871   1
  12   6  -5 284.048 174.794   4
  12  -6   4 202.256 217.844   5
  12   6  -4 114.515 166.630   4
 -12   6   4 54.3773 338.337   1
  12  -6   3-10.7636 192.195   5
 -12   6   3 519.543 423.344   1
  12   6  -3 831.196 191.060   4
  12   6  -2 1082.56 228.632   4
 -12   6   2 643.116 455.743   1
  12  -6   1-182.929 202.138   5
 -12   6   1 488.887 417.694   1
 -12   6   0-103.512 338.722   1
  12  -6   0-25.4755 181.442   5
  12   6   0 179.827 149.106   4
  12   6   1 1298.63 209.391   4
  12   6   2 1317.63 233.834   4
  12   6   3 700.135 162.465   5
  12   6   3 687.172 182.891   4
  12  -6  -8 28.8949 189.004   5
  12  -6  -9-159.084 186.690   5
  12  -6 -11-43.5744 160.750   5
  12  -6 -12 151.957 162.657   5
 -12   6 -12 529.320 133.764   3
 -12   6 -13 1166.00 157.324   3
 -12   6 -14 1006.32 143.518   3
 -12   6 -15 1010.69 149.303   3
 -12   6 -16 249.598 88.8258   3
 -12   6 -17 386.222 82.6024   3
 -12   6 -18 505.378 72.7832   3
 -12   6 -19 9.77550 136.013   6
  12   7 -14 649.721 121.625   5
  12   7 -14 776.177 137.185   4
  12   7 -13 1645.73 180.851   5
  12   7 -13 1634.01 191.796   4
  12   7 -12 695.128 158.078   5
 -12  -7 -12 819.432 171.614   3
  12   7 -12 589.277 163.207   4
  12   7 -11 1138.66 244.597   5
  12   7 -11 3724.16 375.347   4
  12   7 -10 174.542 157.065   4
  12   7  -9 756.043 179.482   4
  12   7  -8 2269.96 272.468   4
  12   7  -7 1944.92 245.592   4
  12   7  -6 1241.85 225.679   4
  12   7  -5 192.453 166.452   4
 -12   7   4 114.071 335.793   1
  12   7  -4 384.935 166.572   4
 -12   7   3 779.839 471.820   1
  12   7  -3 1476.91 226.047   4
 -12   7   2 1318.67 570.101   1
  12   7  -2 2438.11 261.723   4
 -12   7   1 1134.40 501.895   1
  12  -7   1 376.973 229.212   5
  12   7  -1 1719.98 247.159   4
 -12   7   0-334.795 404.922   1
  12   7   0 156.119 163.325   4
  12   7   1 1814.04 233.449   4
  12   7   2 2379.54 251.417   4
  12  -7  -3-74.7125 202.714   5
  12   7   3 1642.18 216.389   4
  12  -7  -4 8.11552 199.284   5
  12  -7  -5-93.1937 205.419   5
  12  -7  -9 46.5124 265.466   5
  12  -7 -10 124.931 188.347   5
 -12   7 -11 2803.00 215.172   3
 -12   7 -12 792.104 140.320   3
 -12   7 -13 1994.64 175.964   3
 -12   7 -14 1019.96 130.958   3
 -12   7 -15 120.510 82.1624   3
 -12   7 -16 171.899 78.8704   3
 -12   7 -17 374.232 72.0090   3
  12   8 -14 460.317 111.628   5
  12   8 -14 420.099 122.481   4
  12   8 -13 264.485 112.966   5
  12   8 -13 441.086 134.237   4
  12   8 -12 189.028 130.276   5
  12   8 -12 162.964 135.586   4
  12   8 -11 117.476 143.372   5
  12   8 -11-18.3417 131.052   4
  12   8 -10 297.791 157.877   4
  12   8  -9 940.431 198.061   4
  12   8  -8 470.515 176.923   4
  12   8  -7 3229.90 290.552   4
  12   8  -6 2187.41 250.760   4
  12   8  -5 7522.78 417.105   4
  12   8  -4 2430.14 262.989   4
  12   8  -3-81.6203 163.889   4
  12   8  -2 175.409 161.486   4
 -12   8   1 168.247 305.710   1
  12  -8   1 354.926 229.479   5
  12   8  -1 691.334 190.978   4
  12  -8   0-126.221 216.879   5
  12   8   0 98.2044 151.754   4
  12  -8  -1-2.57840 203.102   5
  12   8   1 592.495 172.647   4
  12   8   2 421.130 173.500   4
  12   8   3-51.1382 152.603   4
  12  -8  -4-45.0957 200.740   5
  12  -8  -7 115.655 223.667   5
  12  -8  -8 20.5650 191.599   5
 -12   8 -10 191.475 109.521   3
 -12   8 -11 134.801 104.604   3
 -12   8 -12 238.819 106.057   3
 -12   8 -13 480.243 111.461   3
 -12   8 -14 608.268 105.567   3
 -12   8 -15 219.120 75.6234   3
 -12   8 -16 96.7621 61.7506   3
 -12   8 -17 369.937 60.6559   3
 -12   8 -18-16.7004 155.010   6
  12   9 -14 455.172 99.5907   5
  12   9 -14 567.324 116.857   4
  12   9 -13 151.609 107.786   5
  12   9 -13 294.634 133.015   4
  12   9 -12 513.393 141.017   5
  12   9 -12 524.086 153.668   4
  12   9 -11 2468.56 227.300   4
  12   9 -10 473.935 159.340   4
  12   9  -9 383.223 158.821   4
  12   9  -8 1558.53 231.663   4
  12   9  -7 1200.32 210.350   4
  12   9  -6 85.1522 155.206   4
  12   9  -5 863.340 202.710   4
  12   9  -4 2297.67 260.315   4
  12   9  -3 1559.09 252.273   4
  12   9  -2 1342.42 237.406   4
  12   9  -1 5210.39 349.005   4
  12   9   0 1312.89 212.853   4
  12   9   1 4916.83 335.069   4
  12   9   2 1406.57 204.104   4
 -12   9  -9 323.339 113.253   3
 -12   9 -10 470.506 116.714   3
 -12   9 -11 2507.75 177.046   3
 -12   9 -12 534.455 104.502   3
 -12   9 -13 224.665 79.3319   3
 -12   9 -14 660.623 91.4327   3
 -12   9 -15 74.6237 54.2755   3
 -12   9 -16 14.7513 42.8466   3
 -12   9 -18 495.332 154.155   6
  12  10 -14 522.308 108.713   4
  12  10 -13 238.706 100.965   5
  12  10 -13 406.321 119.316   4
  12  10 -12 622.820 134.840   5
  12  10 -12 782.798 144.979   4
  12  10 -11 307.824 135.427   4
  12  10 -10 821.316 168.876   4
  12  10  -9 533.697 160.532   4
  12  10  -8 593.126 171.875   4
  12  10  -7 1129.50 199.747   4
  12  10  -6 227.692 157.893   4
  12  10  -5 365.141 163.634   4
  12  10  -4 1170.28 201.066   4
  12  10  -3 1918.12 257.988   4
  12  10  -2 196.148 157.399   4
  12  10  -1 329.379 153.310   4
  12  10   0 174.464 143.792   4
  12  10   1 252.220 146.557   4
  12  10   2 232.533 140.676   4
 -12  10 -12 505.130 83.9617   3
 -12  10 -13 213.434 61.9096   3
 -12  10 -17 137.934 152.934   6
  12  11 -14 1510.82 132.137   4
  12  11 -13 503.123 100.473   5
  12  11 -13 501.662 112.728   4
  12  11 -12 139.865 100.535   5
  12  11 -12 168.333 109.070   4
  12  11 -11 346.416 131.933   4
  12  11 -10 62.8710 123.610   4
  12  11  -9-0.24709 125.698   4
  12  11  -8 835.261 171.669   4
  12  11  -7 14.5995 138.021   4
  12  11  -6 275.571 153.551   4
  12  11  -5 2319.69 247.878   4
  12  11  -4 1892.36 221.613   4
  12  11  -3 702.143 182.166   4
  12  11  -2 1179.78 203.121   4
  12  11  -1 212.905 149.803   4
  12  11   0 66.0593 140.451   4
  12  11   1 256.336 151.280   4
  12  11   2 889.041 172.481   4
  12 -11 -10-5.21647 143.251   7
 -12  11 -16-1.33153 154.997   6
  12  12 -13 137.494 71.5904   5
  12  12 -13 76.5226 79.3912   4
  12  12 -12 222.555 99.5980   5
  12  12 -12 202.013 109.468   4
  12  12 -11 966.101 142.652   4
  12  12 -10 1099.68 157.405   4
  12  12  -9 965.723 164.432   4
  12  12  -8 246.642 142.888   4
  12  12  -7 715.794 176.915   4
  12  12  -6 143.616 129.050   4
  12  12  -5 672.978 165.403   4
  12  12  -4 1200.08 191.549   4
  12  12  -3 209.285 145.250   4
  12  12  -2 189.281 139.553   4
  12  12  -1 315.936 149.645   4
  12  12   0 965.900 176.388   4
  12  12   1 135.691 134.614   4
  12 -12  -9 16.4823 158.385   7
  12 -12 -10-14.0134 129.865   7
 -12  12 -14 199.610 179.750   6
 -12  12 -15 556.039 196.494   6
  12  13 -13 214.509 69.3448   4
  12  13 -12 435.668 89.4324   5
  12  13 -12 564.542 104.903   4
  12  13 -11 2256.28 170.710   4
  12  13 -10 782.592 131.402   4
  12  13  -9 183.422 115.105   4
  12  13  -8 666.130 144.512   4
  12  13  -7 40.7182 119.504   4
  12  13  -6 44.1975 124.853   4
  12  13  -5 473.550 149.411   4
  12  13  -4 1209.03 176.277   4
  12  13  -3-9.75141 131.938   4
  12  13  -2 1268.28 188.078   4
  12  13  -1 2325.38 214.386   4
  12  13   0 262.924 131.391   4
  12  13   1 1831.36 196.438   4
  12 -13  -7-44.4779 178.792   7
  12 -13  -8-28.9161 167.870   7
  12 -13  -9 47.1472 143.512   7
 -12  13 -12-262.199 191.544   6
 -12  13 -13 58.5255 168.669   6
 -12  13 -14 102.537 142.254   6
  12  14 -12 592.090 88.5511   4
  12  14 -11 45.1406 75.7567   5
  12  14 -11 15.0724 83.0965   4
  12  14 -10 105.515 95.9342   4
  12  14  -9 10.1353 96.3925   4
  12  14  -8 1229.37 157.100   4
  12  14  -7 2072.34 190.754   4
  12  14  -6 783.557 142.668   4
  12  14  -5 1114.47 162.668   4
  12  14  -4 76.9801 112.001   4
  12  14  -3 92.3935 121.145   4
  12  14  -2 274.551 126.515   4
  12  14  -1 492.509 136.667   4
  12  14   0 336.393 117.265   4
  12 -14  -6 50.0566 174.116   7
  12 -14  -7-54.1486 164.768   7
  12 -14  -8 84.7368 155.396   7
  12 -14  -9-66.0101 117.062   7
 -12  14  -9-144.613 174.051   6
 -12  14 -10-209.785 169.871   6
 -12  14 -11 49.2868 150.692   6
 -12  14 -12 130.798 140.964   6
  12  15 -11 490.309 79.1598   4
  12  15 -10 133.000 73.4149   5
  12  15 -10 130.918 75.3685   4
  12  15  -9 141.715 83.2106   4
  12  15  -8 596.396 122.532   4
  12  15  -7 367.799 111.720   4
  12 -15   6 287.165 142.086   7
  12  15  -6 76.2922 102.067   4
  12 -15   5 21.7053 142.481   7
  12  15  -5 559.716 129.782   4
  12 -15   4-40.3654 154.749   7
  12  15  -4 434.708 116.430   4
  12  15  -3 262.388 112.299   4
  12  15  -2 88.9280 108.540   4
  12  15  -1 159.881 102.706   4
  12 -15  -2 37.2454 178.948   7
  12 -15  -3-42.6623 191.724   7
  12 -15  -4 15.3818 161.672   7
  12 -15  -5-46.2702 159.878   7
  12 -15  -6 46.7334 155.426   7
  12 -15  -7-1.23185 126.542   7
  12 -15  -8 126.418 123.273   7
  12  16  -9 383.940 73.9667   5
  12  16  -9 333.661 74.3660   4
  12  16  -8 593.825 93.5802   4
  12  16  -7 113.004 80.7580   4
  12  16  -6 32.8907 84.9940   4
  12 -16   5 60.2469 113.940   7
  12  16  -5 102.949 88.3490   4
  12 -16   4 35.0247 130.034   7
  12  16  -4 351.709 104.743   4
  12 -16   3 52.3645 138.457   7
  12  16  -3 217.128 94.9908   4
  12 -16   2 49.8347 143.361   7
  12  16  -2 191.045 90.4171   4
  12 -16   1-26.8227 157.339   7
  12  16  -1 431.010 91.3166   4
  12 -16   0 79.7228 162.385   7
  12 -16  -1 30.3050 166.237   7
  12 -16  -2 144.743 163.086   7
  12 -16  -3 31.4910 153.239   7
  12 -16  -4-8.31722 143.105   7
  12 -16  -5 8.60551 137.682   7
  12 -16  -6 30.0575 121.378   7
  12 -16  -7-84.9693 107.666   7
  12  17  -5 238.144 71.1143   4
  12  17  -4 148.520 66.1029   4
  12 -17   3 69.1543 107.505   7
  12 -17   2-34.5099 117.348   7
  12 -17   1-99.6466 129.406   7
  12 -17   0 137.633 137.286   7
  12 -17  -1 14.3459 120.297   7
  12 -17  -2 49.3578 130.115   7
  12 -17  -3-8.57990 119.721   7
  12 -17  -4-16.1175 120.716   7
  12 -17  -5 33.4980 111.569   7
  13   0   0 33.2639 164.773   5
  13   0   1 693.080 195.092   5
  13   0  -1 572.286 197.711   5
 -13   0   2-46.1683 301.528   1
  13   0   2-66.1495 146.911   5
  13   0  -2-54.4459 157.301   5
 -13   0   3 688.458 484.107   1
  13   0   3 897.547 199.413   5
  13   0  -3 1016.56 201.861   5
 -13   0   4-18.4976 335.582   1
  13   0   4 108.967 161.298   5
  13   0  -4-61.4997 164.192   5
  13   0  -5 2033.02 256.015   5
 -13   0   5 780.342 511.547   1
  13   0  -6 6241.74 374.546   5
  13   0  -7 6432.51 398.093   5
  13   0  -8 5354.72 346.247   5
  13   0  -9-61.9329 160.634   5
  13   0 -10 138.994 163.798   5
  13   0 -11 537.154 215.346   5
  13   0 -12 2791.84 259.667   5
 -13   0 -14 1000.12 142.768   3
 -13   0 -15 34.3377 99.6381   3
 -13   0 -16-13.8261 86.6838   3
 -13   0 -17 796.629 107.251   3
 -13   0 -18 444.579 76.5832   3
 -13  -1 -18 255.839 67.6922   3
 -13  -1 -17 512.474 93.7880   3
 -13  -1 -16 370.706 106.284   3
 -13  -1 -15 802.915 137.278   3
 -13  -1 -14 631.883 146.359   3
  13   1 -13 965.761 173.315   5
  13   1 -12 1097.55 188.808   5
  13   1 -11 2830.82 326.172   5
  13   1 -10 1864.78 277.945   5
  13   1  -9 963.834 202.039   5
  13   1  -8 652.060 192.472   5
  13   1  -7 553.016 228.587   5
  13   1  -6 541.825 181.349   5
 -13   1   5 976.582 581.524   1
  13   1  -5 2271.06 258.498   5
 -13   1   4 1159.43 632.744   1
  13  -1   4 281.007 183.283   5
  13  -1   3 450.615 184.832   5
  13   1  -3 297.848 161.111   5
 -13   1   3 296.004 445.291   1
  13  -1   2 2285.93 265.236   5
  13   1  -2 1997.60 249.494   5
  13  -1   1 1235.22 228.656   5
  13   1  -1 1035.43 214.055   5
  13  -1   0 161.946 157.875   5
  13   1   0 75.1629 156.229   5
  13   1   1 1056.07 206.715   5
  13  -1  -1 607.966 198.948   5
  13  -1  -2 2003.41 247.838   5
  13   1   2 2003.46 232.650   5
  13   1   3 237.135 154.104   5
  13  -1  -3 420.534 176.895   5
 -13  -1   3 180.505 375.524   1
  13   1   4 2850.34 268.053   5
  13  -1  -4 3048.93 292.323   5
 -13  -1   5 690.590 530.582   1
  13  -1  -5 2280.01 263.360   5
  13  -1  -6 563.062 193.998   5
  13  -1  -7 256.606 178.730   5
  13  -1  -8 608.298 188.599   5
  13  -1  -9 876.782 209.722   5
  13  -1 -10 2694.32 427.751   5
  13  -1 -11 2529.90 363.359   5
 -13   1 -14 601.882 140.409   3
 -13   1 -15 842.767 142.912   3
 -13   1 -16 463.097 108.170   3
 -13   1 -17 554.929 101.268   3
 -13   1 -18 304.893 71.7598   3
 -13  -2 -17 353.406 83.9699   3
 -13  -2 -16 73.4944 87.0078   3
 -13  -2 -15 225.674 113.065   3
  13   2 -14 46.4531 107.825   5
 -13  -2 -14 51.5960 112.562   3
  13   2 -13 172.934 125.844   5
  13   2 -12 523.293 153.485   5
  13   2 -11 164.556 161.714   5
  13   2 -10 714.571 216.158   5
  13   2  -9 1946.70 244.599   5
  13   2  -8 1580.88 227.519   5
  13   2  -7 149.569 188.345   5
  13   2  -6 1339.84 230.687   5
  13   2  -5 3181.41 290.995   5
 -13   2   5 1346.62 629.497   1
  13   2  -4 1173.42 211.384   5
 -13   2   4 582.565 466.447   1
  13   2  -3 5593.25 349.538   5
 -13   2   3 1994.81 700.263   1
  13  -2   2 1510.72 261.541   5
  13   2  -2 1087.20 220.686   5
  13  -2   1 566.853 213.650   5
  13   2  -1 867.510 197.423   5
  13  -2   0 2218.89 270.682   5
  13   2   0 1984.39 239.615   5
  13   2   1 1094.41 205.896   5
  13  -2  -1 855.552 211.736   5
  13  -2  -2 1453.29 226.402   5
  13   2   2 1367.71 209.285   5
  13  -2  -3 5925.29 384.078   5
  13   2   3 5033.54 325.398   5
  13  -2  -4 1402.06 230.441   5
  13   2   4 1072.10 188.302   5
 -13  -2   5 1145.21 658.391   1
  13  -2  -5 3278.51 306.709   5
  13  -2  -6 1285.18 220.815   5
  13  -2  -7 222.839 181.108   5
  13  -2  -8 1905.03 252.700   5
  13  -2  -9 1209.28 271.527   5
  13  -2 -10 7772.75 540.549   5
 -13   2 -13 220.571 123.585   3
 -13   2 -14 94.4103 109.595   3
 -13   2 -15 152.360 100.978   3
 -13   2 -16 66.3997 85.1193   3
 -13   2 -17 386.303 93.2570   3
 -13   2 -18 12.5127 54.6126   3
 -13  -3 -17 94.2069 67.2495   3
 -13  -3 -16 783.910 113.282   3
 -13  -3 -15 1045.73 147.149   3
  13   3 -14 1527.80 170.434   5
 -13  -3 -14 2770.08 220.593   3
  13   3 -13 732.515 150.476   5
  13   3 -12 920.260 173.897   5
  13   3 -11 236.426 165.385   5
  13   3 -10 645.375 201.690   5
  13   3  -9 1289.68 217.005   5
  13   3  -8 3757.99 302.329   5
  13   3  -8 3734.76 317.480   4
  13   3  -7 306.636 171.884   5
  13   3  -7 482.726 193.439   4
  13   3  -6 616.032 184.235   5
  13   3  -6 489.529 184.010   4
  13   3  -5 573.560 180.698   5
  13   3  -5 590.522 182.736   4
  13   3  -4 1017.18 203.099   5
  13   3  -4 1090.63 214.666   4
 -13   3   3 16.3543 309.895   1
  13   3  -3 531.732 179.466   5
  13   3  -3 447.657 184.135   4
 -13   3   2 93.6326 300.070   1
  13   3  -2 505.103 177.846   5
  13   3  -2 679.498 206.723   4
  13   3  -1 1802.41 235.213   5
  13  -3   0 7.30407 178.518   5
  13   3   0 266.596 165.285   5
  13  -3  -1 2538.61 299.997   5
  13   3   1 2098.99 246.738   5
  13  -3  -2 738.570 212.091   5
  13   3   2 472.877 167.338   5
  13  -3  -3 440.418 198.195   5
  13   3   3 436.684 159.633   5
  13  -3  -4 1349.43 237.807   5
  13   3   4 997.928 184.254   5
 -13  -3   5 206.315 424.095   1
  13  -3  -5 734.446 204.323   5
  13  -3  -6 797.819 216.706   5
  13  -3  -7 544.132 226.567   5
  13  -3  -8 2423.45 285.461   5
  13  -3 -10 37.8483 179.979   5
  13  -3 -11-27.1273 168.932   5
 -13   3 -13 887.536 151.182   3
 -13   3 -14 2666.46 206.486   3
 -13   3 -15 1078.29 139.789   3
 -13   3 -16 699.292 109.145   3
 -13   3 -17 38.8903 67.5956   3
 -13   3 -18 60.1869 53.2209   3
 -13  -4 -16 102.939 75.6624   3
 -13  -4 -15 54.5289 88.0238   3
  13   4 -14 340.178 114.549   5
 -13  -4 -14 447.720 127.365   3
  13   4 -13 396.267 128.316   5
 -13  -4 -13 644.359 154.292   3
  13   4 -12 1197.67 178.792   5
  13   4 -11 415.537 155.982   5
  13   4 -10 2721.65 247.144   5
  13   4 -10 1978.60 250.563   4
  13   4  -9 3212.56 276.229   5
  13   4  -9 3119.40 282.097   4
  13   4  -8 1655.11 240.795   5
  13   4  -8 1879.32 263.648   4
  13   4  -7 370.258 171.686   5
  13   4  -7 420.116 188.154   4
  13   4  -6 959.886 215.831   5
  13   4  -6 1105.92 233.642   4
  13   4  -5 1799.70 239.620   5
  13   4  -5 1900.53 255.358   4
  13   4  -4 1308.97 218.100   5
  13   4  -4 1491.12 234.754   4
 -13   4   3 295.035 390.059   1
  13  -4   3-21.0969 166.557   5
  13   4  -3 785.253 201.157   5
  13   4  -3 839.556 215.887   4
  13   4  -2 544.746 185.869   5
  13   4  -2 651.748 197.583   4
 -13   4   2 129.403 316.269   1
  13   4  -1 3087.89 347.692   5
  13   4  -1 2042.40 256.647   4
  13  -4   0-9.53828 184.949   5
  13   4   0 182.658 157.660   5
  13   4   1 2008.23 239.098   5
  13   4   2 712.568 173.557   5
  13   4   3 739.903 178.241   5
  13   4   4 1086.82 183.595   5
  13  -4  -4-96.9878 179.478   5
  13  -4  -8-134.962 205.630   5
  13  -4  -9-8.25853 170.564   5
  13  -4 -11-26.1066 158.784   5
 -13   4 -13 567.423 131.467   3
 -13   4 -14 466.616 117.014   3
 -13   4 -15 78.7730 85.6484   3
 -13   4 -16 71.4555 76.9945   3
 -13   4 -17 199.317 73.6339   3
 -13   4 -18 51.5627 48.9030   3
 -13  -5 -15 149.756 82.3086   3
  13   5 -14 80.5975 95.6758   5
 -13  -5 -14 156.994 110.439   3
  13   5 -13 872.791 147.767   5
 -13  -5 -13 1290.77 171.933   3
  13   5 -12 2903.10 233.839   5
  13   5 -11 6314.60 362.685   5
  13   5 -11 7008.66 376.965   4
  13   5 -10 863.289 200.701   5
  13   5 -10 1417.21 208.479   4
  13   5  -9 374.643 191.051   5
  13   5  -9 979.778 213.329   4
  13   5  -8 701.740 196.716   5
  13   5  -8 756.726 203.690   4
  13   5  -7 136.850 150.676   5
  13   5  -7 131.379 154.484   4
  13   5  -6-141.922 159.162   5
  13   5  -6 97.0992 173.789   4
  13   5  -5 1231.07 231.055   5
  13   5  -5 1251.32 241.400   4
  13   5  -4 274.290 163.542   5
  13   5  -4 380.071 180.707   4
  13   5  -3 983.080 200.462   5
  13   5  -3 882.681 213.584   4
  13   5  -2 813.985 203.105   5
  13   5  -2 1066.35 213.096   4
  13   5  -1 2465.52 336.438   5
  13   5  -1 3268.88 404.711   4
  13   5   0 66.9626 151.738   5
  13   5   0 42.7503 149.266   4
  13   5   1 1761.51 224.585   5
  13  -5  -2 33.0389 189.349   5
  13   5   2 952.133 190.906   5
  13   5   3 1120.50 193.967   5
  13  -5  -3 124.497 197.373   5
  13  -5  -5-15.4738 186.821   5
  13  -5  -6-61.4426 190.576   5
  13  -5  -9 134.904 198.833   5
  13  -5 -10-28.9675 171.458   5
  13  -5 -12 6.07237 144.792   5
 -13   5 -12 3300.72 228.241   3
 -13   5 -13 1222.71 152.249   3
 -13   5 -14 89.0560 89.5625   3
 -13   5 -15 111.469 80.8035   3
 -13   5 -16 132.590 72.9506   3
 -13   5 -17 22.2680 55.3331   3
  13   6 -14 188.731 93.5146   5
  13   6 -13 235.514 109.182   5
 -13  -6 -13 356.939 114.697   3
  13   6 -12 333.730 132.785   5
  13   6 -12 351.985 142.832   4
  13   6 -11 30.2558 132.739   5
  13   6 -11-55.4847 140.711   4
  13   6 -10 300.138 166.348   5
  13   6 -10 888.601 193.608   4
  13   6  -9 353.616 173.260   5
  13   6  -9 513.310 176.831   4
  13   6  -8 536.676 177.120   5
  13   6  -8 571.636 182.653   4
  13   6  -7 363.634 160.404   5
  13   6  -7 581.928 186.385   4
  13   6  -6 3353.24 295.974   5
  13   6  -6 3447.78 309.059   4
  13   6  -5 6263.43 393.655   4
  13   6  -4 1959.38 246.693   4
  13  -6   3-134.706 187.744   5
  13   6  -3 1372.10 241.639   4
  13  -6   2 364.021 226.931   5
  13   6  -2 692.422 202.000   4
  13   6  -1 116.979 157.371   5
  13   6  -1 84.8986 171.222   4
  13   6   0-45.1698 147.233   5
  13   6   0-80.5237 160.532   4
  13  -6  -1-92.7834 185.730   5
  13   6   1 85.3103 146.016   5
  13   6   1 128.278 160.482   4
  13  -6  -2-58.1126 189.673   5
  13   6   2 763.092 185.311   5
  13   6   3 1169.75 190.020   5
  13  -6  -3 106.480 191.375   5
  13  -6  -4-20.5857 200.035   5
  13  -6  -5 115.482 188.606   5
  13  -6  -6 203.174 238.133   5
  13  -6  -7 33.2386 175.771   5
  13  -6 -10 11.5285 157.810   5
  13  -6 -11-103.005 173.419   5
 -13   6 -12 406.112 113.759   3
 -13   6 -13 472.776 108.537   3
 -13   6 -14 288.545 94.2007   3
 -13   6 -15 243.608 82.3565   3
 -13   6 -16 116.655 66.1294   3
 -13   6 -17 44.6624 46.6472   3
  13   7 -13 877.358 130.496   5
  13   7 -12 853.947 147.113   5
  13   7 -12 942.177 167.972   4
  13   7 -11 1680.44 209.684   5
  13   7 -11 1984.70 220.576   4
  13   7 -10 144.020 143.723   5
  13   7 -10 268.275 145.346   4
  13   7  -9 828.014 187.206   5
  13   7  -9 775.846 187.996   4
  13   7  -8 2026.88 245.596   5
  13   7  -8 1868.85 246.910   4
  13   7  -7 588.305 187.100   4
  13   7  -6 260.998 169.008   4
  13   7  -5 586.627 188.697   4
  13   7  -4 5875.15 380.660   4
  13   7  -3 1577.84 222.720   4
  13  -7   2 15.2703 194.457   5
  13   7  -2 717.249 188.839   4
  13  -7   1 81.6872 193.119   5
  13   7  -1 656.699 199.125   4
  13   7   0 523.670 175.451   4
  13  -7  -1 17.0631 199.563   5
  13   7   1 379.620 156.680   5
  13   7   1 540.633 173.635   4
  13   7   2 676.692 173.554   5
  13   7   2 689.999 184.242   4
  13   7   3 1405.15 199.451   5
  13  -7  -7 21.5694 197.047   5
  13  -7  -9-56.5718 179.767   5
 -13   7 -11 2238.70 178.926   3
 -13   7 -12 1113.09 135.024   3
 -13   7 -13 1250.56 131.613   3
 -13   7 -14 82.0018 71.6760   3
 -13   7 -15 106.193 63.3621   3
 -13   7 -16 94.1158 54.9193   3
  13   8 -13 291.466 100.893   5
  13   8 -12 80.9668 107.148   5
  13   8 -12 79.2913 127.083   4
  13   8 -11 903.807 154.810   5
  13   8 -11 987.030 162.672   4
  13   8 -10 2720.49 245.547   5
  13   8 -10 3276.94 257.091   4
  13   8  -9 2532.48 256.791   5
  13   8  -9 3180.19 269.870   4
  13   8  -8 1643.33 224.458   4
  13   8  -7 430.801 181.896   4
  13   8  -6 76.7804 154.511   4
  13   8  -5 387.524 186.326   4
  13   8  -4 608.464 189.551   4
  13   8  -3 904.738 192.881   4
  13   8  -2 580.661 186.039   4
  13   8  -1 512.223 202.835   4
  13   8   0 36.4263 143.013   4
  13  -8  -1 1291.58 291.499   5
  13   8   1 129.070 147.806   4
  13   8   2 743.455 177.066   5
  13   8   2 753.633 178.791   4
  13   8   3 745.646 187.348   5
  13  -8  -3 669.923 256.005   5
  13  -8  -4 25.3750 185.881   5
  13  -8  -5 122.613 210.296   5
  13  -8  -6-66.2023 184.120   5
  13  -8  -7 29.4978 186.606   5
 -13   8 -10 3064.70 194.786   3
 -13   8 -11 985.395 122.928   3
 -13   8 -12 106.502 84.0618   3
 -13   8 -13 511.751 88.9855   3
 -13   8 -14 165.032 65.8146   3
 -13   8 -15 122.434 55.6292   3
  13   9 -13 214.844 88.8881   5
  13   9 -12 116.655 107.221   5
  13   9 -12 92.1449 110.409   4
  13   9 -11 438.053 129.285   5
  13   9 -11 401.374 136.563   4
  13   9 -10 687.151 152.318   5
  13   9 -10 772.508 163.763   4
  13   9  -9 941.891 174.276   5
  13   9  -9 809.466 172.821   4
  13   9  -8 1054.89 203.714   4
  13   9  -7 264.830 154.336   4
  13   9  -6 54.6380 147.811   4
  13   9  -5 1347.01 208.612   4
  13   9  -4 310.064 161.428   4
  13   9  -3 47.9786 154.672   4
  13   9  -2-18.9213 151.408   4
  13   9  -1 707.569 182.701   4
  13   9   0-27.0639 143.059   4
  13   9   1 693.207 179.477   4
  13   9   2 43.3355 131.678   5
  13   9   2 89.0277 135.902   4
  13   9   3 101.888 128.298   5
 -13   9  -8 894.289 125.407   3
 -13   9  -9 855.518 121.049   3
 -13   9 -10 727.835 109.939   3
 -13   9 -11 473.974 91.6986   3
 -13   9 -12 46.5475 62.8834   3
 -13   9 -13 255.007 65.8185   3
 -13   9 -14 285.136 62.7029   3
  13  10 -13 363.006 85.4272   5
  13  10 -12 555.915 111.369   5
  13  10 -12 516.345 124.179   4
  13  10 -11 190.753 115.763   5
  13  10 -11 164.829 112.981   4
  13  10 -10 592.310 143.086   5
  13  10 -10 580.763 145.613   4
  13  10  -9 1043.03 179.814   4
  13  10  -8 459.114 160.499   4
  13  10  -7 1232.27 198.986   4
  13  10  -6 1194.26 191.477   4
  13  10  -5 973.601 191.227   4
  13  10  -4 581.812 172.601   4
  13  10  -3-24.6217 142.236   4
  13  10  -2 544.199 166.034   4
  13  10  -1 295.755 157.397   4
  13  10   0 389.726 147.882   4
  13  10   1 72.7722 133.466   4
  13  10   2 2656.68 239.308   4
  13  10   3 1.17280 118.602   5
 -13  10 -16 86.4084 129.051   6
  13  11 -13 200.120 65.8616   5
  13  11 -12 492.519 96.9720   5
  13  11 -12 506.997 105.829   4
  13  11 -11 765.463 126.077   5
  13  11 -11 857.559 138.047   4
  13  11 -10 53.4571 101.526   5
  13  11 -10 125.701 107.026   4
  13  11  -9 54.1815 123.833   4
  13  11  -8 94.3903 133.278   4
  13  11  -7 324.751 147.898   4
  13  11  -6 83.6887 131.017   4
  13  11  -5 217.563 145.824   4
  13  11  -4 364.768 155.298   4
  13  11  -3 135.815 140.311   4
  13  11  -2 512.114 154.919   4
  13  11  -1 2292.98 228.139   4
  13  11   0 2082.39 217.920   4
  13  11   1 1639.36 202.182   4
  13 -11  -9 40.5153 139.261   7
 -13  11 -15 100.925 134.857   6
  13  12 -12 183.624 70.3436   5
  13  12 -12 170.475 76.4479   4
  13  12 -11 172.497 84.2846   5
  13  12 -11 268.081 98.2367   4
  13  12 -10 414.793 111.084   5
  13  12 -10 514.239 117.892   4
  13  12  -9 568.836 123.481   5
  13  12  -9 693.446 132.672   4
  13  12  -8 126.646 116.093   4
  13  12  -7 997.485 158.634   4
  13  12  -6 2206.31 224.601   4
  13  12  -5 3157.18 249.356   4
  13  12  -4 601.668 153.986   4
  13  12  -3 143.430 132.632   4
  13  12  -2 270.714 138.330   4
  13  12  -1-13.3456 119.389   4
  13  12   0-54.5990 120.229   4
  13  12   1 46.1375 110.037   4
  13  12   2 193.298 115.628   5
  13 -12  -8 57.8900 152.717   7
  13 -12  -9 32.6474 126.857   7
 -13  12 -13 2268.68 254.509   6
  13  13 -11 39.2220 62.7158   5
  13  13 -11 77.8206 73.2587   4
  13  13 -10-7.09999 75.5427   5
  13  13 -10 68.4453 82.1509   4
  13  13  -9 138.673 95.7140   5
  13  13  -9 278.215 105.024   4
  13  13  -8 656.738 125.222   4
  13  13  -7 140.709 108.130   4
  13  13  -6 286.456 122.067   4
  13  13  -5 811.979 150.159   4
  13  13  -4 1641.13 183.565   4
  13  13  -3 894.498 157.839   4
  13  13  -2 874.878 155.188   4
  13  13  -1 94.0134 107.822   4
  13  13   0 137.393 111.934   4
  13  13   2 662.388 136.491   5
  13 -13  -7 73.5380 160.548   7
  13 -13  -8-9.73834 129.533   7
 -13  13 -10 15.1636 156.078   6
 -13  13 -11 227.125 159.174   6
  13  14 -10 427.688 83.1939   5
  13  14 -10 328.631 77.4911   4
  13  14  -9 883.835 107.612   5
  13  14  -9 1051.43 115.186   4
  13  14  -8 567.853 110.121   5
  13  14  -8 488.758 111.668   4
  13  14  -7 197.537 102.548   4
  13 -14   6-22.6407 119.753   7
  13  14  -6 52.2426 98.7433   4
  13  14  -5 220.135 104.763   4
  13  14  -4 757.508 133.714   4
  13  14  -3 163.301 102.813   4
  13  14  -2 1054.91 145.030   4
  13  14  -1 673.157 136.894   4
  13  14   0-41.0645 87.9108   4
  13  14   1 408.646 133.255   5
  13 -14  -4-0.59284 155.254   7
  13 -14  -5-20.7153 150.372   7
  13 -14  -6 33.4182 143.288   7
  13 -14  -7 196.256 143.108   7
  13 -14  -8-12.5294 101.287   7
  13  15  -8 310.829 75.4881   5
  13  15  -8 299.017 80.3898   4
  13  15  -7 162.847 79.7020   5
  13  15  -7 253.107 81.9651   4
  13  15  -6 26.1104 80.8033   4
  13 -15   5 145.166 119.943   7
  13  15  -5 412.999 97.8518   4
  13 -15   4 870.279 190.865   7
  13  15  -4 211.317 88.2440   4
  13 -15   3-18.3337 136.781   7
  13  15  -3 43.3986 84.2431   4
  13 -15   2 46.8962 148.439   7
  13  15  -2 246.599 94.0535   4
  13 -15   1-25.8671 144.383   7
  13  15  -1 1275.55 122.276   4
  13 -15   0 7.00901 150.837   7
  13  15   0 279.648 93.2546   5
  13 -15  -1 243.451 171.443   7
  13 -15  -2 382.990 169.152   7
  13 -15  -3-20.0551 141.522   7
  13 -15  -4-93.4773 149.180   7
  13 -15  -5 15.7118 130.513   7
  13 -15  -6-165.794 121.046   7
  13 -15  -7 135.470 101.802   7
  13  16  -6 738.337 86.4313   5
  13  16  -5 1092.83 104.082   5
  13  16  -4 377.630 83.3281   5
  13 -16   3 9.80147 104.691   7
  13  16  -3 64.8668 68.9502   5
  13 -16   2-87.0355 118.505   7
  13  16  -2 67.5989 71.7056   5
  13 -16   1 376.774 158.037   7
  13  16  -1-17.3701 61.5223   5
  13 -16   0-74.7286 132.326   7
  13 -16  -1 15.9618 126.068   7
  13 -16  -2 119.068 128.319   7
  13 -16  -3 69.4064 118.875   7
  13 -16  -4 152.542 118.474   7
  13 -16  -5 229.071 107.272   7
  14   0   0 217.512 172.846   5
  14   0   1 1303.58 235.698   5
  14   0  -1 887.837 203.267   5
  14   0   2 8672.81 439.608   5
  14   0  -2 8017.12 430.604   5
  14   0   3 3700.57 307.579   5
  14   0  -3 3607.73 310.214   5
  14   0  -4 1135.58 217.921   5
  14   0  -5 1201.40 225.710   5
  14   0  -6 266.699 158.930   5
  14   0  -7 1846.86 234.838   5
  14   0  -8 1810.28 279.048   5
  14   0  -9 1606.73 268.176   5
  14   0 -10 340.116 182.275   5
  14   0 -11 375.588 148.842   5
  14   0 -13 65.5771 119.408   5
 -14   0 -13 148.777 110.841   3
 -14   0 -14-3.58415 92.8498   3
 -14   0 -15 38.4453 80.9844   3
 -14   0 -16 101.340 72.4140   3
 -14   0 -17 0.94056 49.5949   3
 -14  -1 -16 358.041 81.5292   3
 -14  -1 -15 1790.37 150.107   3
 -14  -1 -14 1143.69 142.298   3
 -14  -1 -13 406.448 120.628   3
  14   1 -12 427.339 148.351   5
  14   1 -11 383.598 155.386   5
  14   1 -10 89.7010 151.380   5
  14   1  -9 274.541 179.484   5
  14   1  -8 1250.40 207.642   5
  14   1  -7 639.233 179.515   5
  14   1  -6 541.481 224.970   5
  14   1  -5 660.460 201.278   5
  14   1  -4 1361.15 225.218   5
  14   1  -3 862.470 196.520   5
  14  -1   2 406.953 194.666   5
  14   1  -2 645.159 198.131   5
  14  -1   1 2146.68 279.406   5
  14   1  -1 2852.46 304.335   5
  14  -1   0 2282.19 294.656   5
  14   1   0 2181.48 265.337   5
  14  -1  -1 2031.02 264.047   5
  14   1   1 1625.32 238.523   5
  14  -1  -2 502.777 199.457   5
  14   1   2 463.602 178.967   5
  14   1   3 1103.26 215.301   5
  14  -1  -3 837.212 212.354   5
  14   1   4 1151.28 209.591   5
  14  -1  -4 1460.47 231.410   5
  14  -1  -5 848.575 217.509   5
  14  -1  -6 65.3624 172.912   5
  14  -1  -7 595.565 187.226   5
  14  -1  -8 1030.11 253.239   5
  14  -1  -9 225.192 355.947   5
  14  -1 -10 8.81627 148.967   5
  14  -1 -12 20.3862 137.031   5
  14  -1 -13 0.12495 114.507   5
 -14   1 -13 474.489 124.866   3
 -14   1 -14 1071.60 141.387   3
 -14   1 -15 1695.17 148.485   3
 -14   1 -16 377.029 83.0806   3
 -14   1 -17 93.0821 54.1163   3
 -14  -2 -16 86.3499 66.4926   3
 -14  -2 -15 85.1150 85.6807   3
 -14  -2 -14 431.369 115.257   3
  14   2 -13 122.172 117.785   5
 -14  -2 -13 151.033 107.399   3
  14   2 -12 552.400 153.384   5
  14   2 -11 116.616 136.084   5
  14   2 -10 444.854 163.886   5
  14   2  -9 327.062 189.282   5
  14   2  -8 1043.64 204.633   5
  14   2  -7 3080.85 277.786   5
  14   2  -6 5725.88 369.994   5
  14   2  -5 2329.23 279.269   5
  14  -2   4 13.8202 153.304   5
  14   2  -4 302.391 171.031   5
  14  -2   3-56.4309 183.179   5
  14   2  -3 74.0263 160.057   5
  14   2  -2 590.528 186.554   5
  14   2  -1 334.817 167.694   5
  14  -2   0 156.067 196.701   5
  14   2   0 121.520 149.126   5
  14  -2  -1 516.469 218.984   5
  14   2   1 333.669 168.582   5
  14  -2  -2 847.364 221.708   5
  14   2   2 729.655 194.505   5
  14  -2  -3 50.2568 168.809   5
  14   2   3 64.1871 144.959   5
  14  -2  -4 292.688 179.620   5
  14   2   4 309.444 154.538   5
  14  -2  -5 3122.63 310.794   5
  14  -2  -6 5878.74 403.100   5
  14  -2  -7 3299.34 313.398   5
  14  -2  -8 607.068 227.939   5
  14  -2 -10-45.4826 162.107   5
  14  -2 -11 82.7682 152.059   5
 -14   2 -13 94.1876 98.1221   3
 -14   2 -14 454.234 110.655   3
 -14   2 -15 5.29533 74.6169   3
 -14   2 -16 11.8477 62.0060   3
 -14   2 -17 525.251 71.4270   3
 -14  -3 -16 158.013 59.7788   3
 -14  -3 -15 122.154 76.0440   3
 -14  -3 -14 97.3113 91.9615   3
  14   3 -13 293.262 122.149   5
 -14  -3 -13 543.408 130.747   3
  14   3 -12 2131.44 205.776   5
  14   3 -11 1311.13 195.198   5
  14   3 -10 114.810 145.158   5
  14   3  -9 97.9297 147.572   5
  14   3  -8 161.957 153.846   5
  14   3  -7 215.955 160.568   5
  14   3  -6 134.842 165.760   5
  14  -3   5-239.595 174.140   5
  14   3  -5 235.402 177.325   5
  14   3  -4 175.278 158.799   5
  14  -3   3-64.1095 183.041   5
  14   3  -3 72.1167 147.923   5
  14   3  -2 134.191 159.437   5
  14   3  -1 549.597 183.836   5
  14  -3   0 32.5871 172.161   5
  14   3   0-15.3377 148.541   5
  14   3   1 893.234 214.932   5
  14   3   2 35.5074 139.987   5
  14  -3  -3-63.6052 179.549   5
  14   3   3 113.948 142.295   5
  14  -3  -4 31.2634 194.015   5
  14   3   4 30.4149 139.539   5
  14  -3  -5 63.5875 175.039   5
  14  -3  -8 13.7674 179.293   5
  14  -3 -11 125.453 150.885   5
 -14   3 -13 492.818 115.038   3
 -14   3 -14 40.8065 83.5899   3
 -14   3 -15 80.2684 74.5255   3
 -14   3 -16 220.850 68.0568   3
 -14   3 -17 83.6385 48.2346   3
 -14  -4 -15 53.0121 63.8459   3
 -14  -4 -14 901.108 120.800   3
  14   4 -13 152.711 111.259   5
 -14  -4 -13 205.310 104.683   3
  14   4 -12 356.210 128.740   5
  14   4 -11 255.061 140.625   5
  14   4 -10 632.978 162.411   5
  14   4  -9 2895.85 264.915   5
  14   4  -8 281.692 159.516   5
  14   4  -7 2411.89 250.646   5
  14   4  -6 4156.34 317.593   5
  14  -4   5-30.1834 159.851   5
  14   4  -5 2198.71 248.607   5
  14   4  -4 998.744 230.712   5
  14  -4   4-53.4249 163.183   5
  14   4  -3 1279.91 226.062   5
  14   4  -2 959.910 197.482   5
  14  -4   2-18.0947 164.076   5
  14   4  -1 349.662 176.426   5
  14   4   0-15.4522 135.154   5
  14  -4  -1 15.3291 186.221   5
  14   4   1 235.343 152.607   5
  14   4   2 1093.93 193.425   5
  14   4   3 1658.05 205.509   5
  14  -4  -7 59.6591 193.079   5
  14  -4 -10 0.47223 150.449   5
 -14   4 -12 539.672 124.640   3
 -14   4 -13 214.974 96.4242   3
 -14   4 -14 840.875 117.020   3
 -14   4 -15 121.817 72.4775   3
 -14   4 -16 31.6908 53.2120   3
  14   5 -13 125.748 96.8255   5
 -14  -5 -13 52.4256 88.7204   3
  14   5 -12 326.916 122.148   5
 -14  -5 -12 380.786 117.784   3
  14   5 -11 608.793 143.380   5
  14   5 -10 266.791 138.960   5
  14   5  -9 131.528 140.168   5
  14   5  -8 1634.75 216.642   5
  14   5  -7 324.239 167.478   5
  14   5  -7 371.319 176.132   4
  14   5  -6 391.642 177.161   5
  14   5  -6 196.423 172.804   4
  14   5  -5 228.299 167.458   5
  14   5  -5 143.712 163.119   4
  14   5  -4 1097.95 200.956   5
  14   5  -4 942.156 214.061   4
  14   5  -3 735.729 190.264   5
  14   5  -3 380.642 169.797   4
  14   5  -2 551.874 171.541   5
  14   5  -1 566.895 175.577   5
  14  -5   0-96.3821 186.531   5
  14   5   0 279.890 184.070   5
  14  -5  -1 12.2731 174.765   5
  14   5   1 302.522 155.108   5
  14  -5  -2 46.7215 206.897   5
  14   5   2 634.615 173.221   5
  14   5   3 596.816 159.244   5
  14  -5  -6-147.341 188.099   5
  14  -5  -7-78.7520 173.912   5
  14  -5  -8 35.0197 173.640   5
  14  -5 -11-120.362 148.082   5
 -14   5 -12 388.153 109.867   3
 -14   5 -13 12.5468 77.4735   3
 -14   5 -14 1634.71 143.608   3
 -14   5 -15 634.051 85.9799   3
 -14   5 -16 374.266 64.0345   3
  14   6 -13 117.477 84.4528   5
  14   6 -12 138.797 107.965   5
 -14  -6 -12 191.871 94.2413   3
  14   6 -11 545.311 134.469   5
  14   6 -10 1650.61 194.397   5
  14   6  -9 4535.35 297.848   5
  14   6  -9 4651.29 311.161   4
  14   6  -8 1863.87 211.390   5
  14   6  -8 1853.27 226.569   4
  14   6  -7 299.569 155.483   5
  14   6  -7 338.116 165.025   4
  14   6  -6 290.181 164.774   5
  14   6  -6 226.666 163.349   4
  14   6  -5 533.004 172.080   5
  14   6  -5 508.139 227.470   4
  14   6  -4 1323.20 201.978   5
  14   6  -4 1372.31 222.926   4
  14   6  -3 2203.48 243.672   5
  14   6  -3 2067.72 252.489   4
  14   6  -2 1630.55 218.832   5
  14   6  -2 1801.47 235.829   4
  14   6  -1 50.7922 137.645   5
  14  -6   0 58.7754 174.781   5
  14   6   0 90.6447 138.102   5
  14   6   1 74.6571 136.639   5
  14   6   2 1636.94 210.035   5
  14   6   3 1590.85 204.380   5
  14  -6  -8-55.7453 175.950   5
  14  -6 -10 407.151 177.719   5
 -14   6 -11 856.942 127.696   3
 -14   6 -12 256.897 91.7390   3
 -14   6 -13 235.248 82.2608   3
 -14   6 -14 316.989 76.0023   3
 -14   6 -15 64.7572 54.0143   3
  14   7 -13 705.467 104.730   5
  14   7 -12 753.449 129.114   5
  14   7 -11 896.666 146.229   5
  14   7 -10 63.9640 113.619   5
  14   7  -9 150.429 133.520   5
  14   7  -9-75.1788 139.647   4
  14   7  -8 150.659 141.993   5
  14   7  -8 320.483 161.733   4
  14   7  -7 179.103 141.065   5
  14   7  -7 288.153 162.039   4
  14   7  -6 583.000 169.802   5
  14   7  -6 455.069 170.338   4
  14   7  -5 383.922 164.937   5
  14   7  -5 252.529 165.642   4
  14   7  -4 946.602 207.260   5
  14   7  -4 1118.39 216.192   4
  14   7  -3 316.391 165.512   5
  14   7  -3 500.574 182.469   4
  14   7  -2-80.9737 155.579   5
  14   7  -2-111.075 151.736   4
  14   7  -1 610.845 172.155   5
  14   7  -1 690.122 183.863   4
  14  -7   0-202.956 196.239   5
  14   7   0 1822.84 219.759   5
  14  -7  -1 8.90175 176.261   5
  14   7   1 536.857 155.619   5
  14  -7  -2-24.7208 190.538   5
  14   7   2-15.8862 127.259   5
  14   7   3 301.210 148.521   5
  14  -7  -6-146.155 190.927   5
  14  -7  -7 295.305 190.934   5
  14  -7  -8-24.8275 169.956   5
 -14   7 -10 174.382 91.3810   3
 -14   7 -11 924.646 116.753   3
 -14   7 -12 1013.78 111.358   3
 -14   7 -13 1110.78 107.162   3
 -14   7 -14 156.810 60.4259   3
  14   8 -13 26.3211 68.0569   5
  14   8 -12 703.062 119.196   5
  14   8 -11 182.126 103.482   5
  14   8 -10 83.9423 110.276   5
  14   8 -10-69.3015 120.687   4
  14   8  -9 254.914 127.003   5
  14   8  -9 149.689 138.404   4
  14   8  -8 836.030 204.140   5
  14   8  -8 1782.20 204.528   4
  14   8  -7 620.052 158.128   5
  14   8  -7 572.469 174.957   4
  14   8  -6 3323.73 263.617   5
  14   8  -6 3453.15 281.516   4
  14   8  -5 3212.32 269.517   5
  14   8  -5 3303.45 279.773   4
  14   8  -4 1061.03 187.745   5
  14   8  -4 1048.87 205.261   4
  14   8  -3 96.8767 135.568   5
  14   8  -3 79.8021 137.554   4
  14   8  -2 178.705 146.565   5
  14   8  -2 19.6259 134.924   4
  14   8  -1 123.897 145.596   5
  14   8  -1 65.0701 147.660   4
  14   8   0 327.876 149.801   5
  14   8   1 141.698 128.439   5
  14   8   2 109.080 123.611   5
  14   8   3 13.7488 114.528   5
 -14   8  -9 216.535 88.0256   3
 -14   8 -10 40.9142 75.5422   3
 -14   8 -11 58.3712 64.6058   3
 -14   8 -12 775.700 87.3780   3
 -14   8 -13 35.6986 48.5194   3
  14   9 -12 269.331 90.7657   5
  14   9 -11 1211.79 143.816   5
  14   9 -10 296.103 113.555   5
  14   9 -10 350.496 132.252   4
  14   9  -9 190.904 120.566   5
  14   9  -9 172.362 122.253   4
  14   9  -8 308.759 134.228   5
  14   9  -8 333.442 137.067   4
  14   9  -7 91.5664 128.468   5
  14   9  -7 340.602 142.473   4
  14   9  -6 41.7565 130.715   5
  14   9  -6 127.048 145.056   4
  14   9  -5 128.505 141.856   5
  14   9  -5 109.807 143.291   4
  14   9  -4 961.380 175.027   5
  14   9  -4 763.956 174.678   4
  14   9  -3 599.703 161.060   5
  14   9  -3 643.656 178.322   4
  14   9  -2 742.378 171.044   5
  14   9  -2 742.787 175.494   4
  14   9  -1 793.690 163.264   5
  14   9  -1 745.750 173.436   4
  14   9   0 1463.58 191.840   5
  14   9   0 1159.45 190.174   4
  14   9   1 755.627 160.449   5
  14   9   2 614.280 146.622   5
 -14   9  -9 107.547 63.6882   3
 -14   9 -10 221.026 66.1070   3
 -14   9 -11 815.855 79.7987   3
  14  10 -12 183.469 71.9411   5
  14  10 -11 122.710 87.4057   5
  14  10 -10 163.179 98.0272   5
  14  10 -10 188.378 109.302   4
  14  10  -9 1372.85 160.735   5
  14  10  -9 1340.21 163.418   4
  14  10  -8 1870.06 186.479   5
  14  10  -8 1664.18 189.983   4
  14  10  -7 1212.79 174.536   5
  14  10  -7 1111.53 173.497   4
  14  10  -6 1004.59 158.867   5
  14  10  -6 1096.48 176.622   4
  14  10  -5 502.039 146.654   5
  14  10  -5 454.337 152.887   4
  14  10  -4 816.608 163.419   5
  14  10  -4 683.366 169.945   4
  14  10  -3 893.444 167.629   5
  14  10  -3 772.666 172.076   4
  14  10  -2 358.728 136.584   5
  14  10  -2 494.731 157.029   4
  14  10  -1 712.562 151.084   5
  14  10  -1 600.527 155.423   4
  14  10   0 32.8869 120.706   5
  14  10   0 115.268 131.650   4
  14  10   1 480.386 136.181   5
  14  10   2 330.924 127.427   5
  14  11 -11 314.925 81.2975   5
  14  11 -10 306.864 95.9228   5
  14  11 -10 238.562 98.8543   4
  14  11  -9 391.315 111.314   5
  14  11  -9 368.271 120.559   4
  14  11  -8 605.450 126.999   5
  14  11  -8 826.178 139.438   4
  14  11  -7 179.395 117.009   5
  14  11  -7 275.518 141.597   4
  14  11  -6 340.742 127.942   5
  14  11  -6 256.649 127.870   4
  14  11  -5 489.570 134.151   5
  14  11  -5 340.100 139.603   4
  14  11  -4 2293.66 206.593   5
  14  11  -4 2028.64 202.734   4
  14  11  -3 408.217 133.691   5
  14  11  -3 184.516 126.581   4
  14  11  -2 76.9795 116.847   5
  14  11  -2 2.28609 117.979   4
  14  11  -1 175.043 121.636   5
  14  11  -1 192.887 123.201   4
  14  11   0 1.59192 112.917   5
  14  11   1 157.485 115.691   5
  14  11   2 39.4667 96.2185   5
  14 -11  -8-20.1435 122.754   7
  14  12 -10 217.310 77.5174   5
  14  12  -9 1032.90 119.193   5
  14  12  -9 923.314 122.022   4
  14  12  -8 452.703 111.971   5
  14  12  -8 386.407 105.445   4
  14  12  -7 149.125 101.181   5
  14  12  -7 153.812 101.473   4
  14  12  -6 568.589 129.341   5
  14  12  -6 492.945 128.583   4
  14  12  -5 595.484 134.114   5
  14  12  -5 590.779 133.456   4
  14  12  -4 552.006 128.073   5
  14  12  -4 507.809 132.482   4
  14  12  -3 674.605 138.112   5
  14  12  -3 654.335 137.513   4
  14  12  -2 467.287 127.498   5
  14  12  -2 464.912 132.176   4
  14  12  -1 1289.79 154.119   5
  14  12  -1 1396.58 152.047   4
  14  12   0 207.591 113.278   5
  14  12   1 126.817 102.816   5
  14 -12  -7-17.9197 131.613   7
  14 -12  -8 118.228 114.343   7
  14  13  -9 56.6309 72.4268   5
  14  13  -8 37.9366 75.4295   5
  14  13  -8 129.465 85.8548   4
  14  13  -7 163.770 91.3888   5
  14  13  -7 52.8850 100.459   4
  14  13  -6 75.7441 94.8587   5
  14  13  -6-49.4062 92.5058   4
  14  13  -5 333.967 108.787   5
  14  13  -5 322.942 108.170   4
  14  13  -4 818.701 147.151   5
  14  13  -4 973.601 142.714   4
  14  13  -3 99.9061 101.627   5
  14  13  -3-50.4320 97.9014   4
  14  13  -2 517.313 123.061   5
  14  13  -2 537.585 114.331   4
  14  13  -1 698.948 122.570   5
  14  13   0 657.461 123.491   5
  14  13   1 479.917 101.408   5
  14 -13  -5-90.6274 146.985   7
  14 -13  -6-11.7764 124.836   7
  14 -13  -7 37.9245 103.570   7
  14  14  -7 340.961 75.0720   5
  14  14  -6 768.543 106.127   5
  14  14  -6 612.186 95.1686   4
  14  14  -5 1024.13 117.529   5
  14  14  -5 763.725 106.437   4
  14 -14   4 2.03915 120.632   7
  14  14  -4 27.4902 80.8175   5
  14  14  -4-174.620 90.3091   4
  14  14  -3 138.640 84.7394   5
  14  14  -2 512.086 100.576   5
  14  14  -1-1.16520 79.8585   5
  14  14   0 154.874 73.9353   5
  14 -14  -2 9.27717 137.822   7
  14 -14  -3-39.4711 139.662   7
  14 -14  -4-6.79066 128.649   7
  14 -14  -5 442.138 166.922   7
  14 -14  -6 202.962 111.627   7
  14 -15   3 56.4663 100.372   7
  14 -15   2 137.793 116.860   7
  14 -15   1-72.3879 124.389   7
  14 -15   0 628.754 139.181   7
  14 -15  -1 113.752 121.258   7
  14 -15  -2 54.8172 112.675   7
  14 -15  -3 17.0559 107.599   7
  14 -15  -4 10.5988 97.0465   7
  15   0   0 68.2128 169.721   5
  15   0   1 950.409 209.173   5
  15   0  -1 1071.68 214.965   5
  15   0  -2-60.5257 173.795   5
  15   0   3 6.30634 156.281   5
  15   0  -3 241.339 166.828   5
  15   0  -4-29.1651 148.044   5
  15   0  -5 2023.65 250.332   5
  15   0  -6 6552.90 392.792   5
  15   0  -7 1705.55 233.696   5
  15   0  -8 238.539 169.601   5
  15   0  -9 345.830 170.924   5
  15   0 -11 50.7873 124.823   5
 -15   0 -12 713.296 128.284   3
 -15   0 -13 92.7922 86.8969   3
 -15   0 -14 161.965 80.8338   3
 -15   0 -15 84.5718 59.8219   3
 -15  -1 -15 477.436 77.7003   3
 -15  -1 -14 730.236 101.468   3
 -15  -1 -13 351.611 97.8162   3
  15   1 -10 209.339 147.583   5
  15   1  -9 374.533 159.588   5
  15   1  -8 338.375 160.016   5
  15   1  -7 107.074 151.243   5
  15   1  -6 579.957 187.173   5
  15   1  -5 32.2690 154.759   5
  15   1  -4 1149.64 220.907   5
  15  -1   4 71.7426 147.884   5
  15   1  -3 1069.07 208.708   5
  15   1  -2 679.232 181.142   5
  15   1  -1 242.298 172.967   5
  15   1   0 1878.50 242.204   5
  15  -1   0-45.6167 166.872   5
  15  -1  -1 307.953 184.341   5
  15   1   1 220.116 160.863   5
  15  -1  -2 895.591 219.026   5
  15   1   2 989.831 200.924   5
  15   1   3-9.70020 142.843   5
  15  -1  -3 1098.98 223.814   5
  15   1   4-109.217 154.639   5
  15  -1  -4 942.986 207.039   5
  15  -1  -5 141.668 174.366   5
  15  -1  -6 400.358 187.303   5
  15  -1  -7 232.474 181.033   5
  15  -1  -8 140.991 173.589   5
  15  -1 -12 59.7006 112.355   5
 -15   1 -12 630.801 121.739   3
 -15   1 -13 452.699 102.849   3
 -15   1 -14 751.382 102.150   3
 -15   1 -15 561.108 80.8422   3
 -15  -2 -14 57.4848 67.5549   3
 -15  -2 -13 30.0118 78.2135   3
 -15  -2 -12 200.902 101.291   3
  15   2 -11 331.539 137.715   5
  15   2 -10 569.212 153.425   5
  15   2  -9 3191.20 263.340   5
  15   2  -8 529.219 171.724   5
  15   2  -7 888.374 180.347   5
  15   2  -6 2274.02 245.187   5
  15   2  -5 103.942 154.362   5
  15   2  -4 1121.23 205.046   5
  15   2  -3 1623.91 244.591   5
  15  -2   3 117.960 167.664   5
  15   2  -2 1503.05 227.406   5
  15  -2   1 77.0593 174.769   5
  15   2  -1 97.3570 143.013   5
  15  -2   0-57.9438 173.283   5
  15   2   0 284.776 153.431   5
  15   2   1 32.2643 144.130   5
  15   2   2 1718.84 218.865   5
  15   2   3 2812.02 281.730   5
  15  -2  -8 51.5919 159.867   5
  15  -2  -9 50.9511 151.749   5
  15  -2 -11 19.8240 136.388   5
 -15   2 -12 249.777 111.241   3
 -15   2 -13 76.6013 79.9333   3
 -15   2 -14 145.460 71.1003   3
 -15   2 -15 0.16395 52.6296   3
 -15  -3 -14 1054.13 104.659   3
 -15  -3 -13 45.1598 76.1531   3
  15   3 -12 64.4702 101.971   5
 -15  -3 -12 196.732 97.6480   3
  15   3 -11 50.3551 123.527   5
  15   3 -10 214.546 142.639   5
  15   3  -9 467.472 153.758   5
  15   3  -8 887.877 171.444   5
  15   3  -7 69.9049 142.195   5
  15   3  -6 185.674 145.534   5
  15   3  -5 295.024 161.181   5
  15   3  -4 696.416 183.033   5
  15   3  -3 1051.64 199.325   5
  15  -3   2-31.5865 163.575   5
  15   3  -2 794.899 188.323   5
  15  -3   1-141.066 183.265   5
  15   3  -1 18.6884 149.366   5
  15   3   0 266.334 157.904   5
  15  -3  -1 29.4547 166.773   5
  15   3   1 34.3836 142.641   5
  15  -3  -2 97.2414 174.484   5
  15   3   2 788.148 174.080   5
  15   3   3 1073.76 193.742   5
  15  -3  -6-34.2915 173.795   5
  15  -3  -7-3.25237 155.924   5
  15  -3  -9 27.6509 155.464   5
  15  -3 -10 68.1933 142.625   5
  15  -3 -12-25.2784 112.401   5
 -15   3 -12 136.428 89.3432   3
 -15   3 -13 96.4339 74.4628   3
 -15   3 -14 1073.96 105.073   3
 -15   3 -15 1521.48 103.857   3
 -15  -4 -13 36.5604 67.8857   3
  15   4 -12 152.341 101.907   5
 -15  -4 -12 285.958 96.4352   3
  15   4 -11 114.243 116.745   5
  15   4 -10 123.861 123.368   5
  15   4  -9 1290.96 184.729   5
  15   4  -8 1562.29 195.974   5
  15   4  -7 638.419 172.494   5
  15   4  -6 1617.32 217.024   5
  15   4  -5 144.443 153.212   5
  15   4  -4 348.417 157.463   5
  15   4  -3 943.920 193.910   5
  15  -4   3 121.188 171.135   5
  15   4  -2 1036.25 203.824   5
  15   4  -1 239.258 154.607   5
  15  -4   0 172.903 217.261   5
  15   4   0 151.120 140.998   5
  15  -4  -1 88.1790 176.832   5
  15   4   1 177.691 140.252   5
  15   4   2 852.845 201.838   5
  15  -4  -2 190.685 224.310   5
  15   4   3 776.192 172.385   5
  15  -4  -6-50.7809 177.503   5
  15  -4  -7-17.0604 161.812   5
  15  -4  -8 70.4883 177.837   5
  15  -4 -10-14.5641 141.810   5
  15  -4 -11 207.635 133.810   5
 -15   4 -11 59.0974 85.2645   3
 -15   4 -12 244.486 86.3086   3
 -15   4 -13 7.91244 65.6910   3
 -15   4 -14 415.640 73.9691   3
  15   5 -12 765.240 122.557   5
 -15  -5 -12 1059.84 120.444   3
  15   5 -11 1260.65 153.245   5
  15   5 -10 34.7095 104.751   5
  15   5  -9 150.174 125.049   5
  15   5  -8 200.966 139.563   5
  15   5  -7 250.469 139.068   5
  15   5  -6 216.607 146.829   5
  15   5  -5 254.058 155.141   5
  15   5  -4 220.809 137.743   5
  15   5  -3 419.213 166.435   5
  15  -5   2 356.086 207.940   5
  15   5  -2 562.150 161.243   5
  15   5  -1 1391.33 204.580   5
  15   5   0 7516.42 370.014   5
  15   5   1 1310.18 188.595   5
  15   5   2 491.953 198.599   5
  15   5   3 195.594 130.049   5
  15  -5  -8 206.706 174.460   5
  15  -5 -10 66.2838 138.362   5
 -15   5 -11 1528.63 136.475   3
 -15   5 -12 1133.35 115.145   3
 -15   5 -13 210.982 69.7732   3
 -15   5 -14 276.524 60.4390   3
  15   6 -12 815.413 117.089   5
  15   6 -11-0.57739 102.616   5
  15   6 -10 31.8783 105.221   5
  15   6  -9 832.868 153.532   5
  15   6  -8 403.096 140.046   5
  15   6  -7 997.384 174.124   5
  15   6  -6 4170.20 281.203   5
  15   6  -5 2680.19 252.181   5
  15   6  -4 427.641 155.210   5
  15   6  -3 189.584 146.106   5
  15   6  -2 820.460 173.125   5
  15   6  -1 16.1958 125.913   5
  15  -6   0 120.057 181.430   5
  15   6   0 114.379 139.607   5
  15  -6  -1-182.856 188.578   5
  15   6   1 6.62983 125.849   5
  15   6   2 664.113 157.421   5
  15   6   3 62.1191 120.499   5
  15  -6  -4 0.03313 167.710   5
  15  -6  -7 10.4788 158.604   5
  15  -6  -8-52.3859 163.389   5
 -15   6 -10 92.1999 78.6029   3
 -15   6 -11-18.4972 67.5035   3
 -15   6 -12 222.625 69.7443   3
 -15   6 -13 25.3335 50.9575   3
  15   7 -12 826.795 106.878   5
  15   7 -11 123.706 89.3222   5
  15   7 -10 186.585 108.820   5
  15   7  -9 374.113 128.789   5
  15   7  -8 1190.46 169.061   5
  15   7  -7 24.3610 116.895   5
  15   7  -6 110.991 135.390   5
  15   7  -5 354.408 147.477   5
  15   7  -4-88.5926 131.801   5
  15   7  -3 606.953 163.652   5
  15   7  -2 270.679 137.651   5
  15   7  -1 237.178 144.940   5
  15   7   0 248.707 132.615   5
  15   7   1 230.465 133.373   5
  15   7   2 274.134 134.807   5
  15  -7  -4-3.39131 158.788   5
 -15   7  -9 356.785 87.4432   3
 -15   7 -10 198.047 70.4801   3
 -15   7 -11 178.102 64.2939   3
 -15   7 -12 946.905 86.4162   3
  15   8 -11 855.536 114.044   5
  15   8 -10 411.272 113.093   5
  15   8  -9 2166.19 178.945   5
  15   8  -8 654.517 140.896   5
  15   8  -7 40.7159 118.332   5
  15   8  -6 512.563 149.919   5
  15   8  -5 167.189 126.453   5
  15   8  -4 122.248 133.079   5
  15   8  -3 891.753 167.109   5
  15   8  -2 1918.70 200.001   5
  15   8  -1 112.823 121.135   5
  15   8   0-16.6987 114.229   5
  15   8   1 4.46092 112.219   5
  15   8   2 1455.77 171.210   5
 -15   8  -8 553.507 86.1587   3
 -15   8  -9 1909.85 120.500   3
 -15   8 -10 266.798 62.1936   3
  15   9 -11 44.9202 69.5435   5
  15   9 -10 48.6562 78.8509   5
  15   9  -9 281.976 108.214   5
  15   9  -8 105.878 103.474   5
  15   9  -7 286.974 122.909   5
  15   9  -6 140.885 114.022   5
  15   9  -5 310.477 126.669   5
  15   9  -4 286.166 129.391   5
  15   9  -3 1124.49 164.822   5
  15   9  -2 45.2923 118.530   5
  15   9  -1 146.000 127.244   5
  15   9   0 508.441 139.116   5
  15   9   1 14.6149 104.791   5
  15   9   2 107.505 111.478   5
  15  10 -10 27.3660 69.2746   5
  15  10  -9 893.797 116.101   5
  15  10  -8 267.082 101.548   5
  15  10  -7 1475.45 155.293   5
  15  10  -6 1674.06 174.126   5
  15  10  -5 309.504 119.866   5
  15  10  -4 194.627 111.969   5
  15  10  -3 547.985 136.845   5
  15  10  -2 152.523 111.216   5
  15  10  -1 169.243 106.770   5
  15  10   0 52.4271 105.286   5
  15  10   1 530.943 144.873   5
  15  11  -9 79.6067 69.2350   5
  15  11  -8-34.1248 74.2290   5
  15  11  -7-22.6356 85.5858   5
  15  11  -6 63.5741 89.1287   5
  15  11  -5 200.413 107.303   5
  15  11  -4 159.081 100.983   5
  15  11  -3 69.8201 100.220   5
  15  11  -2 124.699 102.302   5
  15  11  -1 226.796 105.108   5
  15  11   0 948.635 143.816   5
  15  11   1 225.467 97.0590   5
  15 -11  -7 116.850 110.353   7
  15  12  -8 5.63248 60.0022   5
  15  12  -7 185.433 77.5958   5
  15  12  -6 907.439 113.755   5
  15  12  -5 824.938 113.806   5
  15  12  -4 324.954 95.8684   5
  15  12  -3 92.3815 86.6169   5
  15  12  -2 536.376 111.810   5
  15  12  -1 158.670 89.0492   5
  15  12   0 35.6035 77.6212   5
  15 -12  -6 143.092 110.644   7
  15  13  -6 55.2855 62.9995   5
  15  13  -5 203.927 72.0165   5
  15  13  -4 70.0764 67.1548   5
  15  13  -3 405.140 83.8537   5
  15  13  -2 94.7850 71.5966   5
  15  13  -1 10.4408 62.6448   5
  15 -13  -3 7.83631 119.190   7
  15 -13  -4 141.242 117.550   7
  15 -14   1 40.6741 111.537   7
  15 -14   0-44.6289 104.923   7
  15 -14  -1 142.354 106.217   7
  15 -14  -2-52.3174 95.0700   7
  16   0  -2-21.9581 160.097   5
  16   0   3-9.68372 130.386   5
  16   0  -3 244.392 165.653   5
  16   0  -4 277.990 161.342   5
  16   0  -5 27.8842 155.802   5
  16   0  -6-94.5141 146.096   5
  16   0 -11 95.8976 108.260   5
 -16   0 -12 237.517 80.6359   3
 -16   0 -13 4.53115 57.0489   3
 -16  -1 -13 90.0417 61.3335   3
  16   1 -12-69.7688 83.7747   5
 -16  -1 -12 192.604 76.6570   3
  16   1  -8-17.8290 137.062   5
  16   1  -7-34.0910 132.717   5
  16   1  -6 419.742 158.070   5
  16   1  -5 103.244 152.066   5
  16   1  -4 1402.22 214.373   5
  16   1  -3 6143.89 365.455   5
  16   1  -2 1120.88 205.077   5
  16  -1   2 109.835 144.871   5
  16   1  -1 835.510 186.531   5
  16  -1   0-109.575 169.955   5
  16   1   0 306.573 171.983   5
  16   1   2 11.8411 140.098   5
  16  -1  -2-118.891 173.554   5
  16  -1  -6-103.314 162.418   5
  16  -1  -8 51.6844 143.158   5
  16  -1 -10-89.1013 131.315   5
 -16   1 -11 53.7721 78.3006   3
  16  -1 -12 107.990 87.4225   5
 -16   1 -12 238.050 80.6986   3
 -16   1 -13 34.2227 55.9688   3
 -16  -2 -13 144.087 60.5699   3
  16   2 -12 21.7778 78.4445   5
 -16  -2 -12 409.930 86.0768   3
  16   2 -11 199.738 106.713   5
 -16  -2 -11 12.3485 75.7911   3
  16   2  -9 198.135 130.449   5
  16   2  -8 234.426 133.946   5
  16   2  -7 394.201 153.158   5
  16   2  -6 1771.35 214.227   5
  16   2  -5 1545.35 206.683   5
  16  -2   4 156.604 142.851   5
  16   2  -4 221.877 145.571   5
  16  -2   3-158.935 154.881   5
  16   2  -3 195.425 145.053   5
  16   2  -2 455.291 165.387   5
  16  -2   1 266.046 165.643   5
  16   2  -1 148.470 159.554   5
  16  -2   0-26.0431 154.224   5
  16   2   0 37.5684 150.890   5
  16   2   1 247.735 163.331   5
  16  -2  -3-107.875 158.300   5
  16  -2  -4-83.4267 165.690   5
  16  -2  -5 39.1430 148.496   5
  16  -2  -8-31.2852 141.255   5
  16  -2  -9 115.497 138.665   5
 -16   2 -11 69.0540 72.9641   3
 -16   2 -12 596.137 91.7528   3
 -16   2 -13 161.631 59.5217   3
 -16  -3 -12 1279.29 111.447   3
  16   3 -11-54.7749 96.0967   5
 -16  -3 -11 206.487 81.8331   3
  16   3 -10-5.16975 105.854   5
  16   3  -9 118.335 125.549   5
  16   3  -8 170.085 128.271   5
  16   3  -7 194.636 135.467   5
  16   3  -6 641.542 168.551   5
  16   3  -5 310.051 139.890   5
  16   3  -4 189.197 139.200   5
  16  -3   3-39.0640 143.361   5
  16   3  -3 266.994 139.808   5
  16   3  -2 134.040 149.265   5
  16   3  -1 1309.64 192.511   5
  16   3   0 7424.00 374.675   5
  16   3   1 1261.24 198.477   5
  16  -3  -1 102.529 167.292   5
  16  -3  -2 8.25176 163.418   5
  16   3   2-78.4245 139.506   5
  16  -3  -3 43.5771 167.692   5
  16  -3  -4-32.7824 163.860   5
  16  -3  -5-66.1803 159.330   5
  16  -3  -6 100.953 159.334   5
  16  -3  -7-68.2115 154.477   5
 -16   3 -11 194.930 74.7232   3
 -16   3 -12 1277.33 110.384   3
 -16   3 -13 95.1699 54.1516   3
 -16  -4 -11 21.2563 65.5810   3
  16   4 -10 282.157 119.116   5
  16   4  -9 599.174 135.732   5
  16   4  -8 140.060 117.183   5
  16   4  -7 1364.47 178.150   5
  16   4  -6 829.281 167.570   5
  16   4  -5 273.316 134.898   5
  16   4  -4 853.706 166.457   5
  16   4  -3 487.317 149.476   5
  16  -4   2-24.4643 156.739   5
  16   4  -2 659.700 165.931   5
  16  -4   1 81.4618 165.265   5
  16   4  -1 390.398 157.983   5
  16  -4   0-2.15099 155.095   5
  16   4   0 20.2407 126.512   5
  16   4   1 205.690 140.161   5
  16   4   2 611.767 157.108   5
  16   4   3 17.1844 120.424   5
  16  -4  -9-134.164 135.867   5
 -16   4 -10 614.781 117.586   3
 -16   4 -11 64.0928 62.9486   3
 -16   4 -12 443.990 71.8674   3
  16   5 -11 11.6580 78.9716   5
  16   5 -10 158.844 100.133   5
 -16  -5 -10 129.195 75.2018   3
  16   5  -9 420.062 123.868   5
  16   5  -8 158.407 115.491   5
  16   5  -7 210.743 116.581   5
  16   5  -6 396.280 136.328   5
  16   5  -5 13.6274 123.436   5
  16   5  -4 348.215 141.663   5
  16   5  -3 1486.36 191.379   5
  16   5  -2 584.762 150.969   5
  16   5  -1 75.6475 121.314   5
  16  -5   0 55.1319 161.201   5
  16   5   0 349.864 134.508   5
  16  -5  -1 394.479 179.071   5
  16   5   1 96.4383 125.433   5
  16  -5  -2 741.787 221.004   5
  16   5   2 317.980 130.722   5
  16  -5  -6 9.04532 149.971   5
  16  -5  -7 160.399 150.710   5
 -16   5  -9 472.748 88.7144   3
 -16   5 -10 188.286 71.0678   3
 -16   5 -11 76.6886 58.3685   3
  16   6 -11 150.760 78.2867   5
  16   6 -10 246.042 92.4651   5
  16   6  -9 1575.85 157.416   5
  16   6  -8 483.562 125.081   5
  16   6  -7 172.864 115.619   5
  16   6  -6 152.309 121.293   5
  16   6  -5 95.4590 120.204   5
  16   6  -4 67.1571 112.993   5
  16   6  -3 567.734 143.568   5
  16   6  -2 591.198 148.306   5
  16   6  -1 12.9220 120.178   5
  16   6   0 74.3902 117.414   5
  16   6   1-5.63156 109.740   5
  16   6   2 576.325 138.064   5
 -16   6  -9 1584.05 115.922   3
 -16   6 -10 318.265 66.4771   3
  16   7 -10 152.808 84.7835   5
  16   7  -9 63.0100 92.2310   5
  16   7  -8 280.960 111.300   5
  16   7  -7 365.176 111.769   5
  16   7  -6 173.084 111.458   5
  16   7  -5 127.912 117.806   5
  16   7  -4 55.9742 106.055   5
  16   7  -3 2098.31 200.870   5
  16   7  -2 795.449 150.198   5
  16   7  -1 280.690 126.892   5
  16   7   0 1557.20 180.229   5
  16   7   1 0.12014 103.430   5
  16   7   2 562.346 135.282   5
 -16   7  -7 223.556 66.4838   3
 -16   7  -8 308.603 65.8887   3
 -16   7  -9 91.1811 50.5177   3
  16   8 -10 51.7279 65.9286   5
  16   8  -9 31.6667 76.3510   5
  16   8  -8 115.440 87.7371   5
  16   8  -7 359.984 107.997   5
  16   8  -6 2337.98 186.540   5
  16   8  -5 451.515 121.250   5
  16   8  -4 198.077 112.890   5
  16   8  -3 277.887 125.629   5
  16   8  -2 20.4143 102.391   5
  16   8  -1 93.2140 103.340   5
  16   8   0 127.661 103.821   5
  16   8   1-135.756 101.534   5
  16   9  -9 326.334 76.0293   5
  16   9  -8 265.062 85.1264   5
  16   9  -7 40.6430 87.3922   5
  16   9  -6 91.9064 93.6253   5
  16   9  -5 27.7765 95.7941   5
  16   9  -4 522.503 133.949   5
  16   9  -3 79.2303 103.313   5
  16   9  -2-42.4777 97.9724   5
  16   9  -1 742.404 125.697   5
  16   9   0 2564.26 185.688   5
  16   9   1 512.761 111.702   5
  16  10  -8 117.476 63.7371   5
  16  10  -7 309.311 81.3628   5
  16  10  -6 2.55725 76.9678   5
  16  10  -5 43.7875 81.6931   5
  16  10  -4 152.494 91.4088   5
  16  10  -3 330.539 103.465   5
  16  10  -2 1.66087 87.5387   5
  16  10  -1 86.1531 83.5144   5
  16  10   0-7.73466 76.0414   5
  16  11  -6 72.6758 62.9297   5
  16  11  -5 97.3847 72.3230   5
  16  11  -4 249.822 79.7760   5
  16  11  -3 253.431 81.8508   5
  16  11  -2 330.417 84.2593   5
  16  11  -1 32.3922 64.5363   5
  17   0   0 52.8169 133.782   5
  17   0   1 57.7668 133.377   5
  17   0   3-142.642 123.254   5
  17   0  -3-83.8724 139.078   5
  17   0  -4 36.2490 142.031   5
  17   0  -5 78.1862 125.142   5
  17   0  -8-26.4405 113.981   5
  17   0  -9-157.557 108.440   5
 -17   0 -10 138.938 67.7166   3
 -17   0 -11 262.054 61.8086   3
 -17  -1 -10 54.5611 60.9457   3
  17   1  -9 24.2825 99.0085   5
  17   1  -7 17.7370 116.438   5
  17   1  -5 99.8484 149.552   5
  17   1  -4-71.8140 142.249   5
  17   1  -3-31.1728 139.093   5
  17   1  -2-38.6241 130.870   5
  17  -1  -1-33.8881 140.151   5
  17   1   1-30.5167 120.634   5
  17   1   2 83.6634 128.780   5
  17  -1  -2-12.4170 140.428   5
  17  -1  -3-105.446 151.532   5
  17  -1  -5 183.538 145.223   5
  17  -1  -6-115.096 129.669   5
  17  -1  -7 100.020 119.655   5
  17  -1 -10-19.0789 83.9111   5
 -17   1 -10 89.7859 61.1899   3
 -17   1 -11 257.762 61.7037   3
  17   2 -10 73.5497 82.5400   5
 -17  -2 -10 33.9773 58.9043   3
  17  -2   2-25.5134 121.746   5
  17   2   2-44.8149 111.917   5
  17  -2  -3 52.7453 137.567   5
  17  -2  -4 20.4773 129.622   5
  17  -2  -8 137.978 118.995   5
  17  -2  -9 31.3616 100.898   5
 -17   2 -10 11.8583 54.3672   3
  17   3  -6 62.7842 117.141   5
  17   3  -5 152.359 133.873   5
  17   3  -4 299.126 142.368   5
  17   3  -3 2964.04 237.776   5
  17   3  -2 161.655 136.591   5
  17   3  -1 163.136 139.884   5
  17  -3   0 542.576 175.212   5
  17  -3  -2 171.661 155.038   5
  17  -3  -3 6.67917 140.622   5
  17  -3  -5-44.1686 136.064   5
  17  -3  -6-32.1937 117.761   5
  17  -3  -8-13.9634 110.231   5
 -17   3  -9 427.980 80.2016   3
 -17   3 -10 25.9794 49.5169   3
  17   4  -9 57.3797 86.9737   5
  17   4  -7 69.2531 106.469   5
  17   4  -6 739.009 143.416   5
  17   4  -5 272.539 130.523   5
  17   4  -4 135.772 126.525   5
  17   4  -3 266.522 136.333   5
  17   4  -2 77.2920 121.432   5
  17   4  -1 515.867 138.358   5
  17   4   0-1.44147 113.257   5
  17  -4  -1-23.4626 135.094   5
  17  -4  -2 36.2881 132.040   5
  17   4   2 4.74046 101.877   5
  17  -4  -3 26.3883 141.055   5
  17  -4  -4-59.4833 135.863   5
  17  -4  -5-22.3262 132.351   5
  17  -4  -6 59.5611 135.076   5
 -17   4  -9 647.669 79.9199   3
  17   5  -8 81.3757 87.7669   5
  17   5  -7 51.9898 102.551   5
  17   5  -6 74.5837 105.957   5
  17   5  -5 21.3938 108.784   5
  17   5  -4 62.2115 109.477   5
  17   5  -3 559.697 135.331   5
  17   5  -2-38.9347 112.419   5
  17   5  -1 304.124 120.853   5
  17   5   0 691.616 145.326   5
 -17   5  -8 249.805 61.4091   3
  17   6  -8 32.8206 80.6580   5
  17   6  -7 10.4836 89.8373   5
  17   6  -6 1407.36 151.836   5
  17   6  -5 377.394 114.212   5
  17   6  -4 368.490 133.858   5
  17   6  -3 16.2076 105.540   5
  17   6  -2 90.4249 103.870   5
  17   6  -1 69.9605 100.607   5
  17   6   0 30.7487 98.8106   5
  17   7  -7 215.058 86.9852   5
  17   7  -6-24.0577 81.2669   5
  17   7  -5-71.9593 89.3620   5
  17   7  -4 36.0340 91.5184   5
  17   7  -3 904.289 137.276   5
  17   7  -2-34.8276 94.8072   5
  17   7  -1 55.1771 92.0354   5
  17   7   0 1045.14 139.704   5
  17   8  -6 73.9132 74.1464   5
  17   8  -5-43.5232 78.9044   5
  17   8  -4 76.2867 81.0342   5
  17   8  -3 704.927 109.530   5
  17   8  -2-7.30909 81.0430   5
  17   8  -1 95.3827 85.6175   5
  18   0   0 2.66454 98.0367   5
  18   0  -1-117.667 112.204   5
  18   0  -7-110.653 92.9351   5
  18   1  -5 75.3148 100.645   5
  18   1  -4 7.20783 101.931   5
  18   1  -3-9.70277 106.043   5
  18   1   0 36.3880 102.981   5
  18   1   1-96.5959 96.0296   5
  18  -1  -1 240.020 135.682   5
  18  -1  -4-22.5502 105.060   5
  18  -1  -6 47.7079 96.2037   5
  18  -1  -7 10.0311 82.3506   5
  18   2  -7 7.83449 77.7289   5
  18   2  -6 124.694 96.8620   5
  18   2  -5 32.8867 95.1858   5
  18   2  -4 30.1805 104.039   5
  18   2  -3-42.0927 100.296   5
  18   2  -2-5.85814 101.875   5
  18   2  -1 85.5032 104.179   5
  18  -2  -2 18.7535 109.107   5
  18  -2  -3 23.3929 105.552   5
  18  -2  -4-6.90998 105.386   5
  18  -2  -5 119.319 106.419   5
  18   3  -1 9.45435 90.2809   5
  18   4  -4 55.8394 85.8820   5
  18   4  -3 81.5629 95.0102   5
  18   4  -1 52.1020 81.3904   5
  18   5  -3 88.0726 88.1029   5
   0   0   0    0.00    0.00   0
TITL DSMSAC in P2(1)2(1)2(1)
REM P2(1)2(1)2(1) (#19 in standard setting)
CELL 1.54184  15.122956  18.806168  20.721891  90.0000  90.0000  90.0000
ZERR   13.00   0.004711   0.005306   0.003557   0.0000   0.0000   0.0000
LATT -1
SYMM -x+1/2,-y, z+1/2
SYMM -x, y+1/2,-z+1/2
SYMM  x+1/2,-y+1/2,-z
SFAC C H N O Cd
UNIT 130.00 260.00 78.00 104.00 13.00
TREF
HKLF 4
END
;
_shelx_hkl_checksum              70554
loop_
_space_group_symop_operation_xyz
'x, y, z'
'-x+1/2, -y, z+1/2'
'-x, y+1/2, -z+1/2'
'x+1/2, -y+1/2, -z'
loop_
_atom_site_label
_atom_site_type_symbol
_atom_site_fract_x
_atom_site_fract_y
_atom_site_fract_z
_atom_site_U_iso_or_equiv
_atom_site_adp_type
_atom_site_occupancy
_atom_site_site_symmetry_order
_atom_site_calc_flag
_atom_site_refinement_flags_posn
_atom_site_refinement_flags_adp
_atom_site_refinement_flags_occupancy
_atom_site_disorder_assembly
_atom_site_disorder_group
Zn1 Zn 0.9610(2) 0.0929(4) 0.54339(16) 0.0643(16) Uani 1 1 d . . . . .
Zn2 Zn 0.9872(3) 0.5925(4) 0.28194(16) 0.0722(19) Uani 1 1 d . . . . .
Zn3 Zn 0.5104(2) 0.4091(3) 1.12026(14) 0.0638(17) Uani 1 1 d . . . . .
O11 O 0.9639(19) 0.1830(14) 0.4895(10) 0.070(7) Uani 1 1 d D . . . .
N11 N 0.8469(17) 0.100(2) 0.5968(11) 0.073(11) Uani 1 1 d . . . . .
C11 C 0.961(2) 0.2392(17) 0.5225(14) 0.066(9) Uani 1 1 d D U . . .
O12 O 0.9588(18) 0.242(2) 0.5844(10) 0.085(10) Uani 1 1 d . . . . .
N12 N 0.7507(15) 0.129(2) 0.6692(11) 0.066(10) Uani 1 1 d . . . . .
C12 C 0.969(2) 0.296(2) 0.4839(15) 0.063(9) Uani 1 1 d . U . . .
O13 O 1.0031(15) 0.5033(14) 0.3278(10) 0.061(6) Uani 1 1 d . U . . .
N13 N 0.7429(15) 0.388(2) 1.0156(10) 0.064(10) Uani 1 1 d . . . . .
C13 C 0.9720(17) 0.303(2) 0.4177(11) 0.055(10) Uani 1 1 d . . . . .
H13 H 0.9746 0.2608 0.3932 0.065 Uiso 1 1 calc R U . . .
O14 O 0.8978(17) 0.5446(17) 0.3913(12) 0.087(10) Uani 1 1 d D . . . .
N14 N 0.6299(17) 0.422(2) 1.0749(9) 0.065(10) Uani 1 1 d . . . . .
C14 C 0.972(2) 0.368(2) 0.3827(13) 0.085(17) Uani 1 1 d D . . . .
H14 H 0.9808 0.3684 0.3373 0.102 Uiso 1 1 calc R U . . .
C15 C 0.9577(18) 0.4301(17) 0.4152(13) 0.048(7) Uani 1 1 d D U . . .
C16 C 0.948(2) 0.428(3) 0.4804(17) 0.083(15) Uani 1 1 d . . . . .
H16 H 0.9383 0.4716 0.5032 0.100 Uiso 1 1 calc R U . . .
C17 C 0.952(2) 0.364(2) 0.5152(17) 0.068(9) Uani 1 1 d . U . . .
H17 H 0.9432 0.3646 0.5606 0.082 Uiso 1 1 calc R U . . .
C18 C 0.952(2) 0.4973(19) 0.3746(15) 0.062(8) Uani 1 1 d D U . . .
O21 O 1.048(2) 0.040(2) 0.4440(13) 0.093(10) Uani 1 1 d . . . . .
N21 N 0.8719(18) 0.601(2) 0.2341(12) 0.083(12) Uani 1 1 d . . . . .
C21 C 0.990(2) -0.002(3) 0.4580(14) 0.081(15) Uani 1 1 d . . . . .
O22 O 0.935(2) -0.0071(18) 0.5003(14) 0.085(8) Uani 1 1 d . U . . .
N22 N 0.778(3) 0.633(3) 0.1582(17) 0.101(15) Uani 1 1 d . . . . .
C22 C 0.990(2) -0.074(3) 0.4170(18) 0.069(9) Uani 1 1 d . U . . .
O23 O 0.9997(15) -0.3244(12) 0.3371(10) 0.058(5) Uani 1 1 d D U . . .
N23 N 0.6924(18) 0.909(3) -0.1461(12) 0.082(11) Uani 1 1 d . . . . .
C23 C 0.973(2) -0.136(2) 0.4480(15) 0.059(8) Uani 1 1 d . U . . .
H23 H 0.9556 -0.1359 0.4921 0.071 Uiso 1 1 calc R U . . .
O24 O 0.9977(16) -0.2606(18) 0.2445(7) 0.075(9) Uani 1 1 d D . . . .
N24 N 0.5909(18) 0.914(2) -0.2227(11) 0.082(12) Uani 1 1 d . . . . .
C24 C 0.9818(18) -0.202(2) 0.4126(11) 0.054(7) Uani 1 1 d D U . . .
H24 H 0.9786 -0.2455 0.4356 0.065 Uiso 1 1 calc R U . . .
C25 C 0.995(2) -0.2039(14) 0.3471(9) 0.052(7) Uani 1 1 d D U . . .
C26 C 1.010(2) -0.1387(16) 0.3183(12) 0.053(7) Uani 1 1 d D U . . .
H26 H 1.0208 -0.1362 0.2731 0.064 Uiso 1 1 calc R U . . .
C27 C 1.011(3) -0.079(3) 0.3541(17) 0.072(10) Uani 1 1 d . U . . .
H27 H 1.0284 -0.0363 0.3331 0.087 Uiso 1 1 calc R U . . .
C28 C 1.000(3) -0.2679(13) 0.3047(9) 0.079(10) Uani 1 1 d D U . . .
O31 O 0.5123(13) 0.3232(13) 1.1756(9) 0.048(5) Uani 1 1 d . U . . .
C31 C 0.523(2) 0.284(2) 1.1409(18) 0.062(9) Uiso 1 1 d . . . . .
N31 N 0.4100(14) 0.4128(16) 1.0581(9) 0.047(5) Uani 1 1 d . U . . .
O32 O 0.5313(15) 0.2652(19) 1.0833(9) 0.082(10) Uani 1 1 d . . . . .
N32 N 0.3296(17) 0.396(3) 0.9704(10) 0.079(12) Uani 1 1 d . . . . .
C32 C 0.5277(18) 0.207(2) 1.1814(12) 0.048(6) Uani 1 1 d . U . . .
O33 O 0.5924(16) -0.0402(19) 1.2751(12) 0.080(9) Uani 1 1 d . . . . .
N33 N 0.1628(16) 0.086(2) 0.6795(10) 0.068(10) Uani 1 1 d . . . . .
C33 C 0.551(2) 0.139(2) 1.1504(14) 0.056(8) Uani 1 1 d . U . . .
H33 H 0.5628 0.1401 1.1054 0.067 Uiso 1 1 calc R U . . .
O34 O 0.4796(16) 0.0018(16) 1.3335(10) 0.065(6) Uani 1 1 d . U . . .
N34 N 0.0676(16) 0.084(2) 0.5986(10) 0.071(10) Uani 1 1 d . . . . .
C34 C 0.557(2) 0.070(2) 1.1844(12) 0.063(11) Uani 1 1 d . . . . .
H34 H 0.5745 0.0265 1.1643 0.075 Uiso 1 1 calc R U . . .
C35 C 0.5336(16) 0.076(2) 1.2508(12) 0.057(11) Uani 1 1 d . . . . .
C36 C 0.512(2) 0.127(2) 1.2819(13) 0.059(9) Uani 1 1 d . U . . .
H36 H 0.4956 0.1225 1.3261 0.070 Uiso 1 1 calc R U . . .
C37 C 0.511(2) 0.196(3) 1.2481(15) 0.089(18) Uani 1 1 d . . . . .
H37 H 0.4974 0.2368 1.2732 0.107 Uiso 1 1 calc R U . . .
C38 C 0.534(2) 0.003(2) 1.2904(15) 0.061(8) Uani 1 1 d . U . . .
C101 C 0.8349(17) 0.132(2) 0.6470(14) 0.059(10) Uani 1 1 d . . . . .
H101 H 0.8804 0.1575 0.6686 0.071 Uiso 1 1 calc R U . . .
C102 C 0.7664(18) 0.0664(18) 0.5812(13) 0.047(6) Uani 1 1 d . U . . .
H102 H 0.7557 0.0380 0.5441 0.056 Uiso 1 1 calc R U . . .
C103 C 0.7086(18) 0.081(3) 0.6266(13) 0.079(15) Uani 1 1 d . . . . .
H103 H 0.6501 0.0630 0.6300 0.095 Uiso 1 1 calc R U . . .
C104 C 0.710(2) 0.162(2) 0.7259(18) 0.068(9) Uani 1 1 d . U . . .
H10A H 0.6799 0.1259 0.7523 0.081 Uiso 1 1 calc R U . . .
H10B H 0.6660 0.1978 0.7118 0.081 Uiso 1 1 calc R U . . .
C105 C 0.780(2) 0.198(2) 0.7650(17) 0.065(9) Uani 1 1 d . U . . .
H10C H 0.8118 0.2330 0.7383 0.078 Uiso 1 1 calc R U . . .
H10D H 0.8231 0.1621 0.7806 0.078 Uiso 1 1 calc R U . . .
C106 C 0.734(2) 0.236(3) 0.8244(13) 0.069(12) Uani 1 1 d . . . . .
H10E H 0.6909 0.2710 0.8077 0.082 Uiso 1 1 calc R U . . .
H10F H 0.7008 0.2000 0.8495 0.082 Uiso 1 1 calc R U . . .
C107 C 0.797(2) 0.273(3) 0.8687(13) 0.079(15) Uani 1 1 d . . . . .
H10G H 0.8307 0.3098 0.8447 0.095 Uiso 1 1 calc R U . . .
H10H H 0.8391 0.2389 0.8875 0.095 Uiso 1 1 calc R U . . .
C108 C 0.7420(19) 0.3082(19) 0.9220(14) 0.050(7) Uani 1 1 d . U . . .
H10I H 0.7152 0.2707 0.9492 0.060 Uiso 1 1 calc R U . . .
H10J H 0.6933 0.3358 0.9021 0.060 Uiso 1 1 calc R U . . .
C109 C 0.797(2) 0.358(2) 0.9647(18) 0.069(9) Uani 1 1 d . U . . .
H10K H 0.8470 0.3308 0.9840 0.083 Uiso 1 1 calc R U . . .
H10L H 0.8226 0.3965 0.9381 0.083 Uiso 1 1 calc R U . . .
C110 C 0.767(2) 0.443(2) 1.0547(12) 0.064(11) Uani 1 1 d . . . . .
H110 H 0.8236 0.4656 1.0554 0.077 Uiso 1 1 calc R U . . .
C111 C 0.6974(19) 0.4608(18) 1.0921(14) 0.047(7) Uani 1 1 d . U . . .
H111 H 0.6975 0.4956 1.1253 0.057 Uiso 1 1 calc R U . . .
C112 C 0.6574(19) 0.380(3) 1.0293(13) 0.070(13) Uani 1 1 d . . . . .
H112 H 0.6201 0.3468 1.0079 0.084 Uiso 1 1 calc R U . . .
C201 C 0.863(2) 0.622(2) 0.1759(17) 0.062(9) Uani 1 1 d . U . . .
H201 H 0.9119 0.6302 0.1479 0.074 Uiso 1 1 calc R U . . .
C202 C 0.788(2) 0.580(2) 0.2568(16) 0.064(9) Uani 1 1 d . U . . .
H202 H 0.7744 0.5526 0.2940 0.077 Uiso 1 1 calc R U . . .
C203 C 0.732(2) 0.609(2) 0.2127(16) 0.066(9) Uani 1 1 d . U . . .
H203 H 0.6698 0.6116 0.2181 0.079 Uiso 1 1 calc R U . . .
C204 C 0.741(4) 0.658(4) 0.096(3) 0.120(19) Uani 1 1 d . U . . .
H20A H 0.7260 0.6164 0.0686 0.143 Uiso 1 1 calc R U . . .
H20B H 0.6854 0.6846 0.1041 0.143 Uiso 1 1 calc R U . . .
C205 C 0.803(2) 0.704(3) 0.0610(12) 0.080(16) Uani 1 1 d . . . . .
H20C H 0.8544 0.6750 0.0473 0.097 Uiso 1 1 calc R U . . .
H20D H 0.8251 0.7409 0.0910 0.097 Uiso 1 1 calc R U . . .
C206 C 0.764(3) 0.741(3) 0.001(2) 0.091(16) Uani 1 1 d . . . . .
H20E H 0.7287 0.7056 -0.0236 0.109 Uiso 1 1 calc R U . . .
H20F H 0.7221 0.7784 0.0157 0.109 Uiso 1 1 calc R U . . .
C207 C 0.825(3) 0.773(4) -0.042(2) 0.13(3) Uani 1 1 d . . . . .
H20G H 0.8663 0.7362 -0.0584 0.160 Uiso 1 1 calc R U . . .
H20H H 0.8603 0.8089 -0.0187 0.160 Uiso 1 1 calc R U . . .
C208 C 0.780(3) 0.809(3) -0.101(2) 0.093(14) Uani 1 1 d . U . . .
H20I H 0.7355 0.7761 -0.1186 0.112 Uiso 1 1 calc R U . . .
H20J H 0.8252 0.8171 -0.1346 0.112 Uiso 1 1 calc R U . . .
C209 C 0.733(3) 0.883(3) -0.088(2) 0.086(12) Uani 1 1 d . U . . .
H20K H 0.6867 0.8762 -0.0542 0.103 Uiso 1 1 calc R U . . .
H20L H 0.7763 0.9175 -0.0715 0.103 Uiso 1 1 calc R U . . .
C210 C 0.730(2) 0.948(2) -0.1931(16) 0.063(9) Uani 1 1 d . U . . .
H210 H 0.7892 0.9636 -0.1943 0.076 Uiso 1 1 calc R U . . .
C211 C 0.665(3) 0.960(3) -0.2405(15) 0.075(13) Uani 1 1 d . . . . .
H211 H 0.6688 0.9910 -0.2765 0.090 Uiso 1 1 calc R U . . .
C212 C 0.611(2) 0.888(3) -0.1688(14) 0.080(15) Uani 1 1 d . . . . .
H212 H 0.5731 0.8566 -0.1458 0.096 Uiso 1 1 calc R U . . .
C301 C 0.4117(16) 0.403(2) 0.9968(10) 0.048(8) Uani 1 1 d . . . . .
H301 H 0.4647 0.4019 0.9723 0.058 Uiso 1 1 calc R U . . .
C302 C 0.3175(16) 0.4202(18) 1.0746(12) 0.042(6) Uani 1 1 d . U . . .
H302 H 0.2954 0.4331 1.1159 0.050 Uiso 1 1 calc R U . . .
C303 C 0.2662(17) 0.406(3) 1.0210(13) 0.065(11) Uani 1 1 d . . . . .
H303 H 0.2036 0.4026 1.0183 0.078 Uiso 1 1 calc R U . . .
C304 C 0.3075(18) 0.382(2) 0.9039(13) 0.066(12) Uani 1 1 d . . . . .
H30A H 0.3569 0.3967 0.8756 0.079 Uiso 1 1 calc R U . . .
H30B H 0.2543 0.4095 0.8915 0.079 Uiso 1 1 calc R U . . .
C305 C 0.289(2) 0.297(2) 0.8959(16) 0.065(9) Uani 1 1 d . U . . .
H30C H 0.3405 0.2694 0.9107 0.078 Uiso 1 1 calc R U . . .
H30D H 0.2366 0.2830 0.9218 0.078 Uiso 1 1 calc R U . . .
C306 C 0.2717(19) 0.284(3) 0.8245(13) 0.068(12) Uani 1 1 d . . . . .
H30E H 0.3247 0.2960 0.7987 0.081 Uiso 1 1 calc R U . . .
H30F H 0.2215 0.3131 0.8092 0.081 Uiso 1 1 calc R U . . .
C307 C 0.249(2) 0.202(2) 0.8178(14) 0.055(8) Uani 1 1 d . U . . .
H30G H 0.3004 0.1736 0.8336 0.066 Uiso 1 1 calc R U . . .
H30H H 0.1982 0.1903 0.8459 0.066 Uiso 1 1 calc R U . . .
C308 C 0.228(2) 0.178(2) 0.7486(16) 0.064(9) Uani 1 1 d . U . . .
H30I H 0.1793 0.2080 0.7318 0.077 Uiso 1 1 calc R U . . .
H30J H 0.2803 0.1861 0.7212 0.077 Uiso 1 1 calc R U . . .
C309 C 0.2014(19) 0.103(2) 0.7421(13) 0.051(7) Uani 1 1 d . U . . .
H30K H 0.2539 0.0725 0.7489 0.061 Uiso 1 1 calc R U . . .
H30L H 0.1579 0.0915 0.7763 0.061 Uiso 1 1 calc R U . . .
C310 C 0.215(3) 0.069(3) 0.6260(19) 0.080(11) Uani 1 1 d . U . . .
H310 H 0.2775 0.0648 0.6238 0.096 Uiso 1 1 calc R U . . .
C311 C 0.1516(16) 0.0605(17) 0.5755(12) 0.041(6) Uani 1 1 d . U . . .
H311 H 0.1633 0.0420 0.5337 0.049 Uiso 1 1 calc R U . . .
C312 C 0.0798(19) 0.091(2) 0.6595(14) 0.053(7) Uani 1 1 d . U . . .
H312 H 0.0322 0.0993 0.6885 0.063 Uiso 1 1 calc R U . . .
loop_
_atom_site_aniso_label
_atom_site_aniso_U_11
_atom_site_aniso_U_22
_atom_site_aniso_U_33
_atom_site_aniso_U_23
_atom_site_aniso_U_13
_atom_site_aniso_U_12
Zn1 0.0345(17) 0.129(5) 0.0299(14) -0.008(2) 0.0008(12) 0.004(2)
Zn2 0.049(2) 0.133(5) 0.0345(17) -0.002(3) -0.0029(14) -0.054(3)
Zn3 0.043(2) 0.124(5) 0.0242(13) 0.000(2) -0.0026(12) 0.040(3)
O11 0.093(18) 0.075(19) 0.041(10) -0.004(12) 0.013(11) -0.001(16)
N11 0.051(13) 0.14(3) 0.031(10) -0.011(17) 0.008(9) -0.028(19)
C11 0.066(13) 0.087(15) 0.044(11) -0.017(11) 0.000(10) 0.019(11)
O12 0.081(16) 0.14(3) 0.034(9) 0.001(15) 0.009(11) -0.003(18)
N12 0.030(11) 0.12(3) 0.044(12) -0.024(16) 0.001(9) 0.007(14)
C12 0.065(13) 0.079(15) 0.046(11) -0.009(11) 0.001(10) 0.000(11)
O13 0.061(9) 0.066(11) 0.056(9) 0.013(9) 0.012(8) -0.021(9)
N13 0.040(12) 0.12(3) 0.029(10) 0.001(14) 0.010(9) -0.028(15)
C13 0.039(14) 0.11(3) 0.018(10) -0.019(15) -0.010(9) 0.007(15)
O14 0.063(15) 0.12(3) 0.073(15) 0.016(17) 0.036(13) 0.001(17)
N14 0.058(14) 0.11(3) 0.023(9) -0.016(14) 0.003(9) 0.042(17)
C14 0.061(19) 0.18(5) 0.019(10) 0.00(2) -0.001(12) 0.00(2)
C15 0.040(10) 0.066(13) 0.038(9) 0.008(10) -0.005(8) -0.009(10)
C16 0.056(19) 0.14(5) 0.056(17) 0.03(2) 0.015(14) 0.00(2)
C17 0.069(13) 0.081(15) 0.054(12) 0.008(11) 0.007(10) 0.006(11)
C18 0.052(12) 0.083(15) 0.052(11) 0.002(11) -0.003(10) -0.001(11)
O21 0.080(19) 0.13(3) 0.068(15) -0.010(18) -0.011(14) -0.030(19)
N21 0.065(16) 0.13(3) 0.048(13) -0.005(18) -0.010(11) -0.08(2)
C21 0.037(15) 0.17(5) 0.037(13) 0.01(2) 0.010(12) 0.04(2)
O22 0.079(12) 0.089(13) 0.087(12) -0.024(11) -0.006(10) 0.007(11)
N22 0.10(3) 0.13(4) 0.073(19) -0.01(2) -0.055(19) -0.05(3)
C22 0.059(12) 0.083(15) 0.065(12) -0.006(11) -0.003(10) 0.003(11)
O23 0.052(9) 0.070(11) 0.052(8) -0.010(9) -0.004(8) -0.016(9)
N23 0.057(15) 0.15(4) 0.043(12) 0.02(2) 0.010(11) 0.01(2)
C23 0.052(11) 0.082(14) 0.043(10) -0.008(11) 0.005(9) -0.004(11)
O24 0.062(13) 0.14(3) 0.025(8) -0.032(12) -0.001(8) -0.017(16)
N24 0.057(15) 0.15(4) 0.038(11) -0.017(19) 0.018(11) -0.04(2)
C24 0.040(11) 0.074(14) 0.049(11) -0.003(10) 0.002(9) -0.017(10)
C25 0.053(11) 0.077(14) 0.026(8) -0.002(10) -0.010(8) 0.005(11)
C26 0.054(11) 0.070(13) 0.035(9) -0.009(10) -0.008(9) 0.006(10)
C27 0.075(14) 0.082(15) 0.061(12) 0.011(11) -0.015(10) 0.000(12)
C28 0.074(14) 0.102(16) 0.060(13) 0.004(12) 0.002(11) -0.005(12)
O31 0.053(9) 0.056(10) 0.037(7) -0.005(8) -0.005(7) 0.026(8)
N31 0.040(8) 0.064(12) 0.036(8) -0.011(9) 0.009(7) 0.027(9)
O32 0.061(13) 0.16(3) 0.028(8) 0.047(14) -0.003(8) 0.026(16)
N32 0.054(14) 0.16(4) 0.023(9) 0.010(16) -0.006(9) 0.00(2)
C32 0.040(10) 0.070(13) 0.033(9) 0.002(10) -0.009(8) -0.008(10)
O33 0.056(14) 0.13(3) 0.057(12) 0.007(16) -0.002(11) -0.027(16)
N33 0.044(12) 0.13(3) 0.032(10) -0.006(16) 0.001(9) -0.010(17)
C33 0.049(11) 0.077(14) 0.042(10) 0.003(10) 0.004(9) -0.007(11)
O34 0.070(10) 0.076(12) 0.051(9) 0.008(9) 0.009(8) -0.022(9)
N34 0.040(11) 0.14(3) 0.036(10) -0.001(17) 0.007(9) 0.023(17)
C34 0.055(16) 0.10(3) 0.031(11) -0.005(16) 0.002(11) -0.036(19)
C35 0.027(11) 0.12(3) 0.027(11) 0.034(18) 0.005(9) -0.017(16)
C36 0.065(16) 0.09(2) 0.025(10) 0.021(14) 0.010(11) -0.004(16)
C37 0.048(18) 0.18(6) 0.038(14) -0.01(2) 0.013(13) 0.02(3)
C38 0.055(12) 0.081(14) 0.047(11) 0.001(11) -0.003(9) -0.004(11)
C101 0.024(12) 0.10(3) 0.051(16) -0.023(18) 0.015(11) 0.001(15)
C102 0.044(10) 0.052(12) 0.044(10) 0.004(10) -0.007(8) -0.020(10)
C103 0.029(13) 0.16(5) 0.045(14) 0.00(2) 0.008(10) -0.03(2)
C104 0.056(12) 0.082(15) 0.066(12) -0.010(11) 0.003(10) 0.001(11)
C105 0.053(12) 0.081(15) 0.060(12) -0.006(11) -0.003(10) -0.008(11)
C106 0.044(15) 0.13(4) 0.034(13) 0.018(18) 0.020(11) 0.02(2)
C107 0.040(15) 0.16(5) 0.036(13) -0.03(2) -0.006(11) 0.04(2)
C108 0.043(10) 0.057(13) 0.049(10) -0.011(10) 0.003(9) -0.001(10)
C109 0.055(12) 0.083(15) 0.069(13) -0.004(11) 0.005(10) -0.003(11)
C110 0.047(15) 0.12(3) 0.027(11) 0.006(16) -0.011(11) -0.016(18)
C111 0.045(10) 0.052(12) 0.045(10) -0.006(10) 0.003(9) -0.006(10)
C112 0.035(13) 0.14(4) 0.032(12) 0.000(19) -0.003(10) -0.004(18)
C201 0.061(9) 0.063(9) 0.062(9) 0.001(4) -0.003(4) 0.000(4)
C202 0.056(12) 0.073(14) 0.064(12) -0.010(11) -0.008(10) -0.009(11)
C203 0.059(12) 0.070(14) 0.068(13) -0.010(11) -0.008(10) 0.004(11)
C204 0.12(2) 0.13(2) 0.12(2) -0.006(13) -0.008(13) 0.001(13)
C205 0.036(14) 0.18(5) 0.022(11) -0.018(19) -0.004(10) 0.01(2)
C206 0.05(2) 0.15(5) 0.07(2) 0.00(3) -0.007(17) 0.01(3)
C207 0.10(3) 0.24(9) 0.06(2) 0.02(4) -0.04(2) -0.02(4)
C208 0.093(17) 0.103(18) 0.083(16) 0.011(12) -0.004(12) -0.001(12)
C209 0.085(15) 0.100(17) 0.073(14) 0.013(12) -0.006(11) 0.000(12)
C210 0.061(16) 0.08(2) 0.054(14) -0.008(15) 0.000(13) -0.020(15)
C211 0.09(3) 0.09(3) 0.041(15) -0.015(18) 0.003(15) -0.04(2)
C212 0.064(19) 0.13(4) 0.043(15) 0.02(2) -0.017(14) -0.04(2)
C301 0.037(12) 0.09(3) 0.021(9) 0.011(14) -0.001(8) 0.033(15)
C302 0.034(9) 0.055(12) 0.036(9) -0.001(9) 0.004(7) 0.016(9)
C303 0.031(12) 0.12(3) 0.043(13) 0.03(2) 0.011(10) 0.014(18)
C304 0.033(13) 0.13(4) 0.034(12) -0.001(18) -0.005(10) 0.016(17)
C305 0.054(12) 0.085(15) 0.056(12) 0.007(11) 0.004(10) -0.006(11)
C306 0.031(13) 0.14(4) 0.034(13) 0.004(18) -0.009(10) -0.012(18)
C307 0.051(11) 0.067(14) 0.047(10) 0.008(10) 0.002(9) 0.000(10)
C308 0.057(12) 0.081(15) 0.055(12) 0.002(11) -0.003(10) -0.004(11)
C309 0.046(10) 0.064(13) 0.042(10) -0.001(10) -0.008(8) 0.008(10)
C310 0.080(15) 0.091(16) 0.070(14) -0.003(12) -0.003(11) -0.011(12)
C311 0.033(9) 0.054(12) 0.035(9) -0.007(9) -0.001(7) 0.020(9)
C312 0.051(11) 0.062(13) 0.046(10) -0.008(10) -0.013(9) 0.005(10)
loop_
_atom_type_symbol
_atom_type_description
_atom_type_scat_dispersion_real
_atom_type_scat_dispersion_imag
_atom_type_scat_source
C C 0.0181 0.0091 'International Tables Vol C Tables 4.2.6.8 and 6.1.1.4'
H H 0.0000 0.0000 'International Tables Vol C Tables 4.2.6.8 and 6.1.1.4'
N N 0.0311 0.0180 'International Tables Vol C Tables 4.2.6.8 and 6.1.1.4'
O O 0.0492 0.0322 'International Tables Vol C Tables 4.2.6.8 and 6.1.1.4'
Zn Zn -1.5491 0.6778 'International Tables Vol C Tables 4.2.6.8 and 6.1.1.4'
loop_
_geom_angle_atom_site_label_1
_geom_angle_atom_site_label_2
_geom_angle_atom_site_label_3
_geom_angle
_geom_angle_site_symmetry_1
_geom_angle_site_symmetry_3
_geom_angle_publ_flag
O11 Zn1 N11 105.1(14) . . yes
O11 Zn1 C21 101.5(12) . . ?
O11 Zn1 O22 120.9(11) . . yes
N11 Zn1 C21 124.4(14) . . ?
N11 Zn1 O22 97.4(14) . . yes
O22 Zn1 C21 28.3(13) . . ?
N34 Zn1 O11 111.6(15) 1_655 . yes
N34 Zn1 N11 112.1(9) 1_655 . yes
N34 Zn1 C21 101.6(12) 1_655 . ?
N34 Zn1 O22 108.8(15) 1_655 . yes
O13 Zn2 N21 114.4(13) . . yes
O13 Zn2 O23 113.2(10) . 1_565 yes
O13 Zn2 N24 98.5(14) . 4_565 yes
O23 Zn2 N21 108.3(14) 1_565 . yes
O23 Zn2 N24 109.7(14) 1_565 4_565 yes
N24 Zn2 N21 112.5(10) 4_565 . yes
N14 Zn3 C31 97.2(13) . . ?
O31 Zn3 N14 110.4(11) . . yes
O31 Zn3 C31 25.3(10) . . ?
O31 Zn3 N31 114.5(11) . . yes
O31 Zn3 O34 115.6(9) . 3_657 yes
N31 Zn3 N14 111.8(9) . . yes
N31 Zn3 C31 102.3(13) . . ?
N31 Zn3 O34 109.7(11) . 3_657 yes
O34 Zn3 N14 92.8(12) 3_657 . yes
O34 Zn3 C31 139.9(12) 3_657 . ?
C11 O11 Zn1 114(2) . . ?
C101 N11 Zn1 128(2) . . ?
C101 N11 C102 107(2) . . ?
C102 N11 Zn1 125(2) . . ?
O11 C11 O12 126(3) . . ?
O11 C11 C12 110(3) . . ?
O12 C11 C12 124(3) . . ?
C101 N12 C103 104(3) . . ?
C101 N12 C104 130(3) . . ?
C103 N12 C104 126(3) . . ?
C11 C12 C13 132(4) . . ?
C11 C12 C17 115(3) . . ?
C13 C12 C17 112(4) . . ?
C18 O13 Zn2 112(2) . . ?
C110 N13 C109 125(3) . . ?
C112 N13 C109 131(3) . . ?
C112 N13 C110 103(3) . . ?
C12 C13 H13 116.8 . . ?
C12 C13 C14 126(4) . . ?
C14 C13 H13 116.8 . . ?
C111 N14 Zn3 129.1(19) . . ?
C112 N14 Zn3 123(3) . . ?
C112 N14 C111 107(3) . . ?
C13 C14 H14 120.6 . . ?
C15 C14 C13 119(2) . . ?
C15 C14 H14 120.6 . . ?
C14 C15 C18 116(3) . . ?
C16 C15 C14 119(4) . . ?
C16 C15 C18 124(4) . . ?
C15 C16 H16 119.3 . . ?
C15 C16 C17 121(5) . . ?
C17 C16 H16 119.3 . . ?
C12 C17 H17 118.9 . . ?
C16 C17 C12 122(3) . . ?
C16 C17 H17 118.9 . . ?
O13 C18 O14 124(3) . . ?
O13 C18 C15 118(3) . . ?
O14 C18 C15 118(3) . . ?
C201 N21 Zn2 125(2) . . ?
C201 N21 C202 108(3) . . ?
C202 N21 Zn2 127(2) . . ?
O21 C21 Zn1 80(3) . . ?
O21 C21 C22 116(3) . . ?
O22 C21 Zn1 56(3) . . ?
O22 C21 O21 136(5) . . ?
O22 C21 C22 108(4) . . ?
C22 C21 Zn1 164(3) . . ?
C21 O22 Zn1 96(3) . . ?
C201 N22 C203 102(3) . . ?
C201 N22 C204 130(4) . . ?
C203 N22 C204 128(4) . . ?
C23 C22 C21 118(3) . . ?
C27 C22 C21 125(4) . . ?
C27 C22 C23 117(4) . . ?
C28 O23 Zn2 111.3(17) . 1_545 ?
C210 N23 C209 128(3) . . ?
C210 N23 C212 106(3) . . ?
C212 N23 C209 124(4) . . ?
C22 C23 H23 120.7 . . ?
C22 C23 C24 119(3) . . ?
C24 C23 H23 120.7 . . ?
C211 N24 Zn2 119(3) . 4_465 ?
C212 N24 Zn2 135(3) . 4_465 ?
C212 N24 C211 106(3) . . ?
C23 C24 H24 118.7 . . ?
C25 C24 C23 123(3) . . ?
C25 C24 H24 118.7 . . ?
C24 C25 C26 115(3) . . ?
C24 C25 C28 128(3) . . ?
C26 C25 C28 117(2) . . ?
C25 C26 H26 119.9 . . ?
C27 C26 C25 120(3) . . ?
C27 C26 H26 119.9 . . ?
C22 C27 C26 126(4) . . ?
C22 C27 H27 117.0 . . ?
C26 C27 H27 117.0 . . ?
O23 C28 C25 111.5(19) . . ?
O24 C28 O23 129(3) . . ?
O24 C28 C25 120(2) . . ?
C31 O31 Zn3 100(2) . . ?
O31 C31 Zn3 54(2) . . ?
O31 C31 O32 151(4) . . ?
O31 C31 C32 106(3) . . ?
O32 C31 Zn3 97(3) . . ?
O32 C31 C32 103(3) . . ?
C32 C31 Zn3 160(2) . . ?
C301 N31 Zn3 128.3(16) . . ?
C301 N31 C302 106(2) . . ?
C302 N31 Zn3 126.0(15) . . ?
C301 N32 C303 108(2) . . ?
C301 N32 C304 128(2) . . ?
C303 N32 C304 125(2) . . ?
C33 C32 C31 123(2) . . ?
C37 C32 C31 127(4) . . ?
C37 C32 C33 110(4) . . ?
C310 N33 C309 122(3) . . ?
C312 N33 C309 130(3) . . ?
C312 N33 C310 108(3) . . ?
C32 C33 H33 117.7 . . ?
C32 C33 C34 125(3) . . ?
C34 C33 H33 117.7 . . ?
C38 O34 Zn3 108(3) . 3_647 ?
C311 N34 Zn1 123.7(17) . 1_455 ?
C312 N34 Zn1 133(2) . 1_455 ?
C312 N34 C311 104(2) . . ?
C33 C34 H34 124.2 . . ?
C35 C34 C33 112(4) . . ?
C35 C34 H34 124.2 . . ?
C34 C35 C38 115(4) . . ?
C36 C35 C34 131(4) . . ?
C36 C35 C38 114(2) . . ?
C35 C36 H36 121.7 . . ?
C35 C36 C37 117(3) . . ?
C37 C36 H36 121.7 . . ?
C32 C37 C36 126(4) . . ?
C32 C37 H37 117.1 . . ?
C36 C37 H37 117.1 . . ?
O33 C38 C35 116(3) . . ?
O34 C38 O33 131(4) . . ?
O34 C38 C35 113(4) . . ?
N11 C101 N12 114(3) . . ?
N11 C101 H101 123.0 . . ?
N12 C101 H101 123.0 . . ?
N11 C102 H102 125.7 . . ?
C103 C102 N11 109(3) . . ?
C103 C102 H102 125.7 . . ?
N12 C103 H103 126.8 . . ?
C102 C103 N12 106(2) . . ?
C102 C103 H103 126.8 . . ?
N12 C104 H10A 109.7 . . ?
N12 C104 H10B 109.7 . . ?
N12 C104 C105 110(3) . . ?
H10A C104 H10B 108.2 . . ?
C105 C104 H10A 109.7 . . ?
C105 C104 H10B 109.7 . . ?
C104 C105 H10C 110.0 . . ?
C104 C105 H10D 110.0 . . ?
C104 C105 C106 109(3) . . ?
H10C C105 H10D 108.4 . . ?
C106 C105 H10C 110.0 . . ?
C106 C105 H10D 110.0 . . ?
C105 C106 H10E 108.7 . . ?
C105 C106 H10F 108.7 . . ?
H10E C106 H10F 107.6 . . ?
C107 C106 C105 114(2) . . ?
C107 C106 H10E 108.7 . . ?
C107 C106 H10F 108.7 . . ?
C106 C107 H10G 110.2 . . ?
C106 C107 H10H 110.2 . . ?
C106 C107 C108 107(2) . . ?
H10G C107 H10H 108.5 . . ?
C108 C107 H10G 110.2 . . ?
C108 C107 H10H 110.2 . . ?
C107 C108 H10I 109.1 . . ?
C107 C108 H10J 109.1 . . ?
C107 C108 C109 112(3) . . ?
H10I C108 H10J 107.9 . . ?
C109 C108 H10I 109.1 . . ?
C109 C108 H10J 109.1 . . ?
N13 C109 C108 110(3) . . ?
N13 C109 H10K 109.6 . . ?
N13 C109 H10L 109.6 . . ?
C108 C109 H10K 109.6 . . ?
C108 C109 H10L 109.6 . . ?
H10K C109 H10L 108.1 . . ?
N13 C110 H110 125.8 . . ?
C111 C110 N13 108(3) . . ?
C111 C110 H110 125.8 . . ?
N14 C111 C110 109(3) . . ?
N14 C111 H111 125.7 . . ?
C110 C111 H111 125.7 . . ?
N13 C112 H112 123.3 . . ?
N14 C112 N13 113(4) . . ?
N14 C112 H112 123.3 . . ?
N21 C201 N22 113(4) . . ?
N21 C201 H201 123.3 . . ?
N22 C201 H201 123.3 . . ?
N21 C202 H202 128.4 . . ?
C203 C202 N21 103(3) . . ?
C203 C202 H202 128.4 . . ?
N22 C203 H203 124.4 . . ?
C202 C203 N22 111(3) . . ?
C202 C203 H203 124.4 . . ?
N22 C204 H20A 109.2 . . ?
N22 C204 H20B 109.2 . . ?
H20A C204 H20B 107.9 . . ?
C205 C204 N22 112(5) . . ?
C205 C204 H20A 109.2 . . ?
C205 C204 H20B 109.2 . . ?
C204 C205 H20C 108.6 . . ?
C204 C205 H20D 108.6 . . ?
C204 C205 C206 115(4) . . ?
H20C C205 H20D 107.6 . . ?
C206 C205 H20C 108.6 . . ?
C206 C205 H20D 108.6 . . ?
C205 C206 H20E 108.2 . . ?
C205 C206 H20F 108.2 . . ?
H20E C206 H20F 107.3 . . ?
C207 C206 C205 116(3) . . ?
C207 C206 H20E 108.2 . . ?
C207 C206 H20F 108.2 . . ?
C206 C207 H20G 109.0 . . ?
C206 C207 H20H 109.0 . . ?
C206 C207 C208 113(4) . . ?
H20G C207 H20H 107.8 . . ?
C208 C207 H20G 109.0 . . ?
C208 C207 H20H 109.0 . . ?
C207 C208 H20I 108.1 . . ?
C207 C208 H20J 108.1 . . ?
C207 C208 C209 117(5) . . ?
H20I C208 H20J 107.3 . . ?
C209 C208 H20I 108.1 . . ?
C209 C208 H20J 108.1 . . ?
N23 C209 C208 111(4) . . ?
N23 C209 H20K 109.5 . . ?
N23 C209 H20L 109.5 . . ?
C208 C209 H20K 109.5 . . ?
C208 C209 H20L 109.5 . . ?
H20K C209 H20L 108.1 . . ?
N23 C210 H210 126.1 . . ?
N23 C210 C211 108(3) . . ?
C211 C210 H210 126.1 . . ?
N24 C211 H211 127.4 . . ?
C210 C211 N24 105(3) . . ?
C210 C211 H211 127.4 . . ?
N23 C212 H212 123.1 . . ?
N24 C212 N23 114(3) . . ?
N24 C212 H212 123.1 . . ?
N31 C301 N32 113(2) . . ?
N31 C301 H301 123.4 . . ?
N32 C301 H301 123.4 . . ?
N31 C302 H302 125.3 . . ?
C303 C302 N31 109(2) . . ?
C303 C302 H302 125.3 . . ?
N32 C303 H303 128.1 . . ?
C302 C303 N32 104(2) . . ?
C302 C303 H303 128.1 . . ?
N32 C304 H30A 110.0 . . ?
N32 C304 H30B 110.0 . . ?
N32 C304 C305 108(3) . . ?
H30A C304 H30B 108.4 . . ?
C305 C304 H30A 110.0 . . ?
C305 C304 H30B 110.0 . . ?
C304 C305 H30C 110.4 . . ?
C304 C305 H30D 110.4 . . ?
H30C C305 H30D 108.6 . . ?
C306 C305 C304 107(3) . . ?
C306 C305 H30C 110.4 . . ?
C306 C305 H30D 110.4 . . ?
C305 C306 H30E 110.5 . . ?
C305 C306 H30F 110.5 . . ?
C305 C306 C307 106(3) . . ?
H30E C306 H30F 108.6 . . ?
C307 C306 H30E 110.5 . . ?
C307 C306 H30F 110.5 . . ?
C306 C307 H30G 108.7 . . ?
C306 C307 H30H 108.7 . . ?
H30G C307 H30H 107.6 . . ?
C308 C307 C306 114(3) . . ?
C308 C307 H30G 108.7 . . ?
C308 C307 H30H 108.7 . . ?
C307 C308 H30I 108.5 . . ?
C307 C308 H30J 108.5 . . ?
H30I C308 H30J 107.5 . . ?
C309 C308 C307 115(3) . . ?
C309 C308 H30I 108.5 . . ?
C309 C308 H30J 108.5 . . ?
N33 C309 C308 113(3) . . ?
N33 C309 H30K 108.9 . . ?
N33 C309 H30L 108.9 . . ?
C308 C309 H30K 108.9 . . ?
C308 C309 H30L 108.9 . . ?
H30K C309 H30L 107.7 . . ?
N33 C310 H310 128.4 . . ?
N33 C310 C311 103(3) . . ?
C311 C310 H310 128.4 . . ?
N34 C311 C310 108(3) . . ?
N34 C311 H311 125.8 . . ?
C310 C311 H311 125.8 . . ?
N33 C312 H312 122.0 . . ?
N34 C312 N33 116(3) . . ?
N34 C312 H312 122.0 . . ?
loop_
_geom_bond_atom_site_label_1
_geom_bond_atom_site_label_2
_geom_bond_distance
_geom_bond_site_symmetry_2
_geom_bond_publ_flag
Zn1 O11 2.03(3) . yes
Zn1 N11 2.05(2) . yes
Zn1 C21 2.55(5) . ?
Zn1 O22 2.12(3) . yes
Zn1 N34 1.98(2) 1_655 yes
Zn2 O13 1.94(3) . yes
Zn2 N21 2.01(3) . yes
Zn2 O23 1.95(2) 1_565 yes
Zn2 N24 1.99(3) 4_565 yes
Zn3 N14 2.05(3) . yes
Zn3 O31 1.98(2) . yes
Zn3 C31 2.40(4) . ?
Zn3 N31 1.99(2) . yes
Zn3 O34 1.99(3) 3_657 yes
O11 C11 1.260(13) . ?
N11 C101 1.22(4) . ?
N11 C102 1.41(4) . ?
C11 O12 1.28(4) . ?
C11 C12 1.35(5) . ?
N12 C101 1.36(3) . ?
N12 C103 1.41(5) . ?
N12 C104 1.47(4) . ?
C12 C13 1.38(4) . ?
C12 C17 1.45(6) . ?
O13 C18 1.25(4) . ?
N13 C109 1.45(4) . ?
N13 C110 1.37(5) . ?
N13 C112 1.33(4) . ?
C13 H13 0.9500 . ?
C13 C14 1.42(6) . ?
O14 C18 1.256(13) . ?
N14 C111 1.31(4) . ?
N14 C112 1.30(5) . ?
C14 H14 0.9500 . ?
C14 C15 1.36(3) . ?
C15 C16 1.36(4) . ?
C15 C18 1.52(5) . ?
C16 H16 0.9500 . ?
C16 C17 1.42(7) . ?
C17 H17 0.9500 . ?
O21 C21 1.22(6) . ?
N21 C201 1.28(5) . ?
N21 C202 1.40(4) . ?
C21 O22 1.22(4) . ?
C21 C22 1.60(7) . ?
N22 C201 1.36(5) . ?
N22 C203 1.40(5) . ?
N22 C204 1.49(7) . ?
C22 C23 1.35(6) . ?
C22 C27 1.35(5) . ?
O23 Zn2 1.95(2) 1_545 ?
O23 C28 1.257(13) . ?
N23 C209 1.44(5) . ?
N23 C210 1.34(5) . ?
N23 C212 1.38(4) . ?
C23 H23 0.9500 . ?
C23 C24 1.45(5) . ?
O24 C28 1.254(13) . ?
N24 Zn2 1.99(3) 4_465 ?
N24 C211 1.46(5) . ?
N24 C212 1.26(5) . ?
C24 H24 0.9500 . ?
C24 C25 1.37(2) . ?
C25 C26 1.38(2) . ?
C25 C28 1.494(13) . ?
C26 H26 0.9500 . ?
C26 C27 1.35(5) . ?
C27 H27 0.9500 . ?
O31 C31 1.04(4) . ?
C31 O32 1.25(5) . ?
C31 C32 1.68(5) . ?
N31 C301 1.28(3) . ?
N31 C302 1.45(3) . ?
N32 C301 1.36(4) . ?
N32 C303 1.43(3) . ?
N32 C304 1.44(3) . ?
C32 C33 1.46(5) . ?
C32 C37 1.42(4) . ?
O33 C38 1.24(5) . ?
N33 C309 1.46(3) . ?
N33 C310 1.40(5) . ?
N33 C312 1.33(4) . ?
C33 H33 0.9500 . ?
C33 C34 1.49(6) . ?
O34 Zn3 1.99(3) 3_647 ?
O34 C38 1.22(4) . ?
N34 Zn1 1.98(2) 1_455 ?
N34 C311 1.43(3) . ?
N34 C312 1.28(4) . ?
C34 H34 0.9500 . ?
C34 C35 1.43(4) . ?
C35 C36 1.20(6) . ?
C35 C38 1.60(6) . ?
C36 H36 0.9500 . ?
C36 C37 1.48(7) . ?
C37 H37 0.9500 . ?
C101 H101 0.9500 . ?
C102 H102 0.9500 . ?
C102 C103 1.31(4) . ?
C103 H103 0.9500 . ?
C104 H10A 0.9900 . ?
C104 H10B 0.9900 . ?
C104 C105 1.49(5) . ?
C105 H10C 0.9900 . ?
C105 H10D 0.9900 . ?
C105 C106 1.59(5) . ?
C106 H10E 0.9900 . ?
C106 H10F 0.9900 . ?
C106 C107 1.50(5) . ?
C107 H10G 0.9900 . ?
C107 H10H 0.9900 . ?
C107 C108 1.53(4) . ?
C108 H10I 0.9900 . ?
C108 H10J 0.9900 . ?
C108 C109 1.53(5) . ?
C109 H10K 0.9900 . ?
C109 H10L 0.9900 . ?
C110 H110 0.9500 . ?
C110 C111 1.35(4) . ?
C111 H111 0.9500 . ?
C112 H112 0.9500 . ?
C201 H201 0.9500 . ?
C202 H202 0.9500 . ?
C202 C203 1.36(5) . ?
C203 H203 0.9500 . ?
C204 H20A 0.9900 . ?
C204 H20B 0.9900 . ?
C204 C205 1.47(7) . ?
C205 H20C 0.9900 . ?
C205 H20D 0.9900 . ?
C205 C206 1.55(5) . ?
C206 H20E 0.9900 . ?
C206 H20F 0.9900 . ?
C206 C207 1.42(7) . ?
C207 H20G 0.9900 . ?
C207 H20H 0.9900 . ?
C207 C208 1.55(6) . ?
C208 H20I 0.9900 . ?
C208 H20J 0.9900 . ?
C208 C209 1.57(7) . ?
C209 H20K 0.9900 . ?
C209 H20L 0.9900 . ?
C210 H210 0.9500 . ?
C210 C211 1.41(5) . ?
C211 H211 0.9500 . ?
C212 H212 0.9500 . ?
C301 H301 0.9500 . ?
C302 H302 0.9500 . ?
C302 C303 1.38(4) . ?
C303 H303 0.9500 . ?
C304 H30A 0.9900 . ?
C304 H30B 0.9900 . ?
C304 C305 1.63(6) . ?
C305 H30C 0.9900 . ?
C305 H30D 0.9900 . ?
C305 C306 1.52(4) . ?
C306 H30E 0.9900 . ?
C306 H30F 0.9900 . ?
C306 C307 1.59(6) . ?
C307 H30G 0.9900 . ?
C307 H30H 0.9900 . ?
C307 C308 1.54(4) . ?
C308 H30I 0.9900 . ?
C308 H30J 0.9900 . ?
C308 C309 1.47(5) . ?
C309 H30K 0.9900 . ?
C309 H30L 0.9900 . ?
C310 H310 0.9500 . ?
C310 C311 1.43(5) . ?
C311 H311 0.9500 . ?
C312 H312 0.9500 . ?
