#------------------------------------------------------------------------------
#$Date: 2019-11-17 11:22:29 +0200 (Sun, 17 Nov 2019) $
#$Revision: 229562 $
#$URL: file:///home/coder/svn-repositories/cod/cif/1/54/82/1548245.cif $
#------------------------------------------------------------------------------
#
# This file is available in the Crystallography Open Database (COD),
# http://www.crystallography.net/
#
# All data on this site have been placed in the public domain by the
# contributors.
#
data_1548245
loop_
_publ_author_name
'Wang, Jun'
'Zhang, Qiang-Sheng'
'Dou, Wei'
'Kirillov, Alexander M.'
'Liu, Wei-Sheng'
'Xu, Cong'
'Xu, Cai-Ling'
'Fang, Ran'
'Yang, Li-Zi'
_publ_section_title
;
 Novel double layer lanthanide metal-organic networks for sensing
 applications.
;
_journal_issue                   2
_journal_name_full
'Dalton transactions (Cambridge, England : 2003)'
_journal_page_first              465
_journal_page_last               474
_journal_paper_doi               10.1039/c7dt03604c
_journal_volume                  47
_journal_year                    2018
_chemical_formula_moiety         'C44 H28 Eu N2 O12'
_chemical_formula_sum            'C44 H28 Eu N2 O12'
_chemical_formula_weight         928.64
_space_group_crystal_system      monoclinic
_space_group_IT_number           15
_space_group_name_Hall           '-I 2yc'
_space_group_name_H-M_alt        'I 1 2/c 1'
_symmetry_space_group_name_Hall  '-I 2yc'
_symmetry_space_group_name_H-M   'I 1 2/c 1'
_atom_sites_solution_hydrogens   geom
_atom_sites_solution_primary     direct
_audit_creation_date             2017-11-03
_audit_creation_method
;
Olex2 1.2
(compiled 2017.08.10 svn.r3458 for OlexSys, GUI svn.r5381)
;
_audit_update_record
;
2017-11-06 deposited with the CCDC.
2017-11-28 downloaded from the CCDC.
;
_cell_angle_alpha                90
_cell_angle_beta                 94.951(4)
_cell_angle_gamma                90
_cell_formula_units_Z            8
_cell_length_a                   15.0374(6)
_cell_length_b                   15.5766(7)
_cell_length_c                   35.0554(17)
_cell_measurement_reflns_used    2080
_cell_measurement_temperature    293
_cell_measurement_theta_max      22.5360
_cell_measurement_theta_min      3.5940
_cell_volume                     8180.4(6)
_computing_cell_refinement
;
CrysAlisPro, Agilent Technologies,
Version 1.171.36.32 (release 02-08-2013 CrysAlis171 .NET)
(compiled Aug  2 2013,16:46:58)
;
_computing_data_collection
;
CrysAlisPro, Agilent Technologies,
Version 1.171.36.32 (release 02-08-2013 CrysAlis171 .NET)
(compiled Aug  2 2013,16:46:58)
;
_computing_data_reduction
;
CrysAlisPro, Agilent Technologies,
Version 1.171.36.32 (release 02-08-2013 CrysAlis171 .NET)
(compiled Aug  2 2013,16:46:58)
;
_computing_molecular_graphics    'Olex2 (Dolomanov et al., 2009)'
_computing_publication_material  'Olex2 (Dolomanov et al., 2009)'
_computing_structure_refinement  'XL (Sheldrick, 2008)'
_computing_structure_solution    'ShelXS (Sheldrick, 2008)'
_diffrn_ambient_temperature      293
_diffrn_detector_area_resol_mean 16.0733
_diffrn_measured_fraction_theta_full 0.995
_diffrn_measured_fraction_theta_max 0.995
_diffrn_measurement_details
;
#__ type_ start__ end____ width___ exp.time_
  1 omega -101.00  -69.00   1.0000    6.0000
omega____ theta____ kappa____ phi______ frames
    -      -19.3492  178.0000 -120.0000 32

#__ type_ start__ end____ width___ exp.time_
  2 omega  -20.00    5.00   1.0000    6.0000
omega____ theta____ kappa____ phi______ frames
    -      -19.3492  -99.0000    0.0000 25

#__ type_ start__ end____ width___ exp.time_
  3 omega   59.00  101.00   1.0000    6.0000
omega____ theta____ kappa____ phi______ frames
    -       22.6305  178.0000  -60.0000 42

#__ type_ start__ end____ width___ exp.time_
  4 omega   30.00   68.00   1.0000    6.0000
omega____ theta____ kappa____ phi______ frames
    -       22.6305   57.0000  -90.0000 38

#__ type_ start__ end____ width___ exp.time_
  5 omega  -52.00   61.00   1.0000    6.0000
omega____ theta____ kappa____ phi______ frames
    -       22.6305    0.0000  120.0000 113
;
_diffrn_measurement_device_type  'SuperNova, Dual, Cu at zero, Eos'
_diffrn_measurement_method       '\w scans'
_diffrn_orient_matrix_UB_11      0.0165329000
_diffrn_orient_matrix_UB_12      0.0334045000
_diffrn_orient_matrix_UB_13      0.0123862000
_diffrn_orient_matrix_UB_21      -0.0266286000
_diffrn_orient_matrix_UB_22      -0.0151949000
_diffrn_orient_matrix_UB_23      0.0143319000
_diffrn_orient_matrix_UB_31      0.0354574000
_diffrn_orient_matrix_UB_32      -0.0269897000
_diffrn_orient_matrix_UB_33      0.0073273000
_diffrn_radiation_monochromator  mirror
_diffrn_radiation_type           MoK\a
_diffrn_radiation_wavelength     0.71073
_diffrn_reflns_av_R_equivalents  0.0879
_diffrn_reflns_av_unetI/netI     0.1469
_diffrn_reflns_Laue_measured_fraction_full 0.995
_diffrn_reflns_Laue_measured_fraction_max 0.995
_diffrn_reflns_limit_h_max       18
_diffrn_reflns_limit_h_min       -18
_diffrn_reflns_limit_k_max       11
_diffrn_reflns_limit_k_min       -19
_diffrn_reflns_limit_l_max       41
_diffrn_reflns_limit_l_min       -43
_diffrn_reflns_number            16323
_diffrn_reflns_point_group_measured_fraction_full 0.995
_diffrn_reflns_point_group_measured_fraction_max 0.995
_diffrn_reflns_theta_full        25.242
_diffrn_reflns_theta_max         26.000
_diffrn_reflns_theta_min         3.369
_diffrn_source                   'SuperNova (Mo) X-ray Source'
_exptl_absorpt_coefficient_mu    1.599
_exptl_absorpt_correction_T_max  1.00000
_exptl_absorpt_correction_T_min  0.98196
_exptl_absorpt_correction_type   multi-scan
_exptl_absorpt_process_details
;
CrysAlisPro, Agilent Technologies,
Version 1.171.36.32 (release 02-08-2013 CrysAlis171 .NET)
(compiled Aug  2 2013,16:46:58)
Empirical absorption correction using spherical harmonics,
 implemented in SCALE3 ABSPACK scaling algorithm.
;
_exptl_crystal_colour            'clear light colourless'
_exptl_crystal_colour_lustre     clear
_exptl_crystal_colour_modifier   light
_exptl_crystal_colour_primary    colourless
_exptl_crystal_density_diffrn    1.508
_exptl_crystal_description       block
_exptl_crystal_F_000             3720
_exptl_crystal_size_max          0.22
_exptl_crystal_size_mid          0.21
_exptl_crystal_size_min          0.2
_platon_squeeze_details          'TITL wangj_eunoI 1 2/c 1 R = 0.07'
_refine_diff_density_max         2.485
_refine_diff_density_min         -1.166
_refine_diff_density_rms         0.185
_refine_ls_extinction_method     none
_refine_ls_goodness_of_fit_ref   1.062
_refine_ls_hydrogen_treatment    constr
_refine_ls_matrix_type           full
_refine_ls_number_parameters     532
_refine_ls_number_reflns         8012
_refine_ls_number_restraints     112
_refine_ls_restrained_S_all      1.063
_refine_ls_R_factor_all          0.1148
_refine_ls_R_factor_gt           0.0659
_refine_ls_shift/su_max          0.001
_refine_ls_shift/su_mean         0.000
_refine_ls_structure_factor_coef Fsqd
_refine_ls_weighting_details
'w=1/[\s^2^(Fo^2^)+(0.0431P)^2^+32.0751P] where P=(Fo^2^+2Fc^2^)/3'
_refine_ls_weighting_scheme      calc
_refine_ls_wR_factor_gt          0.1286
_refine_ls_wR_factor_ref         0.1671
_reflns_Friedel_coverage         0.000
_reflns_number_gt                5040
_reflns_number_total             8012
_reflns_threshold_expression     'I > 2\s(I)'
_iucr_refine_instructions_details
;

    wangj_euno3def.res created by SHELXL-2014/7

TITL wangj_EuNO3DEF in I2/c #15
REM reset to I2/c #15
CELL 0.71073 15.037396 15.576629 35.055387 90 94.951 90
ZERR 8 0.000607 0.000747 0.001717 0 0.0042 0
LATT 2
SYMM -X,+Y,0.5-Z
SFAC C H Eu N O
UNIT 352 224 8 16 96
DFIX 1.35 C42 C41
DFIX 1.35 C41 C40
DFIX 1.35 C40 C39
DFIX 1.35 C39 C38
DFIX 1.35 C43 C38
DFIX 1.35 C42 C43
DFIX 1.35 C41 C42
DFIX 1.35 C40 C41
DFIX 1.35 C39 C40
DFIX 1.35 C38 C39
SIMU 0.01 0.02 1.7 O11 C38 C43 C39 C40 C41 C44 O12 C42 C37
ISOR 0.01 0.02 C43 C38 C39 C40 C41 C42 C37
 
L.S. 20 0 0
PLAN  40
TEMP 19.85
BOND
fmap 2 53
acta
ABIN
OMIT -3 52
OMIT 2 2 0
OMIT 0 3 1
OMIT 2 0 4
OMIT -1 2 5
OMIT -2 3 1
OMIT 1 2 3
OMIT -2 3 3
OMIT -10 3 17
OMIT -2 0 4
OMIT 1 3 8
OMIT -1 1 6
OMIT -1 2 3
OMIT 0 0 8
OMIT 2 5 1
OMIT 2 0 6
OMIT -1 3 4
OMIT 0 2 4
OMIT 2 4 2
REM <olex2.extras>
REM <HklSrc "%.\\wangj_EuNO3DEF.hkl">
REM </olex2.extras>
 
WGHT    0.043100   32.075100
FVAR       0.63818
EU1   3    0.021959    0.592362    0.037910    11.00000    0.01460    0.01569 =
         0.02070   -0.00146    0.00101   -0.00067
O2    5   -0.132547    0.583444    0.017236    11.00000    0.01429    0.02342 =
         0.03074   -0.00956   -0.00091   -0.00183
N2    4   -0.043679    0.686288    0.088491    11.00000    0.02348    0.02099 =
         0.02325   -0.00549    0.00152   -0.00490
N1    4    0.109042    0.592259    0.105215    11.00000    0.02472    0.02560 =
         0.02347    0.00894    0.00301   -0.00518
O8    5   -0.018955    0.433683    0.028192    11.00000    0.02842    0.01870 =
         0.01954   -0.00175    0.00232    0.00226
O7    5   -0.033394    0.488334    0.084919    11.00000    0.05092    0.02415 =
         0.03216   -0.00554    0.00912   -0.01391
C30   1   -0.081037    0.344856    0.075067    11.00000    0.03462    0.02978 =
         0.03063    0.00020    0.00192    0.00411
C29   1   -0.042351    0.426558    0.062498    11.00000    0.02009    0.02269 =
         0.02434    0.00185   -0.00199    0.00001
C12   1    0.181031    0.545987    0.113912    11.00000    0.02616    0.03331 =
         0.02619    0.00270   -0.00502    0.00005
AFIX  43
H12   2    0.209866    0.522271    0.093982    11.00000   -1.20000
AFIX   0
O9    5   -0.335775    0.272283    0.033300    11.00000    0.04004    0.04380 =
         0.06536    0.00264    0.00101   -0.00418
C31   1   -0.167557    0.319869    0.060074    11.00000    0.03567    0.03622 =
         0.03435   -0.00425   -0.00291   -0.00231
AFIX  43
H31   2   -0.197657    0.351006    0.040334    11.00000   -1.20000
AFIX   0
C13   1   -0.179991    0.540298   -0.006753    11.00000    0.01760    0.02525 =
         0.02084   -0.00106    0.00732    0.00043
C32   1   -0.207209    0.247937    0.075257    11.00000    0.03902    0.02939 =
         0.04716    0.00392    0.00166   -0.01029
C1    1   -0.116230    0.732378    0.080652    11.00000    0.03313    0.02648 =
         0.03253   -0.00128    0.01206   -0.00047
AFIX  43
H1    2   -0.138224    0.738000    0.055155    11.00000   -1.20000
AFIX   0
O10   5   -0.337978    0.161308    0.074972    11.00000    0.04511    0.05755 =
         0.08467    0.00448    0.01806   -0.02037
C33   1   -0.299580    0.224102    0.061720    11.00000    0.04803    0.02721 =
         0.04833   -0.01187    0.01542   -0.00822
C9    1    0.100564    0.616705    0.172857    11.00000    0.06178    0.04192 =
         0.01421    0.00721   -0.00634    0.00396
C2    1   -0.161865    0.773150    0.108336    11.00000    0.03564    0.03733 =
         0.05226   -0.00181    0.01270    0.00017
AFIX  43
H2    2   -0.213164    0.804780    0.101372    11.00000   -1.20000
AFIX   0
C5    1   -0.010547    0.677236    0.125570    11.00000    0.04015    0.02640 =
         0.03954   -0.00720    0.01318   -0.00472
C11   1    0.216601    0.530446    0.151304    11.00000    0.03662    0.05025 =
         0.04654    0.01650   -0.01423    0.00546
AFIX  43
H11   2    0.266889    0.496014    0.155970    11.00000   -1.20000
AFIX   0
C34   1   -0.159627    0.203078    0.103305    11.00000    0.06069    0.05059 =
         0.04966    0.02109   -0.01300   -0.02340
AFIX  43
H34   2   -0.186374    0.155652    0.113676    11.00000   -1.20000
AFIX   0
C4    1   -0.053799    0.715503    0.155911    11.00000    0.05575    0.04485 =
         0.03974   -0.00810    0.01061    0.00162
C8    1    0.055196    0.652723    0.202577    11.00000    0.09937    0.05636 =
         0.02505    0.00018    0.00023    0.00963
AFIX  43
H8    2    0.075394    0.642245    0.227974    11.00000   -1.20000
AFIX   0
C35   1   -0.074894    0.223797    0.117056    11.00000    0.07378    0.05125 =
         0.07050    0.02594   -0.03385   -0.03663
C3    1   -0.130755    0.766204    0.145369    11.00000    0.05443    0.04740 =
         0.04085   -0.01258    0.02147    0.00265
AFIX  43
H3    2   -0.159608    0.794597    0.164115    11.00000   -1.20000
AFIX   0
C6    1    0.068635    0.627601    0.134602    11.00000    0.03509    0.02443 =
         0.02673    0.00620    0.00798   -0.00124
C7    1   -0.015054    0.700720    0.194540    11.00000    0.09854    0.05552 =
         0.02314    0.00827    0.01812    0.00567
AFIX  43
H7    2   -0.041460    0.726659    0.214624    11.00000   -1.20000
AFIX   0
C10   1    0.177284    0.565887    0.180613    11.00000    0.07350    0.05819 =
         0.02586    0.01118   -0.01628    0.01145
AFIX  43
H10   2    0.200648    0.556834    0.205726    11.00000   -1.20000
AFIX   0
O1    5   -0.155234    0.479511   -0.027118    11.00000    0.01908    0.03068 =
         0.02659   -0.00991    0.00164    0.00943
C18   1   -0.457650    0.604080   -0.023961    11.00000    0.00932    0.02290 =
         0.02155    0.00082    0.00052    0.00843
AFIX  43
H18   2   -0.517115    0.619925   -0.029062    11.00000   -1.20000
AFIX   0
C20   1   -0.428036    0.528647   -0.038936    11.00000    0.02010    0.01765 =
         0.02379   -0.00807    0.00992   -0.00222
C16   1   -0.400303    0.657067   -0.001337    11.00000    0.01115    0.01866 =
         0.01861    0.00114    0.00655   -0.00198
C15   1   -0.310771    0.633745    0.005347    11.00000    0.01784    0.02138 =
         0.02164   -0.00259   -0.00371   -0.00848
AFIX  43
H15   2   -0.272014    0.667926    0.020881    11.00000   -1.20000
AFIX   0
C19   1   -0.337943    0.507616   -0.033032    11.00000    0.02130    0.02185 =
         0.02183   -0.00588   -0.00012    0.00162
AFIX  43
H19   2   -0.317028    0.457971   -0.043975    11.00000   -1.20000
AFIX   0
C14   1   -0.279024    0.559745   -0.011048    11.00000    0.01987    0.00954 =
         0.01527   -0.00236    0.00594    0.00580
O4    5   -0.375938    0.786213    0.034671    11.00000    0.02301    0.02015 =
         0.03067   -0.00783    0.00064    0.00505
O3    5   -0.511893    0.764039    0.007419    11.00000    0.01165    0.02490 =
         0.03305   -0.00421    0.00588    0.00453
C17   1   -0.431429    0.740726    0.014250    11.00000    0.02218    0.01983 =
         0.01910   -0.00007    0.00012   -0.00208
O5    5   -0.464650    0.474129   -0.101449    11.00000    0.03541    0.06232 =
         0.03109   -0.01170   -0.00072   -0.02695
C21   1   -0.490257    0.471187   -0.063244    11.00000    0.02104    0.03438 =
         0.02508   -0.00351   -0.00191   -0.01038
AFIX  23
H21A  2   -0.486325    0.412816   -0.053606    11.00000   -1.20000
H21B  2   -0.551349    0.490770   -0.062624    11.00000   -1.20000
AFIX   0
C36   1   -0.037328    0.299019    0.103633    11.00000    0.05575    0.04762 =
         0.07775    0.01927   -0.03364   -0.00941
AFIX  43
H36   2    0.018012    0.317607    0.114414    11.00000   -1.20000
AFIX   0
C25   1   -0.593537    0.385878   -0.122731    11.00000    0.03347    0.06159 =
         0.03511    0.00066   -0.00665   -0.01433
AFIX  43
H25   2   -0.608808    0.376679   -0.097909    11.00000   -1.20000
AFIX   0
C23   1   -0.495937    0.443522   -0.165982    11.00000    0.06331    0.11625 =
         0.03935   -0.02292    0.00694   -0.04661
AFIX  43
H23   2   -0.444115    0.473439   -0.170114    11.00000   -1.20000
AFIX   0
C22   1   -0.518915    0.433029   -0.129684    11.00000    0.05066    0.04826 =
         0.02228   -0.00039   -0.01251   -0.01064
C24   1   -0.548064    0.410610   -0.196861    11.00000    0.08183    0.13052 =
         0.02593   -0.01252    0.00853   -0.04134
AFIX  43
H24   2   -0.533010    0.420215   -0.221685    11.00000   -1.20000
AFIX   0
C26   1   -0.644894    0.352731   -0.154012    11.00000    0.03996    0.09114 =
         0.04759   -0.01717   -0.00274   -0.02463
AFIX  43
H26   2   -0.696328    0.322182   -0.149885    11.00000   -1.20000
AFIX   0
C27   1   -0.622899    0.363209   -0.190415    11.00000    0.04365    0.07809 =
         0.03343   -0.01776   -0.00942   -0.01315
O6    5   -0.665955    0.332639   -0.256225    11.00000    0.08184    0.14704 =
         0.04223   -0.03040   -0.01289   -0.01841
C28   1   -0.680295    0.326064   -0.222962    11.00000    0.05335    0.13490 =
         0.04630   -0.03473   -0.01183    0.00178
AFIX  43
H28   2   -0.730743    0.295651   -0.217321    11.00000   -1.20000
AFIX   0
O11   5    0.065411    0.137989    0.120950    11.00000    0.13856    0.14198 =
         0.15318    0.00337   -0.00392    0.01460
C37   1   -0.018314    0.169523    0.146009    11.00000    0.11550    0.12209 =
         0.13644    0.01206   -0.00447    0.00049
AFIX  23
H37A  2   -0.051700    0.120771    0.154407    11.00000   -1.20000
H37B  2    0.003415    0.203236    0.168144    11.00000   -1.20000
AFIX   0
C42   1    0.287904    0.044435    0.139619    11.00000    0.14981    0.15224 =
         0.15236    0.01104    0.01531   -0.00287
AFIX  43
H42   2    0.333727    0.023860    0.125929    11.00000   -1.20000
AFIX   0
C38   1    0.144724    0.103920    0.142426    11.00000    0.14476    0.15007 =
         0.14988    0.00550    0.00594    0.01206
C43   1    0.211242    0.081347    0.121051    11.00000    0.13750    0.14872 =
         0.14917    0.00917    0.02181    0.00294
AFIX  43
H43   2    0.206297    0.090070    0.094708    11.00000   -1.20000
AFIX   0
O12   5    0.382858   -0.010653    0.229231    11.00000    0.27446    0.25002 =
         0.18633    0.04964    0.05186    0.09517
C44   1    0.381332    0.015313    0.190070    11.00000    0.18096    0.18729 =
         0.17712    0.02628    0.02780    0.02994
AFIX  43
H44   2    0.429697    0.015958    0.175232    11.00000   -1.20000
AFIX   0
C41   1    0.292815    0.039834    0.178032    11.00000    0.15357    0.16238 =
         0.16003    0.01152    0.01895    0.00917
C39   1    0.148962    0.090112    0.181233    11.00000    0.15409    0.15955 =
         0.15578    0.00935    0.00555    0.01007
AFIX  43
H39   2    0.099530    0.102195    0.194526    11.00000   -1.20000
AFIX   0
C40   1    0.226120    0.058343    0.200858    11.00000    0.15463    0.16535 =
         0.16641    0.00847    0.01274    0.00913
AFIX  43
H40   2    0.231928    0.050347    0.227246    11.00000   -1.20000
AFIX   0
HKLF 4
 
REM  wangj_EuNO3DEF in I2/c #15
REM R1 =  0.0659 for    5040 Fo > 4sig(Fo)  and  0.1148 for all    8012 data
REM    532 parameters refined using    112 restraints
 
END  
     
WGHT      0.0428     32.6560 

REM Highest difference peak  2.485,  deepest hole -1.166,  1-sigma level  0.185
Q1    1  -0.5226  0.7214 -0.0400  11.00000  0.05    2.49
Q2    1  -0.0855  0.1258  0.1793  11.00000  0.05    1.33
Q3    1   0.0627  0.4034  0.1190  11.00000  0.05    1.31
Q4    1  -0.0011  0.1621  0.1379  11.00000  0.05    1.18
Q5    1  -0.2030  0.2587  0.1006  11.00000  0.05    0.69
Q6    1   0.0196  0.6581  0.0386  11.00000  0.05    0.67
Q7    1  -0.0196  0.2935  0.1414  11.00000  0.05    0.67
Q8    1  -0.1482  0.5823  0.0007  11.00000  0.05    0.66
Q9    1   0.3356 -0.0911  0.2187  11.00000  0.05    0.64
Q10   1   0.2561 -0.0219  0.0847  11.00000  0.05    0.63
Q11   1   0.0075  0.0398  0.1403  11.00000  0.05    0.63
Q12   1  -0.5563  0.4256 -0.0392  11.00000  0.05    0.62
Q13   1  -0.4937  0.7731  0.0387  11.00000  0.05    0.61
Q14   1   0.1407  0.0416  0.2217  11.00000  0.05    0.61
Q15   1  -0.4009  0.2576  0.0223  11.00000  0.05    0.61
Q16   1  -0.0601  0.5684  0.0383  11.00000  0.05    0.59
Q17   1  -0.4718  0.8243  0.0014  11.00000  0.05    0.59
Q18   1  -0.4267  0.0972  0.0799  11.00000  0.05    0.59
Q19   1   0.2584  0.1248  0.1584  11.00000  0.05    0.58
Q20   1  -0.0803  0.6407  0.0597  11.00000  0.05    0.58
Q21   1   0.3553  0.0029  0.1518  11.00000  0.05    0.58
Q22   1  -0.5169  0.3551 -0.0399  11.00000  0.05    0.57
Q23   1  -0.4428  0.7426 -0.0403  11.00000  0.05    0.57
Q24   1  -0.0677  0.2574  0.1608  11.00000  0.05    0.57
Q25   1   0.0138  0.6462  0.1403  11.00000  0.05    0.57
Q26   1  -0.1010  0.4187  0.0795  11.00000  0.05    0.57
Q27   1   0.2630  0.0376  0.2395  11.00000  0.05    0.56
Q28   1  -0.0186  0.6619  0.0733  11.00000  0.05    0.56
Q29   1   0.2753 -0.0450  0.1625  11.00000  0.05    0.55
Q30   1   0.3739  0.0022  0.1997  11.00000  0.05    0.55
Q31   1   0.3428  0.4624  0.1392  11.00000  0.05    0.54
Q32   1  -0.2103  0.8023  0.0784  11.00000  0.05    0.54
Q33   1  -0.0487  0.1868  0.1611  11.00000  0.05    0.54
Q34   1  -0.5353  0.4724 -0.0188  11.00000  0.05    0.54
Q35   1   0.0794  0.5773  0.1804  11.00000  0.05    0.53
Q36   1  -0.7316  0.2441 -0.2014  11.00000  0.05    0.53
Q37   1  -0.5816  0.4794 -0.1598  11.00000  0.05    0.53
Q38   1   0.0145  0.2189  0.1617  11.00000  0.05    0.53
Q39   1  -0.1055  0.1429  0.1180  11.00000  0.05    0.52
Q40   1   0.2087  0.1449  0.1624  11.00000  0.05    0.52

  REM The information below was added by Olex2.
  REM
  REM R1 = 0.0659 for 5040 Fo > 4sig(Fo) and 0.1148 for all 18547 data
  REM n/a parameters refined using n/a restraints
  REM Highest difference peak 2.49, deepest hole -1.17
  REM Mean Shift 0, Max Shift 0.001.

  REM +++ Tabular Listing of Refinement Information +++
  REM R1_all = 0.1148
  REM R1_gt = 0.0659
  REM wR_ref = 0.1671
  REM GOOF = 1.062
  REM Shift_max = 0.001
  REM Shift_mean = 0
  REM Reflections_all = 18547
  REM Reflections_gt = 5040
  REM Parameters = n/a
  REM Hole = -1.17
  REM Peak = 2.49
  REM Flack = n/a

  
;
_cod_data_source_file            c7dt03604c2.cif
_cod_data_source_block           wangj_euno3def
_cod_depositor_comments
'Adding full bibliography for 1548244--1548245.cif.'
_cod_original_cell_volume        8180.5(7)
_cod_database_code               1548245
_shelx_shelxl_version_number     2014/7
_shelx_space_group_comment
;
The symmetry employed for this shelxl refinement is uniquely defined
by the following loop, which should always be used as a source of
symmetry information in preference to the above space-group names.
They are only intended as comments.
;
_reflns_odcompleteness_completeness 99.71
_reflns_odcompleteness_iscentric 1
_reflns_odcompleteness_theta     26.32
_olex2_refinement_description
;
1. Fixed Uiso
 At 1.2 times of:
  All C(H) groups, All C(H,H) groups
2. Restrained distances
 C42-C41
 1.35 with sigma of 0.02
 C41-C40
 1.35 with sigma of 0.02
 C40-C39
 1.35 with sigma of 0.02
 C39-C38
 1.35 with sigma of 0.02
 C43-C38
 1.35 with sigma of 0.02
 C42-C43
 1.35 with sigma of 0.02
 C41-C42
 1.35 with sigma of 0.02
 C40-C41
 1.35 with sigma of 0.02
 C39-C40
 1.35 with sigma of 0.02
 C38-C39
 1.35 with sigma of 0.02
3. Uiso/Uaniso restraints and constraints
O11 \\sim C38 \\sim C43 \\sim C39 \\sim C40 \\sim C41 \\sim C44 \\sim O12 \\sim
C42 \\sim C37: within 1.7A with sigma of 0.01 and sigma for terminal atoms of
0.02
Uanis(C43) \\sim Ueq, Uanis(C38) \\sim Ueq, Uanis(C39) \\sim Ueq, Uanis(C40)
\\sim Ueq, Uanis(C41) \\sim Ueq, Uanis(C42) \\sim Ueq, Uanis(C37) \\sim Ueq:
with sigma of 0.01 and sigma for terminal atoms of 0.02
4.a Secondary CH2 refined with riding coordinates:
 C21(H21A,H21B), C37(H37A,H37B)
4.b Aromatic/amide H refined with riding coordinates:
 C12(H12), C31(H31), C1(H1), C2(H2), C11(H11), C34(H34), C8(H8), C3(H3),
 C7(H7), C10(H10), C18(H18), C15(H15), C19(H19), C36(H36), C25(H25), C23(H23),
 C24(H24), C26(H26), C28(H28), C42(H42), C43(H43), C44(H44), C39(H39), C40(H40)
;
_shelx_fab_file
;
 4 0 0 -21.05 0.02
 6 0 0 7.31 0.01
 8 0 0 12.16 -0.06
 10 0 0 2.43 -0.04
 12 0 0 -3.33 0.01
 14 0 0 -3.50 0.01
 16 0 0 -1.24 0.04
 18 0 0 2.41 0.01
 3 1 0 -15.21 0.00
 5 1 0 -6.60 -0.01
 7 1 0 8.24 0.01
 9 1 0 1.91 0.01
 11 1 0 -2.28 0.02
 13 1 0 0.13 -0.02
 15 1 0 -0.49 -0.01
 17 1 0 3.58 -0.01
 4 2 0 2.41 0.00
 6 2 0 -1.39 0.00
 8 2 0 -3.45 0.03
 10 2 0 -1.25 0.03
 12 2 0 0.85 0.01
 14 2 0 1.04 -0.02
 16 2 0 -2.01 -0.02
 18 2 0 -0.80 0.00
 1 3 0 12.86 0.01
 3 3 0 2.77 0.01
 5 3 0 0.15 0.03
 7 3 0 -2.39 -0.04
 9 3 0 -2.06 -0.04
 11 3 0 3.00 -0.04
 13 3 0 -2.42 0.01
 15 3 0 2.58 0.04
 17 3 0 -2.45 0.04
 0 4 0 -5.43 0.00
 2 4 0 -8.93 0.00
 4 4 0 -3.34 0.00
 6 4 0 -1.74 0.02
 8 4 0 -0.38 0.00
 10 4 0 2.22 0.00
 12 4 0 0.31 -0.01
 14 4 0 0.93 0.03
 16 4 0 0.11 0.00
 18 4 0 -1.98 0.01
 1 5 0 6.10 -0.03
 3 5 0 8.18 -0.03
 5 5 0 5.13 -0.01
 7 5 0 -1.91 0.03
 9 5 0 1.57 0.04
 11 5 0 -2.57 0.03
 13 5 0 0.73 0.01
 15 5 0 -2.40 -0.05
 17 5 0 2.55 -0.01
 0 6 0 -3.09 0.00
 2 6 0 -7.16 0.03
 4 6 0 -0.66 0.04
 6 6 0 -2.27 0.00
 8 6 0 0.50 -0.03
 10 6 0 -1.98 -0.01
 12 6 0 -0.11 0.01
 14 6 0 0.74 0.00
 16 6 0 2.82 0.04
 1 7 0 7.91 -0.02
 3 7 0 -5.71 0.00
 5 7 0 1.49 0.04
 7 7 0 3.54 -0.01
 9 7 0 -0.47 -0.02
 11 7 0 -1.46 0.00
 13 7 0 -3.58 0.01
 15 7 0 0.71 0.03
 17 7 0 -1.61 0.01
 0 8 0 -6.07 0.00
 2 8 0 4.48 -0.13
 4 8 0 -2.82 -0.03
 6 8 0 0.13 -0.01
 8 8 0 -5.46 0.03
 10 8 0 2.65 0.03
 12 8 0 2.29 0.00
 14 8 0 -0.13 -0.02
 16 8 0 1.07 0.00
 1 9 0 -4.82 0.02
 3 9 0 3.48 0.04
 5 9 0 -0.43 0.03
 7 9 0 -2.45 -0.02
 9 9 0 -2.86 -0.01
 11 9 0 2.07 0.00
 13 9 0 7.06 0.01
 15 9 0 2.30 0.03
 0 10 0 0.99 0.00
 2 10 0 -2.26 0.04
 4 10 0 6.07 0.03
 6 10 0 4.40 0.00
 8 10 0 3.60 -0.04
 10 10 0 -5.65 -0.01
 12 10 0 4.48 0.00
 14 10 0 1.94 0.01
 1 11 0 -3.30 -0.05
 3 11 0 -1.24 -0.05
 5 11 0 1.62 -0.01
 7 11 0 -3.60 0.02
 9 11 0 -1.37 0.05
 11 11 0 2.23 0.04
 13 11 0 6.97 -0.02
 15 11 0 -2.11 -0.03
 0 12 0 -3.50 0.00
 2 12 0 3.08 0.00
 4 12 0 2.71 0.02
 6 12 0 -0.50 0.01
 8 12 0 -5.01 -0.01
 10 12 0 -0.38 -0.01
 12 12 0 -0.17 0.00
 14 12 0 -1.03 0.01
 1 13 0 0.10 0.05
 3 13 0 -0.99 0.03
 5 13 0 -5.32 0.02
 7 13 0 1.52 -0.01
 9 13 0 0.40 -0.04
 11 13 0 4.55 -0.02
 13 13 0 -3.79 0.02
 0 14 0 0.26 0.00
 2 14 0 0.60 -0.05
 4 14 0 -1.02 -0.03
 6 14 0 -0.55 0.00
 8 14 0 1.18 0.03
 10 14 0 1.30 0.03
 12 14 0 -1.15 0.00
 1 15 0 -0.38 -0.02
 3 15 0 3.87 -0.01
 5 15 0 1.95 0.00
 7 15 0 -1.77 0.00
 9 15 0 0.48 0.01
 11 15 0 -2.07 0.01
 0 16 0 -2.55 0.00
 2 16 0 -1.97 0.05
 4 16 0 8.10 0.04
 6 16 0 0.66 0.00
 8 16 0 1.62 -0.04
 10 16 0 1.85 -0.02
 1 17 0 0.14 -0.02
 3 17 0 2.79 -0.02
 5 17 0 3.57 -0.01
 7 17 0 1.79 0.01
 0 18 0 -1.32 0.00
 2 18 0 -1.59 -0.02
 4 18 0 -5.98 -0.01
 6 18 0 5.18 0.00
 1 19 0 -1.09 0.02
 -18 1 1 -1.40 -0.02
 -16 1 1 -1.83 0.02
 -14 1 1 3.25 0.03
 -12 1 1 3.71 0.02
 -10 1 1 -2.25 -0.04
 -8 1 1 -8.39 -0.05
 -6 1 1 -1.06 -0.01
 -4 1 1 11.00 0.00
 4 1 1 14.15 -0.01
 6 1 1 -8.70 -0.02
 8 1 1 -8.85 0.03
 10 1 1 -1.38 0.02
 12 1 1 1.47 0.02
 14 1 1 1.49 0.01
 16 1 1 2.06 -0.02
 18 1 1 -2.06 -0.02
 -17 2 1 -2.01 -0.01
 -15 2 1 2.35 -0.03
 -13 2 1 -1.90 -0.03
 -11 2 1 0.90 0.02
 -9 2 1 -3.93 0.03
 -7 2 1 -7.18 0.04
 -5 2 1 7.27 -0.01
 -3 2 1 9.17 0.00
 3 2 1 17.87 0.00
 5 2 1 2.64 0.04
 7 2 1 -8.65 0.00
 9 2 1 -0.34 -0.02
 11 2 1 4.30 -0.04
 13 2 1 -0.52 0.01
 15 2 1 1.20 0.01
 17 2 1 -5.05 0.04
 -18 3 1 -1.69 0.00
 -16 3 1 3.99 -0.02
 -14 3 1 1.61 0.00
 -12 3 1 0.46 0.00
 -10 3 1 1.78 0.01
 -8 3 1 0.80 0.02
 -6 3 1 -0.61 0.00
 -4 3 1 2.56 0.00
 2 3 1 -16.63 0.01
 4 3 1 -4.60 0.00
 6 3 1 -2.84 0.01
 8 3 1 0.04 -0.01
 10 3 1 1.17 -0.01
 12 3 1 -0.17 -0.02
 14 3 1 -0.67 0.02
 16 3 1 1.16 0.01
 18 3 1 0.78 0.01
 -17 4 1 0.63 0.01
 -15 4 1 -3.41 0.04
 -13 4 1 2.01 0.03
 -11 4 1 -2.38 -0.02
 -9 4 1 1.78 -0.04
 -7 4 1 -1.44 -0.06
 -5 4 1 1.71 0.00
 -3 4 1 3.44 0.01
 -1 4 1 -0.11 0.03
 1 4 1 -3.03 -0.01
 3 4 1 6.24 -0.02
 5 4 1 6.05 -0.02
 7 4 1 0.00 0.02
 9 4 1 0.76 0.03
 11 4 1 -2.67 0.04
 13 4 1 1.71 0.03
 15 4 1 -1.74 -0.02
 17 4 1 3.23 -0.04
 -16 5 1 3.29 -0.02
 -14 5 1 -0.97 -0.03
 -12 5 1 0.67 -0.01
 -10 5 1 -2.55 0.01
 -8 5 1 -1.56 0.01
 -6 5 1 0.01 0.02
 -4 5 1 1.20 0.00
 -2 5 1 1.25 -0.01
 0 5 1 -2.44 0.00
 4 5 1 2.22 0.03
 6 5 1 -0.71 0.00
 8 5 1 0.77 -0.01
 10 5 1 -2.46 -0.01
 12 5 1 0.00 0.00
 14 5 1 0.93 -0.03
 16 5 1 2.88 0.02
 -17 6 1 -1.28 0.01
 -15 6 1 0.99 -0.03
 -13 6 1 -0.21 -0.01
 -11 6 1 1.82 0.00
 -9 6 1 0.73 0.03
 -7 6 1 2.32 0.03
 -5 6 1 -4.01 -0.03
 -3 6 1 -7.36 -0.01
 -1 6 1 1.02 -0.01
 1 6 1 -2.32 -0.01
 3 6 1 -8.38 0.02
 5 6 1 -1.43 0.04
 7 6 1 2.44 -0.01
 9 6 1 -2.96 -0.02
 11 6 1 -0.06 -0.02
 13 6 1 -1.43 -0.02
 15 6 1 2.00 0.04
 17 6 1 -2.94 0.02
 -16 7 1 0.31 -0.01
 -14 7 1 1.02 0.03
 -12 7 1 -0.21 0.02
 -10 7 1 0.21 -0.01
 -8 7 1 -2.41 -0.03
 -6 7 1 1.68 -0.02
 -4 7 1 1.31 0.01
 -2 7 1 5.05 0.11
 0 7 1 -1.77 0.02
 2 7 1 8.43 -0.06
 4 7 1 -2.38 -0.04
 6 7 1 2.85 -0.03
 8 7 1 -2.66 0.01
 10 7 1 2.02 0.02
 12 7 1 4.48 0.01
 14 7 1 -1.73 0.01
 16 7 1 -1.29 -0.02
 -15 8 1 0.40 0.00
 -13 8 1 5.87 0.00
 -11 8 1 3.63 0.00
 -9 8 1 -2.50 0.00
 -7 8 1 -2.98 0.00
 -5 8 1 -1.12 0.02
 -3 8 1 2.29 -0.02
 -1 8 1 -10.77 -0.02
 1 8 1 -6.31 0.01
 3 8 1 4.41 0.02
 5 8 1 -5.07 0.00
 7 8 1 -4.85 0.00
 9 8 1 -0.36 0.00
 11 8 1 2.54 -0.01
 13 8 1 7.28 -0.01
 15 8 1 2.49 0.00
 -16 9 1 -0.55 0.02
 -14 9 1 2.01 -0.03
 -12 9 1 2.93 -0.02
 -10 9 1 -5.62 0.02
 -8 9 1 5.08 0.05
 -6 9 1 3.16 0.01
 -4 9 1 4.13 -0.02
 -2 9 1 -2.83 -0.10
 0 9 1 4.99 -0.02
 2 9 1 -2.19 0.07
 4 9 1 6.09 0.04
 6 9 1 2.83 0.03
 8 9 1 4.78 -0.02
 10 9 1 -3.20 -0.03
 12 9 1 -1.54 -0.02
 14 9 1 -0.50 0.00
 16 9 1 -1.31 0.01
 -15 10 1 -1.56 0.02
 -13 10 1 -0.98 0.03
 -11 10 1 -0.29 0.00
 -9 10 1 2.45 -0.03
 -7 10 1 -0.75 -0.04
 -5 10 1 -1.60 0.00
 -3 10 1 -2.26 0.04
 -1 10 1 0.24 0.06
 1 10 1 -1.22 0.00
 3 10 1 -3.10 -0.05
 5 10 1 0.01 -0.04
 7 10 1 -1.08 0.00
 9 10 1 -0.08 0.02
 11 10 1 2.39 0.03
 13 10 1 0.39 0.00
 15 10 1 -2.78 -0.03
 -14 11 1 -4.18 0.00
 -12 11 1 -4.54 0.02
 -10 11 1 3.77 0.01
 -8 11 1 -3.97 -0.02
 -6 11 1 -3.40 -0.01
 -4 11 1 -1.01 0.00
 -2 11 1 3.31 0.02
 0 11 1 -1.15 0.00
 2 11 1 1.96 -0.01
 4 11 1 -2.12 0.00
 6 11 1 -2.15 0.01
 8 11 1 -3.18 0.01
 10 11 1 2.16 -0.01
 12 11 1 -3.64 0.01
 14 11 1 0.11 0.01
 -13 12 1 -7.59 -0.04
 -11 12 1 1.82 0.01
 -9 12 1 0.14 0.04
 -7 12 1 1.56 0.03
 -5 12 1 -3.73 0.01
 -3 12 1 0.84 -0.03
 -1 12 1 2.81 -0.08
 1 12 1 1.05 0.02
 3 12 1 0.16 0.04
 5 12 1 -4.53 0.03
 7 12 1 3.95 0.01
 9 12 1 2.97 -0.04
 11 12 1 0.21 -0.05
 13 12 1 -7.96 -0.01
 -12 13 1 -1.91 0.02
 -10 13 1 3.41 -0.01
 -8 13 1 2.84 -0.02
 -6 13 1 -0.01 -0.01
 -4 13 1 -1.23 0.01
 -2 13 1 -1.81 0.02
 0 13 1 2.17 0.01
 2 13 1 -1.94 0.00
 4 13 1 -2.14 -0.04
 6 13 1 -0.08 -0.01
 8 13 1 4.80 0.02
 10 13 1 1.44 0.02
 12 13 1 -2.40 0.01
 -11 14 1 -4.54 0.00
 -9 14 1 0.65 -0.02
 -7 14 1 -0.32 -0.01
 -5 14 1 4.78 -0.01
 -3 14 1 3.52 0.01
 -1 14 1 -1.14 0.05
 1 14 1 0.45 -0.01
 3 14 1 3.39 -0.01
 5 14 1 4.51 -0.02
 7 14 1 -2.28 -0.01
 9 14 1 -0.82 0.02
 11 14 1 -4.41 0.02
 -10 15 1 -0.98 0.01
 -8 15 1 2.63 0.04
 -6 15 1 1.85 0.02
 -4 15 1 2.73 -0.02
 -2 15 1 -3.02 -0.07
 0 15 1 -1.56 -0.03
 2 15 1 -1.67 0.04
 4 15 1 5.67 0.05
 6 15 1 1.90 0.02
 8 15 1 -0.08 -0.02
 10 15 1 2.13 -0.03
 -9 16 1 -1.42 0.00
 -7 16 1 1.72 -0.01
 -5 16 1 1.61 -0.01
 -3 16 1 -0.83 0.01
 -1 16 1 1.21 0.01
 1 16 1 -2.00 0.00
 3 16 1 -0.75 0.00
 5 16 1 2.80 -0.01
 7 16 1 1.66 0.00
 9 16 1 -1.27 0.00
 -8 17 1 -1.66 -0.03
 -6 17 1 2.78 -0.02
 -4 17 1 -7.55 0.01
 -2 17 1 -1.35 0.02
 0 17 1 0.21 0.01
 2 17 1 0.23 -0.01
 4 17 1 -7.65 -0.03
 6 17 1 2.31 -0.01
 8 17 1 0.05 0.01
 -5 18 1 -1.31 0.01
 -3 18 1 -2.59 -0.02
 -1 18 1 -2.38 -0.04
 1 18 1 -1.45 0.01
 3 18 1 -3.60 0.02
 5 18 1 -1.06 0.02
 -2 19 1 1.50 -0.02
 0 19 1 0.93 0.00
 2 19 1 -0.69 0.02
 -18 0 2 -1.90 -0.04
 -16 0 2 -2.06 0.00
 -14 0 2 4.88 0.02
 -12 0 2 6.39 0.05
 -10 0 2 -2.39 -0.02
 -8 0 2 -9.86 -0.05
 -6 0 2 4.94 -0.03
 -4 0 2 16.56 0.00
 4 0 2 17.60 0.00
 6 0 2 -15.66 -0.03
 8 0 2 -10.08 0.02
 10 0 2 -0.52 0.00
 12 0 2 0.87 0.02
 14 0 2 -0.71 0.03
 16 0 2 3.69 -0.02
 18 0 2 -1.97 -0.03
 -17 1 2 -1.22 0.01
 -15 1 2 1.23 0.00
 -13 1 2 -0.65 -0.02
 -11 1 2 -1.09 0.01
 -9 1 2 -3.48 0.01
 -7 1 2 -6.59 0.02
 -5 1 2 7.84 0.01
 -3 1 2 5.14 0.01
 3 1 2 21.30 -0.01
 5 1 2 2.34 0.01
 7 1 2 -8.63 0.02
 9 1 2 0.98 0.01
 11 1 2 2.93 -0.03
 13 1 2 0.48 0.01
 15 1 2 1.00 -0.01
 17 1 2 -4.08 0.01
 -18 2 2 -1.11 0.03
 -16 2 2 5.22 -0.01
 -14 2 2 1.11 -0.02
 -12 2 2 -1.37 -0.02
 -10 2 2 1.68 0.02
 -8 2 2 2.52 0.03
 -6 2 2 -1.22 0.02
 -4 2 2 5.01 0.01
 -2 2 2 -9.77 0.00
 2 2 2 -12.68 0.01
 4 2 2 -6.57 0.00
 6 2 2 0.97 0.02
 8 2 2 2.94 -0.01
 10 2 2 1.18 0.00
 12 2 2 -0.76 -0.03
 14 2 2 -1.41 -0.02
 16 2 2 -1.50 0.00
 18 2 2 1.86 0.01
 -17 3 2 -1.47 0.00
 -15 3 2 -4.69 0.03
 -13 3 2 2.64 0.05
 -11 3 2 0.96 0.00
 -9 3 2 3.61 -0.02
 -7 3 2 2.11 -0.05
 -5 3 2 -2.95 -0.01
 -3 3 2 -1.22 -0.01
 -1 3 2 1.19 0.01
 1 3 2 -20.48 0.01
 3 3 2 -3.73 0.01
 5 3 2 6.22 -0.04
 7 3 2 4.82 0.00
 9 3 2 -2.39 0.01
 11 3 2 -3.48 0.04
 13 3 2 0.82 0.02
 15 3 2 -0.92 0.01
 17 3 2 4.43 -0.04
 -18 4 2 3.85 0.01
 -16 4 2 -0.68 0.01
 -14 4 2 -1.99 -0.03
 -12 4 2 0.06 0.00
 -10 4 2 -2.99 0.01
 -8 4 2 -3.19 -0.01
 -6 4 2 -0.16 0.02
 -4 4 2 0.41 0.01
 -2 4 2 7.55 -0.02
 0 4 2 3.72 0.01
 4 4 2 6.97 0.00
 6 4 2 2.72 -0.01
 8 4 2 0.55 0.01
 10 4 2 -1.75 -0.01
 12 4 2 0.98 0.00
 14 4 2 1.55 -0.03
 16 4 2 0.92 -0.01
 -17 5 2 0.26 0.03
 -15 5 2 1.09 -0.03
 -13 5 2 -0.20 -0.03
 -11 5 2 2.75 0.00
 -9 5 2 2.00 0.02
 -7 5 2 1.94 0.04
 -5 5 2 -3.05 0.02
 -3 5 2 -4.15 0.00
 -1 5 2 -3.68 -0.03
 1 5 2 -6.98 -0.01
 3 5 2 -8.77 0.00
 5 5 2 -4.98 0.01
 7 5 2 0.02 0.00
 9 5 2 -1.92 0.00
 11 5 2 0.00 -0.03
 13 5 2 -1.22 -0.05
 15 5 2 0.97 0.00
 17 5 2 -3.25 0.01
 -16 6 2 -3.24 -0.01
 -14 6 2 1.54 0.04
 -12 6 2 -1.57 0.03
 -10 6 2 -0.30 0.01
 -8 6 2 1.90 -0.02
 -6 6 2 0.54 -0.02
 -4 6 2 0.65 -0.01
 -2 6 2 0.20 0.04
 0 6 2 2.55 0.02
 2 6 2 12.35 0.02
 4 6 2 -2.14 -0.04
 6 6 2 3.59 -0.03
 8 6 2 -0.17 0.00
 10 6 2 2.18 -0.01
 12 6 2 3.13 0.00
 14 6 2 -2.58 0.04
 16 6 2 -3.54 -0.02
 -17 7 2 -0.56 -0.01
 -15 7 2 0.63 0.01
 -13 7 2 0.84 0.01
 -11 7 2 1.00 0.01
 -9 7 2 -2.38 -0.01
 -7 7 2 -1.83 -0.03
 -5 7 2 1.70 0.03
 -3 7 2 3.99 -0.01
 -1 7 2 -9.18 0.00
 1 7 2 -2.09 0.04
 3 7 2 5.77 0.00
 5 7 2 -5.88 -0.03
 7 7 2 -4.34 0.00
 9 7 2 3.19 0.00
 11 7 2 1.98 0.00
 13 7 2 4.08 0.00
 15 7 2 0.91 -0.02
 17 7 2 2.42 -0.03
 -16 8 2 -1.19 0.07
 -14 8 2 -1.64 -0.04
 -12 8 2 1.37 -0.03
 -10 8 2 -0.79 0.00
 -8 8 2 4.71 0.03
 -6 8 2 0.13 0.04
 -4 8 2 -1.40 0.02
 -2 8 2 -4.06 -0.13
 0 8 2 5.81 -0.03
 2 8 2 -4.26 0.05
 4 8 2 5.10 0.02
 6 8 2 0.17 0.05
 8 8 2 3.95 0.01
 10 8 2 -1.37 -0.01
 12 8 2 -7.70 -0.03
 14 8 2 0.08 -0.03
 16 8 2 0.92 0.00
 -15 9 2 -0.74 0.01
 -13 9 2 -4.77 0.02
 -11 9 2 -3.36 0.02
 -9 9 2 4.04 -0.01
 -7 9 2 1.04 -0.02
 -5 9 2 -2.30 -0.01
 -3 9 2 -0.51 0.01
 -1 9 2 7.70 0.03
 1 9 2 0.15 0.03
 3 9 2 -4.77 -0.03
 5 9 2 2.81 -0.04
 7 9 2 3.63 0.00
 9 9 2 0.30 0.00
 11 9 2 0.07 0.01
 13 9 2 -4.27 0.02
 15 9 2 -4.08 -0.02
 -14 10 2 -7.31 0.01
 -12 10 2 -7.23 0.04
 -10 10 2 6.86 0.00
 -8 10 2 -2.72 -0.04
 -6 10 2 -4.92 -0.02
 -4 10 2 -3.69 0.00
 -2 10 2 2.63 0.04
 0 10 2 -1.27 0.01
 2 10 2 0.48 -0.01
 4 10 2 -5.27 -0.03
 6 10 2 -2.80 -0.02
 8 10 2 -1.66 0.00
 10 10 2 1.19 -0.01
 12 10 2 -2.43 0.02
 14 10 2 2.12 0.02
 -15 11 2 1.22 0.00
 -13 11 2 -5.33 -0.04
 -11 11 2 0.87 -0.01
 -9 11 2 -1.48 0.02
 -7 11 2 0.60 0.04
 -5 11 2 -1.09 0.04
 -3 11 2 1.84 -0.01
 -1 11 2 3.82 -0.08
 1 11 2 2.08 -0.01
 3 11 2 0.39 0.02
 5 11 2 -2.79 0.04
 7 11 2 3.73 0.03
 9 11 2 3.15 -0.02
 11 11 2 -3.65 -0.04
 13 11 2 -6.95 -0.03
 15 11 2 2.23 0.00
 -14 12 2 2.17 0.01
 -12 12 2 -0.20 0.00
 -10 12 2 2.24 -0.01
 -8 12 2 4.29 0.00
 -6 12 2 1.60 0.00
 -4 12 2 -2.47 0.00
 -2 12 2 -3.32 -0.01
 0 12 2 3.24 0.01
 2 12 2 -1.58 0.01
 4 12 2 -1.01 -0.03
 6 12 2 0.76 -0.02
 8 12 2 4.77 0.01
 10 12 2 0.62 0.01
 12 12 2 -0.35 0.00
 14 12 2 0.44 -0.01
 -13 13 2 2.53 0.04
 -11 13 2 -4.90 0.02
 -9 13 2 1.53 0.00
 -7 13 2 1.01 -0.02
 -5 13 2 3.47 -0.03
 -3 13 2 0.39 0.00
 -1 13 2 -0.68 0.07
 1 13 2 1.25 0.01
 3 13 2 0.26 -0.01
 5 13 2 4.26 -0.04
 7 13 2 -3.81 -0.02
 9 13 2 -3.00 0.01
 11 13 2 -3.77 0.03
 13 13 2 2.75 0.02
 -12 14 2 0.86 -0.03
 -10 14 2 -3.80 -0.01
 -8 14 2 2.51 0.02
 -6 14 2 1.00 0.02
 -4 14 2 -2.50 0.01
 -2 14 2 -1.05 -0.04
 0 14 2 -0.08 -0.04
 2 14 2 0.93 0.00
 4 14 2 2.89 0.03
 6 14 2 0.96 0.03
 8 14 2 -2.93 0.00
 10 14 2 0.35 -0.02
 12 14 2 2.64 -0.03
 -11 15 2 1.77 0.00
 -9 15 2 0.07 0.00
 -7 15 2 0.14 0.01
 -5 15 2 -2.65 0.01
 -3 15 2 -3.65 0.00
 -1 15 2 3.31 -0.02
 1 15 2 -1.21 0.00
 3 15 2 -4.56 0.00
 5 15 2 -0.95 0.00
 7 15 2 2.02 0.01
 9 15 2 1.05 -0.01
 11 15 2 1.51 0.00
 -10 16 2 1.86 0.02
 -8 16 2 -3.78 -0.02
 -6 16 2 -1.78 -0.03
 -4 16 2 -5.67 -0.01
 -2 16 2 1.35 0.03
 0 16 2 2.02 0.03
 2 16 2 1.06 0.00
 4 16 2 -8.11 -0.03
 6 16 2 -2.30 -0.03
 8 16 2 -0.89 0.00
 10 16 2 -4.57 0.02
 -7 17 2 -0.67 0.01
 -5 17 2 -1.79 0.02
 -3 17 2 -1.03 -0.01
 -1 17 2 -2.55 -0.03
 1 17 2 1.50 -0.01
 3 17 2 -2.42 0.00
 5 17 2 -3.52 0.02
 7 17 2 -0.79 0.01
 -6 18 2 -4.40 0.02
 -4 18 2 4.16 0.01
 -2 18 2 3.25 0.00
 0 18 2 1.64 0.01
 2 18 2 -0.25 0.00
 4 18 2 4.09 0.01
 6 18 2 -3.80 0.02
 -1 19 2 1.33 0.04
 1 19 2 1.55 0.02
 -18 1 3 0.46 0.04
 -16 1 3 3.41 0.02
 -14 1 3 -1.31 0.00
 -12 1 3 -4.91 -0.04
 -10 1 3 1.31 0.01
 -8 1 3 5.09 0.02
 -6 1 3 -7.65 0.03
 -4 1 3 -4.76 0.02
 -2 1 3 6.96 0.02
 2 1 3 -7.64 0.01
 4 1 3 -9.55 -0.02
 6 1 3 11.23 0.02
 8 1 3 5.35 0.00
 10 1 3 0.52 0.03
 12 1 3 -0.64 -0.01
 14 1 3 0.76 -0.05
 16 1 3 -2.79 -0.01
 18 1 3 1.44 0.01
 -17 2 3 -1.98 -0.02
 -15 2 3 -3.83 -0.01
 -13 2 3 1.57 0.03
 -11 2 3 4.11 0.00
 -9 2 3 4.82 0.00
 -7 2 3 5.76 -0.02
 -5 2 3 -6.24 -0.02
 -3 2 3 -0.55 -0.03
 3 2 3 -17.96 0.02
 5 2 3 4.63 -0.02
 7 2 3 9.31 -0.02
 9 2 3 -4.62 -0.02
 11 2 3 -2.90 0.02
 13 2 3 -0.39 -0.01
 15 2 3 -1.84 0.02
 17 2 3 4.40 -0.01
 -18 3 3 3.14 -0.01
 -16 3 3 -5.09 0.01
 -14 3 3 -3.76 -0.01
 -12 3 3 -0.11 0.01
 -10 3 3 -2.70 0.00
 -8 3 3 -2.56 -0.01
 -6 3 3 -0.51 -0.01
 -4 3 3 -7.13 0.00
 0 3 3 5.75 0.01
 2 3 3 7.41 0.00
 4 3 3 7.18 0.00
 6 3 3 5.02 -0.01
 8 3 3 -0.22 0.01
 10 3 3 -1.95 -0.02
 12 3 3 1.47 0.01
 14 3 3 2.74 0.01
 16 3 3 1.26 0.00
 18 3 3 -2.34 0.00
 -17 4 3 2.26 0.03
 -15 4 3 3.57 0.00
 -13 4 3 -0.80 -0.04
 -11 4 3 -0.20 -0.02
 -9 4 3 0.61 -0.01
 -7 4 3 0.23 0.03
 -5 4 3 -0.20 0.03
 -3 4 3 0.72 0.02
 -1 4 3 -0.65 -0.01
 1 4 3 4.41 0.00
 3 4 3 -6.81 -0.03
 5 4 3 -8.50 0.00
 7 4 3 -3.44 0.01
 9 4 3 2.47 0.01
 11 4 3 0.28 -0.01
 13 4 3 -0.89 -0.03
 15 4 3 -0.78 -0.03
 17 4 3 -3.21 0.00
 -16 5 3 -3.67 -0.01
 -14 5 3 0.55 0.03
 -12 5 3 -1.78 0.01
 -10 5 3 1.17 0.00
 -8 5 3 5.46 0.01
 -6 5 3 0.78 -0.01
 -4 5 3 -2.71 -0.03
 -2 5 3 -4.32 0.01
 0 5 3 3.82 0.00
 2 5 3 10.05 0.04
 4 5 3 -4.63 -0.01
 6 5 3 1.79 -0.01
 8 5 3 1.38 -0.01
 10 5 3 1.80 -0.01
 12 5 3 -0.39 0.00
 14 5 3 -2.57 0.04
 16 5 3 -2.78 0.00
 -17 6 3 -2.36 -0.03
 -15 6 3 2.36 0.00
 -13 6 3 -0.77 0.01
 -11 6 3 -1.13 0.01
 -9 6 3 -4.72 0.00
 -7 6 3 -1.60 -0.02
 -5 6 3 2.49 0.00
 -3 6 3 4.42 -0.02
 -1 6 3 -1.07 0.01
 1 6 3 5.48 0.03
 3 6 3 6.74 0.01
 5 6 3 -2.68 -0.01
 7 6 3 -1.79 -0.01
 9 6 3 3.75 -0.02
 11 6 3 2.06 0.00
 13 6 3 1.90 0.03
 15 6 3 0.58 0.00
 17 6 3 2.90 -0.01
 -16 7 3 0.88 0.07
 -14 7 3 -3.56 -0.02
 -12 7 3 0.28 -0.03
 -10 7 3 3.08 -0.02
 -8 7 3 1.35 0.00
 -6 7 3 -0.15 0.03
 -4 7 3 -2.17 0.04
 -2 7 3 -1.86 -0.07
 0 7 3 1.86 -0.02
 2 7 3 -7.97 -0.01
 4 7 3 5.29 0.00
 6 7 3 -1.93 0.04
 8 7 3 0.55 0.02
 10 7 3 -1.18 0.03
 12 7 3 -8.62 0.00
 14 7 3 1.33 -0.06
 16 7 3 3.24 -0.01
 -15 8 3 -1.31 0.00
 -13 8 3 -1.18 0.00
 -11 8 3 -2.58 0.01
 -9 8 3 2.61 0.00
 -7 8 3 -0.03 0.01
 -5 8 3 -1.81 -0.01
 -3 8 3 -0.05 0.00
 -1 8 3 10.57 0.01
 1 8 3 -0.50 0.00
 3 8 3 -4.55 -0.01
 5 8 3 6.95 -0.01
 7 8 3 5.15 0.00
 9 8 3 -2.17 0.00
 11 8 3 -1.65 0.00
 13 8 3 -3.94 0.01
 15 8 3 -3.98 0.00
 -16 9 3 -1.01 -0.08
 -14 9 3 -3.44 0.01
 -12 9 3 -5.25 0.04
 -10 9 3 3.73 0.01
 -8 9 3 -3.06 -0.02
 -6 9 3 -2.08 -0.03
 -4 9 3 0.29 -0.03
 -2 9 3 3.03 0.07
 0 9 3 -4.54 0.02
 2 9 3 0.64 0.00
 4 9 3 -3.56 -0.01
 6 9 3 -2.01 -0.04
 8 9 3 -1.67 -0.02
 10 9 3 -0.44 -0.01
 12 9 3 3.87 0.03
 14 9 3 2.17 0.04
 16 9 3 0.79 0.02
 -15 10 3 1.20 0.02
 -13 10 3 -0.02 -0.02
 -11 10 3 1.96 -0.03
 -9 10 3 -3.62 0.00
 -7 10 3 -0.50 0.03
 -5 10 3 2.00 0.04
 -3 10 3 0.72 0.02
 -1 10 3 -1.92 -0.04
 1 10 3 3.11 -0.05
 3 10 3 2.61 0.01
 5 10 3 -1.95 0.04
 7 10 3 -0.88 0.03
 9 10 3 1.03 0.01
 11 10 3 -3.15 0.00
 13 10 3 -2.81 -0.03
 15 10 3 2.08 -0.01
 -14 11 3 8.37 0.00
 -12 11 3 5.04 -0.03
 -10 11 3 -1.77 -0.02
 -8 11 3 2.68 0.01
 -6 11 3 4.14 0.01
 -4 11 3 -0.44 0.01
 -2 11 3 -2.87 -0.01
 0 11 3 1.49 0.00
 2 11 3 0.64 0.00
 4 11 3 2.53 -0.01
 6 11 3 1.62 -0.01
 8 11 3 1.42 0.01
 10 11 3 0.68 0.02
 12 11 3 2.99 -0.01
 14 11 3 -1.98 -0.02
 -13 12 3 5.05 0.02
 -11 12 3 -3.77 0.03
 -9 12 3 2.05 0.02
 -7 12 3 1.94 -0.02
 -5 12 3 2.17 -0.05
 -3 12 3 -2.10 -0.02
 -1 12 3 -2.49 0.06
 1 12 3 0.79 0.02
 3 12 3 -0.30 0.01
 5 12 3 3.63 -0.03
 7 12 3 -4.36 -0.04
 9 12 3 -3.99 -0.01
 11 12 3 0.46 0.02
 13 12 3 4.60 0.04
 -12 13 3 2.84 -0.02
 -10 13 3 -5.54 -0.02
 -8 13 3 -0.39 0.00
 -6 13 3 -0.70 0.01
 -4 13 3 -1.94 0.02
 -2 13 3 1.82 0.00
 0 13 3 -1.54 -0.02
 2 13 3 1.52 -0.03
 4 13 3 1.35 0.02
 6 13 3 -0.53 0.02
 8 13 3 -5.36 0.01
 10 13 3 -1.57 0.00
 12 13 3 3.73 -0.02
 -11 14 3 3.29 -0.02
 -9 14 3 -0.16 -0.02
 -7 14 3 -2.06 0.01
 -5 14 3 -2.80 0.02
 -3 14 3 -2.23 0.01
 -1 14 3 1.60 -0.04
 1 14 3 -0.52 -0.02
 3 14 3 -3.33 -0.01
 5 14 3 -2.33 0.00
 7 14 3 3.84 0.02
 9 14 3 3.81 0.01
 11 14 3 3.49 0.00
 -10 15 3 3.44 0.04
 -8 15 3 -5.64 0.00
 -6 15 3 -3.66 -0.02
 -4 15 3 0.81 -0.02
 -2 15 3 2.27 0.02
 0 15 3 1.17 0.04
 2 15 3 -0.58 0.02
 4 15 3 -6.39 -0.01
 6 15 3 -3.58 -0.03
 8 15 3 -0.75 -0.02
 10 15 3 -3.69 0.00
 -9 16 3 -0.65 0.00
 -7 16 3 0.37 0.00
 -5 16 3 0.83 0.01
 -3 16 3 1.94 0.00
 -1 16 3 -3.83 -0.01
 1 16 3 2.18 -0.02
 3 16 3 2.29 -0.01
 5 16 3 -2.59 0.01
 7 16 3 0.11 0.01
 9 16 3 0.35 0.01
 -8 17 3 2.25 0.00
 -6 17 3 -0.74 0.03
 -4 17 3 5.14 0.03
 -2 17 3 2.19 0.03
 0 17 3 0.69 0.00
 2 17 3 0.12 -0.03
 4 17 3 4.07 0.00
 6 17 3 0.20 0.02
 8 17 3 -0.36 0.03
 -5 18 3 0.03 -0.03
 -3 18 3 0.65 -0.01
 -1 18 3 3.10 0.02
 1 18 3 1.42 0.02
 3 18 3 2.72 0.02
 5 18 3 0.02 -0.02
 -2 19 3 -1.88 0.00
 0 19 3 -0.57 -0.02
 2 19 3 1.39 -0.01
 -18 0 4 2.14 0.03
 -16 0 4 1.31 0.03
 -14 0 4 -2.28 0.03
 -12 0 4 -6.62 -0.03
 -10 0 4 0.06 0.01
 -8 0 4 4.75 -0.01
 -6 0 4 -13.50 0.02
 -4 0 4 -10.21 0.02
 4 0 4 -8.22 -0.03
 6 0 4 17.26 0.00
 8 0 4 3.82 0.00
 10 0 4 -0.03 0.06
 12 0 4 -0.44 0.02
 14 0 4 2.01 -0.05
 16 0 4 -0.83 -0.02
 18 0 4 0.86 -0.01
 -17 1 4 -1.57 -0.02
 -15 1 4 -2.01 -0.02
 -13 1 4 0.03 0.00
 -11 1 4 3.87 -0.01
 -9 1 4 3.74 0.01
 -7 1 4 4.34 0.00
 -5 1 4 -5.77 -0.02
 -3 1 4 2.56 -0.02
 3 1 4 -16.70 0.01
 5 1 4 3.56 0.01
 7 1 4 7.37 -0.01
 9 1 4 -4.33 -0.02
 11 1 4 -0.66 0.01
 13 1 4 0.15 -0.02
 15 1 4 -2.32 0.02
 17 1 4 1.74 0.01
 -18 2 4 2.16 -0.02
 -16 2 4 -4.47 -0.02
 -14 2 4 -4.71 -0.01
 -12 2 4 0.79 0.02
 -10 2 4 -1.65 -0.01
 -8 2 4 -1.09 0.01
 -6 2 4 3.62 -0.02
 -4 2 4 -8.31 -0.02
 -2 2 4 -4.46 -0.02
 2 2 4 6.28 0.00
 4 2 4 3.19 0.02
 6 2 4 0.35 0.00
 8 2 4 -0.30 -0.01
 10 2 4 -2.17 -0.04
 12 2 4 1.16 -0.01
 14 2 4 2.10 0.04
 16 2 4 1.68 0.02
 18 2 4 -1.27 0.02
 -17 3 4 4.09 0.02
 -15 3 4 4.65 0.02
 -13 3 4 -0.68 -0.02
 -11 3 4 -4.13 -0.02
 -9 3 4 -1.84 -0.02
 -7 3 4 -2.65 0.00
 -5 3 4 -0.40 0.02
 -3 3 4 0.17 0.04
 1 3 4 16.61 -0.01
 3 3 4 -1.05 -0.04
 5 3 4 -10.45 0.00
 7 3 4 -6.68 0.00
 9 3 4 6.59 0.02
 11 3 4 0.12 0.01
 13 3 4 0.25 0.01
 15 3 4 0.15 -0.03
 17 3 4 -2.33 -0.02
 -18 4 4 -3.32 -0.01
 -16 4 4 1.01 -0.01
 -14 4 4 1.28 0.02
 -12 4 4 -1.68 0.00
 -10 4 4 2.43 -0.01
 -8 4 4 6.09 0.01
 -6 4 4 2.35 0.00
 -4 4 4 -0.13 -0.02
 -2 4 4 -1.56 0.01
 0 4 4 0.79 0.00
 2 4 4 3.64 0.01
 4 4 4 -7.38 0.02
 6 4 4 -1.76 0.00
 8 4 4 2.09 -0.02
 10 4 4 2.03 0.01
 12 4 4 -2.52 0.00
 14 4 4 -3.25 0.01
 16 4 4 -1.73 0.01
 -17 5 4 -2.81 -0.03
 -15 5 4 1.05 -0.02
 -13 5 4 -0.92 0.01
 -11 5 4 -0.14 0.01
 -9 5 4 -5.56 0.02
 -7 5 4 -1.00 0.00
 -5 5 4 -0.02 -0.02
 -3 5 4 0.20 -0.03
 -1 5 4 1.74 0.00
 1 5 4 5.14 -0.01
 3 5 4 6.59 0.04
 5 5 4 1.70 0.03
 7 5 4 1.90 0.00
 9 5 4 0.14 -0.03
 11 5 4 2.35 0.00
 13 5 4 0.97 0.02
 15 5 4 2.74 0.03
 17 5 4 2.50 0.04
 -16 6 4 4.35 0.04
 -14 6 4 -0.88 0.00
 -12 6 4 0.65 -0.02
 -10 6 4 2.75 -0.03
 -8 6 4 -2.97 -0.02
 -6 6 4 0.23 0.00
 -4 6 4 2.25 0.04
 -2 6 4 3.76 0.00
 0 6 4 -2.76 0.00
 2 6 4 -10.17 -0.04
 4 6 4 5.41 -0.01
 6 6 4 -2.84 0.00
 8 6 4 -2.96 0.01
 10 6 4 -0.98 0.05
 12 6 4 -3.80 0.03
 14 6 4 1.71 -0.05
 16 6 4 3.18 0.00
 -17 7 4 3.63 0.00
 -15 7 4 -3.60 0.01
 -13 7 4 1.58 0.00
 -11 7 4 -0.98 0.00
 -9 7 4 2.72 0.00
 -7 7 4 -0.42 0.02
 -5 7 4 -0.43 -0.01
 -3 7 4 -2.35 0.01
 -1 7 4 4.85 0.00
 1 7 4 -3.20 -0.03
 3 7 4 -4.54 0.00
 5 7 4 7.52 0.01
 7 7 4 3.51 0.00
 9 7 4 -4.08 0.01
 11 7 4 -2.46 0.01
 13 7 4 -2.06 0.00
 15 7 4 -2.82 0.00
 -16 8 4 -1.10 -0.11
 -14 8 4 2.81 -0.01
 -12 8 4 -0.14 0.01
 -10 8 4 -2.15 0.02
 -8 8 4 -3.35 0.01
 -6 8 4 0.46 -0.03
 -4 8 4 3.37 -0.05
 -2 8 4 3.36 0.06
 0 8 4 -4.02 0.01
 2 8 4 1.58 0.02
 4 8 4 -3.32 0.04
 6 8 4 -1.25 -0.03
 8 8 4 -0.52 -0.03
 10 8 4 -0.24 -0.03
 12 8 4 8.80 0.00
 14 8 4 1.08 0.04
 16 8 4 -2.48 0.04
 -15 9 4 2.44 0.02
 -13 9 4 0.60 0.00
 -11 9 4 1.07 -0.03
 -9 9 4 -3.31 -0.01
 -7 9 4 1.33 0.00
 -5 9 4 3.67 0.01
 -3 9 4 -0.76 0.04
 -1 9 4 -8.34 0.00
 1 9 4 4.39 -0.05
 3 9 4 4.20 0.00
 5 9 4 -3.61 0.01
 7 9 4 -4.46 0.00
 9 9 4 0.97 0.02
 11 9 4 -0.02 0.02
 13 9 4 -0.59 -0.02
 15 9 4 2.29 0.00
 -14 10 4 10.03 0.01
 -12 10 4 7.97 -0.03
 -10 10 4 -3.29 -0.02
 -8 10 4 0.39 0.00
 -6 10 4 3.44 0.01
 -4 10 4 -0.61 0.02
 -2 10 4 -2.21 0.00
 0 10 4 1.77 -0.01
 2 10 4 1.79 -0.01
 4 10 4 1.96 0.00
 6 10 4 1.24 0.00
 8 10 4 -1.21 0.02
 10 10 4 1.39 0.04
 12 10 4 2.01 -0.01
 14 10 4 -2.74 -0.02
 -15 11 4 -0.28 -0.05
 -13 11 4 4.02 -0.01
 -11 11 4 -3.09 0.03
 -9 11 4 2.37 0.03
 -7 11 4 2.52 -0.02
 -5 11 4 1.62 -0.04
 -3 11 4 -1.85 -0.05
 -1 11 4 -2.28 0.02
 1 11 4 -1.50 0.03
 3 11 4 0.02 0.02
 5 11 4 3.10 -0.01
 7 11 4 -1.09 -0.04
 9 11 4 -1.38 -0.02
 11 11 4 3.50 -0.01
 13 11 4 4.22 0.03
 -14 12 4 -3.20 0.00
 -12 12 4 1.43 0.02
 -10 12 4 -4.82 0.00
 -8 12 4 -2.59 0.00
 -6 12 4 -2.59 0.00
 -4 12 4 0.81 0.00
 -2 12 4 2.48 0.02
 0 12 4 -2.78 0.00
 2 12 4 -0.34 -0.03
 4 12 4 -0.59 0.02
 6 12 4 -1.72 0.01
 8 12 4 -4.52 0.00
 10 12 4 -2.39 0.01
 12 12 4 1.15 0.00
 14 12 4 0.07 0.00
 -13 13 4 -0.81 0.01
 -11 13 4 3.74 -0.03
 -9 13 4 -1.84 -0.05
 -7 13 4 -3.62 0.00
 -5 13 4 -0.11 0.03
 -3 13 4 1.26 0.04
 -1 13 4 -1.26 -0.02
 1 13 4 -1.68 -0.02
 3 13 4 0.00 -0.01
 5 13 4 -1.24 0.00
 7 13 4 4.94 0.02
 9 13 4 5.36 0.03
 11 13 4 2.60 0.02
 13 13 4 0.35 -0.03
 -12 14 4 -1.25 0.01
 -10 14 4 4.32 0.04
 -8 14 4 -4.94 0.02
 -6 14 4 -1.46 0.01
 -4 14 4 6.18 -0.02
 -2 14 4 -0.18 -0.01
 0 14 4 -0.27 0.02
 2 14 4 -1.19 0.04
 4 14 4 -3.05 0.02
 6 14 4 -1.62 -0.01
 8 14 4 1.65 -0.02
 10 14 4 -0.32 -0.02
 12 14 4 -3.91 0.01
 -11 15 4 -0.22 0.01
 -9 15 4 -2.73 0.02
 -7 15 4 2.70 -0.01
 -5 15 4 3.01 -0.01
 -3 15 4 2.56 -0.01
 -1 15 4 -4.09 0.01
 1 15 4 -0.65 0.00
 3 15 4 5.87 0.00
 5 15 4 0.30 0.02
 7 15 4 -1.16 0.00
 9 15 4 -3.37 0.00
 11 15 4 -0.25 0.00
 -10 16 4 -3.40 -0.05
 -8 16 4 4.23 -0.02
 -6 16 4 4.15 0.01
 -4 16 4 3.04 0.03
 -2 16 4 -0.37 0.03
 0 16 4 -1.25 0.00
 2 16 4 1.34 -0.04
 4 16 4 5.47 -0.01
 6 16 4 4.43 0.00
 8 16 4 2.83 0.03
 -7 17 4 -1.40 0.01
 -5 17 4 -1.01 -0.01
 -3 17 4 -1.07 -0.01
 -1 17 4 3.03 0.00
 1 17 4 -0.84 0.02
 3 17 4 0.56 0.03
 5 17 4 2.71 0.00
 7 17 4 -0.60 -0.01
 -6 18 4 2.15 -0.01
 -4 18 4 -1.60 -0.02
 -2 18 4 -2.30 -0.05
 0 18 4 -1.52 -0.04
 2 18 4 -0.70 0.02
 4 18 4 0.76 0.02
 6 18 4 1.52 -0.01
 -1 19 4 -2.35 0.01
 1 19 4 -2.67 -0.02
 -18 1 5 -0.97 0.00
 -16 1 5 -0.47 -0.03
 -14 1 5 -2.22 -0.04
 -12 1 5 3.26 0.01
 -10 1 5 0.18 -0.01
 -8 1 5 -0.73 0.02
 -6 1 5 10.75 0.00
 -4 1 5 1.20 -0.01
 -2 1 5 -21.34 -0.03
 2 1 5 14.66 -0.01
 4 1 5 1.80 0.04
 6 1 5 -10.00 0.02
 8 1 5 0.74 0.01
 10 1 5 -1.61 -0.06
 12 1 5 0.66 -0.04
 14 1 5 0.73 0.03
 16 1 5 -1.33 0.03
 18 1 5 -0.41 0.04
 -17 2 5 4.90 0.01
 -15 2 5 3.39 0.04
 -13 2 5 0.21 0.00
 -11 2 5 -5.53 0.01
 -9 2 5 -3.49 -0.02
 -7 2 5 -3.63 -0.02
 -5 2 5 0.83 0.01
 -3 2 5 -5.14 0.04
 1 2 5 14.33 -0.01
 3 2 5 5.11 -0.02
 5 2 5 -10.92 -0.02
 7 2 5 -7.77 -0.01
 9 2 5 8.35 0.02
 11 2 5 -1.24 0.01
 13 2 5 -0.33 0.05
 15 2 5 2.54 -0.02
 17 2 5 0.26 -0.02
 -18 3 5 -2.86 -0.01
 -16 3 5 3.39 0.00
 -14 3 5 5.05 0.02
 -12 3 5 -0.09 -0.01
 -10 3 5 2.73 0.00
 -8 3 5 2.98 -0.01
 -6 3 5 1.55 0.00
 -4 3 5 7.09 0.00
 -2 3 5 3.90 0.01
 0 3 5 -6.35 0.03
 2 3 5 1.03 0.00
 4 3 5 -3.39 0.01
 6 3 5 -3.36 -0.01
 8 3 5 0.56 -0.02
 10 3 5 2.94 0.03
 12 3 5 -1.98 0.03
 14 3 5 -3.85 -0.01
 16 3 5 -1.43 0.00
 -17 4 5 -2.46 -0.01
 -15 4 5 -1.46 -0.03
 -13 4 5 -1.51 0.00
 -11 4 5 2.06 0.01
 -9 4 5 -3.37 0.04
 -7 4 5 0.59 0.03
 -5 4 5 1.70 -0.01
 -3 4 5 -2.15 -0.03
 -1 4 5 -2.30 -0.03
 1 4 5 -4.39 -0.04
 3 4 5 8.48 0.04
 5 4 5 5.87 0.04
 7 4 5 4.48 0.02
 9 4 5 -4.60 -0.01
 11 4 5 2.84 -0.02
 13 4 5 -0.36 -0.03
 15 4 5 3.33 0.03
 17 4 5 1.04 0.06
 -16 5 5 2.81 0.01
 -14 5 5 1.79 0.00
 -12 5 5 2.62 0.00
 -10 5 5 0.95 0.00
 -8 5 5 -5.27 -0.02
 -6 5 5 -1.28 -0.02
 -4 5 5 4.25 0.02
 -2 5 5 3.48 0.02
 0 5 5 -6.91 0.01
 2 5 5 -7.64 -0.02
 4 5 5 6.39 -0.02
 6 5 5 -2.57 -0.02
 8 5 5 -5.22 0.02
 10 5 5 -0.86 0.03
 12 5 5 1.82 0.02
 14 5 5 2.12 -0.01
 16 5 5 1.53 0.00
 -17 6 5 4.94 0.00
 -15 6 5 -4.26 0.03
 -13 6 5 1.58 0.01
 -11 6 5 -1.50 0.00
 -9 6 5 4.72 -0.02
 -7 6 5 0.49 -0.01
 -5 6 5 2.79 0.00
 -3 6 5 -1.99 0.03
 -1 6 5 -2.90 0.01
 1 6 5 -4.78 -0.01
 3 6 5 -4.45 -0.02
 5 6 5 5.28 -0.03
 7 6 5 0.87 -0.01
 9 6 5 -2.36 0.02
 11 6 5 -2.73 0.01
 13 6 5 -0.76 0.01
 15 6 5 -3.69 -0.01
 17 6 5 -2.80 -0.02
 -16 7 5 -3.42 -0.08
 -14 7 5 2.54 -0.02
 -12 7 5 2.73 -0.01
 -10 7 5 -4.06 0.03
 -8 7 5 -1.43 0.03
 -6 7 5 -0.38 0.01
 -4 7 5 -0.46 -0.03
 -2 7 5 -0.59 0.02
 0 7 5 0.48 -0.02
 2 7 5 1.95 0.02
 4 7 5 -5.83 0.05
 6 7 5 -0.44 0.01
 8 7 5 2.37 -0.01
 10 7 5 0.24 -0.05
 12 7 5 7.31 -0.04
 14 7 5 0.42 0.03
 16 7 5 -2.66 0.02
 -15 8 5 4.01 0.00
 -13 8 5 -1.67 0.00
 -11 8 5 -0.42 -0.01
 -9 8 5 -0.93 0.00
 -7 8 5 3.67 -0.02
 -5 8 5 1.34 0.00
 -3 8 5 0.71 0.01
 -1 8 5 -6.30 0.01
 1 8 5 4.39 -0.01
 3 8 5 3.57 0.00
 5 8 5 -5.31 -0.01
 7 8 5 -3.40 -0.01
 9 8 5 2.88 0.00
 11 8 5 2.65 0.01
 13 8 5 -0.12 0.00
 15 8 5 2.09 0.01
 -16 9 5 2.69 0.08
 -14 9 5 3.11 0.02
 -12 9 5 3.87 0.00
 -10 9 5 0.03 -0.01
 -8 9 5 1.06 -0.02
 -6 9 5 -0.53 0.00
 -4 9 5 -3.78 0.03
 -2 9 5 -2.32 -0.01
 0 9 5 3.02 0.01
 2 9 5 1.44 -0.01
 4 9 5 -1.26 -0.03
 6 9 5 1.19 0.00
 8 9 5 -1.81 0.02
 10 9 5 0.59 0.03
 12 9 5 -2.52 0.01
 14 9 5 -1.46 -0.01
 16 9 5 1.22 -0.05
 -15 10 5 -2.47 -0.05
 -13 10 5 1.54 -0.02
 -11 10 5 -0.84 0.02
 -9 10 5 3.05 0.02
 -7 10 5 0.24 0.00
 -5 10 5 -1.02 -0.01
 -3 10 5 -0.56 -0.05
 -1 10 5 3.28 -0.01
 1 10 5 -4.67 0.03
 3 10 5 -2.18 0.02
 5 10 5 2.52 0.01
 7 10 5 3.60 -0.01
 9 10 5 1.43 -0.02
 11 10 5 2.26 -0.04
 13 10 5 3.44 0.00
 15 10 5 0.99 0.02
 -14 11 5 -9.45 -0.01
 -12 11 5 -3.85 0.02
 -10 11 5 -2.17 0.01
 -8 11 5 -0.84 0.01
 -6 11 5 -3.30 0.00
 -4 11 5 2.36 -0.01
 -2 11 5 2.06 0.00
 0 11 5 -2.18 0.00
 2 11 5 -2.36 -0.01
 4 11 5 -1.55 0.01
 6 11 5 -1.20 0.01
 8 11 5 -0.55 -0.01
 10 11 5 -2.07 -0.02
 12 11 5 -2.10 0.00
 14 11 5 2.18 0.00
 -13 12 5 -3.23 0.04
 -11 12 5 3.87 -0.01
 -9 12 5 -2.04 -0.05
 -7 12 5 -4.34 -0.01
 -5 12 5 -0.67 0.01
 -3 12 5 2.37 0.04
 -1 12 5 -0.54 0.01
 1 12 5 -1.77 0.00
 3 12 5 0.00 -0.02
 5 12 5 -1.09 -0.02
 7 12 5 2.84 0.01
 9 12 5 2.87 0.03
 11 12 5 -1.24 0.04
 13 12 5 0.39 -0.01
 -12 13 5 -3.93 -0.01
 -10 13 5 5.30 0.01
 -8 13 5 -1.06 0.02
 -6 13 5 1.40 0.02
 -4 13 5 5.08 -0.01
 -2 13 5 -2.02 -0.03
 0 13 5 0.94 -0.01
 2 13 5 0.34 0.03
 4 13 5 -0.60 0.01
 6 13 5 0.67 0.00
 8 13 5 4.56 -0.01
 10 13 5 3.18 -0.03
 12 13 5 -4.14 -0.01
 -11 14 5 -0.26 0.01
 -9 14 5 -1.48 0.05
 -7 14 5 4.77 0.01
 -5 14 5 0.38 0.00
 -3 14 5 0.11 -0.03
 -1 14 5 0.44 0.00
 1 14 5 -1.34 0.01
 3 14 5 4.33 0.01
 5 14 5 0.15 0.03
 7 14 5 -3.32 0.00
 9 14 5 -6.83 -0.02
 11 14 5 -2.21 -0.03
 -10 15 5 -2.81 -0.04
 -8 15 5 5.87 -0.04
 -6 15 5 4.52 -0.03
 -4 15 5 -3.18 0.01
 -2 15 5 -0.40 0.03
 0 15 5 -1.03 0.01
 2 15 5 1.55 -0.03
 4 15 5 4.96 -0.03
 6 15 5 4.30 -0.02
 8 15 5 3.40 0.01
 10 15 5 4.17 0.04
 -9 16 5 3.98 -0.01
 -7 16 5 -2.84 0.01
 -5 16 5 -3.16 0.00
 -3 16 5 -2.00 0.00
 -1 16 5 3.53 0.00
 1 16 5 0.35 0.02
 3 16 5 -3.49 0.01
 5 16 5 1.95 -0.01
 7 16 5 -1.64 -0.01
 9 16 5 0.31 -0.02
 -8 17 5 -1.12 0.03
 -6 17 5 -1.64 0.01
 -4 17 5 -3.10 -0.02
 -2 17 5 -1.31 -0.07
 0 17 5 -0.78 -0.05
 2 17 5 -2.67 0.03
 4 17 5 0.45 0.03
 6 17 5 -2.36 0.02
 8 17 5 -0.97 -0.02
 -5 18 5 1.36 0.00
 -3 18 5 0.74 0.02
 -1 18 5 -2.93 0.02
 1 18 5 -2.28 0.00
 3 18 5 -0.49 -0.03
 5 18 5 0.57 -0.01
 0 19 5 -0.97 0.04
 -18 0 6 -3.85 0.03
 -16 0 6 2.58 -0.01
 -14 0 6 -0.53 -0.05
 -12 0 6 4.00 -0.01
 -10 0 6 1.26 -0.03
 -8 0 6 0.52 0.02
 -6 0 6 13.09 0.02
 -4 0 6 5.82 0.01
 -2 0 6 -31.45 -0.02
 0 0 6 -5.70 -0.03
 4 0 6 1.61 0.03
 6 0 6 -13.61 0.04
 8 0 6 3.53 0.03
 10 0 6 -2.31 -0.05
 12 0 6 0.04 -0.06
 14 0 6 2.15 0.00
 16 0 6 -5.20 0.01
 18 0 6 -0.58 0.05
 -17 1 6 3.77 0.00
 -15 1 6 2.28 0.02
 -13 1 6 1.16 0.02
 -11 1 6 -3.30 0.02
 -9 1 6 -3.00 0.00
 -7 1 6 -1.81 -0.02
 -5 1 6 2.36 0.00
 -3 1 6 -6.91 0.02
 1 1 6 5.93 0.00
 3 1 6 3.76 0.00
 5 1 6 -9.01 -0.02
 7 1 6 -5.09 -0.01
 9 1 6 6.38 0.01
 11 1 6 -1.82 0.00
 13 1 6 -1.58 0.04
 15 1 6 2.55 -0.01
 17 1 6 2.24 -0.02
 -18 2 6 -1.42 -0.02
 -16 2 6 0.19 0.01
 -14 2 6 6.86 0.03
 -12 2 6 0.87 0.01
 -10 2 6 1.67 0.02
 -8 2 6 -0.74 -0.02
 -6 2 6 -2.45 -0.01
 -4 2 6 7.42 0.00
 -2 2 6 10.45 0.00
 0 2 6 -10.86 0.04
 2 2 6 -4.54 0.01
 4 2 6 2.43 -0.01
 6 2 6 0.85 -0.02
 8 2 6 -2.34 -0.02
 10 2 6 3.40 0.03
 12 2 6 -0.95 0.05
 14 2 6 -3.84 -0.01
 16 2 6 1.47 -0.01
 -17 3 6 -3.96 0.01
 -15 3 6 -1.44 -0.03
 -13 3 6 -1.14 -0.01
 -11 3 6 3.09 -0.01
 -9 3 6 -0.50 0.03
 -7 3 6 1.23 0.05
 -5 3 6 5.64 0.01
 -3 3 6 2.31 -0.02
 -1 3 6 3.09 -0.04
 1 3 6 -9.84 -0.03
 3 3 6 11.95 0.02
 5 3 6 9.94 0.03
 7 3 6 4.80 0.04
 9 3 6 -7.69 0.00
 11 3 6 3.67 -0.02
 13 3 6 -0.76 -0.07
 15 3 6 0.87 0.00
 17 3 6 -2.17 0.04
 -18 4 6 1.77 0.02
 -16 4 6 -0.92 0.00
 -14 4 6 -0.11 -0.01
 -12 4 6 2.66 0.01
 -10 4 6 -0.77 0.01
 -8 4 6 -4.17 -0.01
 -6 4 6 -2.17 -0.01
 -4 4 6 -0.49 0.01
 -2 4 6 -2.76 0.01
 0 4 6 -5.97 -0.01
 2 4 6 -3.73 0.01
 4 4 6 5.11 -0.03
 6 4 6 -2.03 -0.01
 8 4 6 -4.83 0.03
 10 4 6 -1.39 0.00
 12 4 6 3.08 -0.02
 14 4 6 2.69 0.01
 16 4 6 0.66 -0.01
 -17 5 6 1.83 -0.01
 -15 5 6 -2.48 0.03
 -13 5 6 2.51 0.02
 -11 5 6 -2.14 0.02
 -9 5 6 4.78 -0.03
 -7 5 6 0.64 -0.04
 -5 5 6 3.14 0.00
 -3 5 6 0.78 0.02
 -1 5 6 -2.09 0.02
 1 5 6 -0.77 0.05
 3 5 6 -5.29 -0.02
 5 5 6 2.72 -0.05
 7 5 6 -1.23 -0.03
 9 5 6 1.46 0.00
 11 5 6 -3.33 0.01
 13 5 6 0.66 0.04
 15 5 6 -5.27 0.00
 17 5 6 -1.80 -0.07
 -16 6 6 -4.07 -0.02
 -14 6 6 -1.84 -0.02
 -12 6 6 0.64 -0.03
 -10 6 6 -2.95 0.01
 -8 6 6 0.55 0.02
 -6 6 6 -1.64 0.04
 -4 6 6 -4.65 0.00
 -2 6 6 -4.69 -0.01
 0 6 6 5.68 -0.03
 2 6 6 1.33 0.01
 4 6 6 -7.44 0.03
 6 6 6 0.95 0.04
 8 6 6 5.28 0.01
 10 6 6 -0.22 -0.04
 12 6 6 1.10 -0.05
 14 6 6 -0.27 -0.01
 16 6 6 -0.36 -0.04
 -17 7 6 -4.91 0.02
 -15 7 6 4.11 -0.02
 -13 7 6 -1.93 -0.01
 -11 7 6 0.97 -0.01
 -9 7 6 0.16 0.01
 -7 7 6 2.79 -0.01
 -5 7 6 -4.09 0.00
 -3 7 6 2.54 -0.02
 -1 7 6 2.33 0.00
 1 7 6 2.72 0.01
 3 7 6 3.24 0.00
 5 7 6 -4.96 0.00
 7 7 6 -0.99 0.01
 9 7 6 2.72 -0.01
 11 7 6 3.38 -0.01
 13 7 6 0.06 0.00
 15 7 6 2.31 0.00
 -16 8 6 3.50 0.07
 -14 8 6 -2.07 0.03
 -12 8 6 -2.41 0.04
 -10 8 6 2.78 0.00
 -8 8 6 2.23 -0.02
 -6 8 6 -2.22 -0.01
 -4 8 6 -2.34 0.02
 -2 8 6 -0.62 -0.01
 0 8 6 0.20 0.03
 2 8 6 2.59 0.00
 4 8 6 0.28 -0.06
 6 8 6 2.04 -0.02
 8 8 6 -2.37 0.00
 10 8 6 -0.85 0.02
 12 8 6 -4.82 0.03
 14 8 6 -0.37 0.01
 16 8 6 2.75 -0.04
 -15 9 6 -5.01 -0.02
 -13 9 6 0.76 -0.02
 -11 9 6 2.62 0.01
 -9 9 6 2.23 0.01
 -7 9 6 -4.49 0.01
 -5 9 6 -2.56 0.02
 -3 9 6 -1.53 -0.04
 -1 9 6 5.91 -0.03
 1 9 6 -5.60 0.02
 3 9 6 -3.44 0.00
 5 9 6 2.19 0.02
 7 9 6 3.68 0.02
 9 9 6 0.68 -0.01
 11 9 6 -1.50 -0.03
 13 9 6 2.72 -0.01
 15 9 6 1.77 -0.01
 -14 10 6 -8.56 -0.02
 -12 10 6 -5.57 -0.01
 -10 10 6 -1.01 0.00
 -8 10 6 0.87 0.02
 -6 10 6 -0.95 0.01
 -4 10 6 4.31 -0.01
 -2 10 6 1.99 -0.02
 0 10 6 -2.18 -0.01
 2 10 6 -2.47 0.00
 4 10 6 1.47 0.00
 6 10 6 0.02 0.02
 8 10 6 2.60 -0.01
 10 10 6 -0.17 -0.03
 12 10 6 -1.82 -0.01
 14 10 6 1.42 -0.01
 -15 11 6 -0.55 0.04
 -13 11 6 -4.11 0.04
 -11 11 6 3.03 0.01
 -9 11 6 -1.48 -0.02
 -7 11 6 -2.89 -0.01
 -5 11 6 -2.30 -0.01
 -3 11 6 1.25 0.04
 -1 11 6 -0.13 0.03
 1 11 6 1.23 0.02
 3 11 6 -0.18 -0.01
 5 11 6 -1.42 -0.03
 7 11 6 -1.89 0.00
 9 11 6 -2.66 0.00
 11 11 6 -3.58 0.04
 13 11 6 -0.61 0.02
 -14 12 6 3.36 0.01
 -12 12 6 -2.79 -0.02
 -10 12 6 5.55 -0.01
 -8 12 6 1.29 0.00
 -6 12 6 2.21 0.01
 -4 12 6 0.11 0.00
 -2 12 6 -1.82 -0.02
 0 12 6 2.83 -0.01
 2 12 6 1.67 0.01
 4 12 6 0.46 -0.01
 6 12 6 1.17 0.00
 8 12 6 3.84 0.00
 10 12 6 4.24 -0.01
 12 12 6 -1.46 -0.01
 -13 13 6 0.09 -0.05
 -11 13 6 -0.52 -0.01
 -9 13 6 1.21 0.05
 -7 13 6 5.26 0.02
 -5 13 6 -2.74 0.02
 -3 13 6 -1.58 -0.02
 -1 13 6 5.17 -0.02
 1 13 6 1.24 -0.01
 3 13 6 1.73 -0.01
 5 13 6 -1.54 0.03
 7 13 6 -3.14 0.02
 9 13 6 -6.35 -0.02
 11 13 6 -1.33 -0.05
 13 13 6 -2.87 -0.01
 -12 14 6 1.03 0.03
 -10 14 6 -1.62 0.00
 -8 14 6 4.49 -0.03
 -6 14 6 0.52 -0.05
 -4 14 6 -7.78 -0.01
 -2 14 6 1.85 0.03
 0 14 6 0.06 0.03
 2 14 6 -1.13 -0.01
 4 14 6 1.86 -0.03
 6 14 6 1.76 -0.03
 8 14 6 0.22 0.00
 10 14 6 -0.01 0.04
 12 14 6 3.53 0.03
 -11 15 6 -1.99 0.00
 -9 15 6 5.31 -0.03
 -7 15 6 -5.25 -0.01
 -5 15 6 -3.20 -0.01
 -3 15 6 -0.75 0.01
 -1 15 6 2.51 0.00
 1 15 6 3.67 0.01
 3 15 6 -6.29 0.00
 5 15 6 0.09 -0.03
 7 15 6 -0.89 -0.01
 9 15 6 4.86 -0.01
 11 15 6 -1.17 0.00
 -10 16 6 1.98 0.01
 -8 16 6 -2.65 0.04
 -6 16 6 -4.75 0.04
 -4 16 6 -1.40 0.01
 -2 16 6 0.16 -0.04
 0 16 6 1.51 -0.05
 2 16 6 -3.38 0.01
 4 16 6 -2.77 0.03
 6 16 6 -4.73 0.04
 8 16 6 -3.83 0.00
 -7 17 6 2.52 -0.02
 -5 17 6 2.34 -0.02
 -3 17 6 1.29 0.00
 -1 17 6 -1.84 0.02
 1 17 6 -0.39 0.00
 3 17 6 0.62 -0.02
 5 17 6 -2.43 -0.01
 7 17 6 0.22 0.00
 -6 18 6 0.12 -0.02
 -4 18 6 0.73 0.00
 -2 18 6 0.35 0.07
 0 18 6 0.35 0.07
 2 18 6 3.03 -0.01
 4 18 6 -4.29 -0.03
 -1 19 6 3.35 -0.04
 -18 1 7 2.56 -0.03
 -16 1 7 -3.74 0.00
 -14 1 7 3.68 0.03
 -12 1 7 -0.90 0.02
 -10 1 7 0.09 0.04
 -8 1 7 -2.38 -0.01
 -6 1 7 -6.78 -0.03
 -4 1 7 0.55 -0.02
 -2 1 7 20.59 -0.01
 0 1 7 -9.35 0.04
 2 1 7 -19.84 0.02
 4 1 7 1.64 -0.01
 6 1 7 7.07 -0.03
 8 1 7 -5.38 -0.04
 10 1 7 4.08 0.01
 12 1 7 0.16 0.05
 14 1 7 -5.02 0.02
 16 1 7 6.23 0.01
 -17 2 7 -5.79 0.02
 -15 2 7 -1.75 -0.02
 -13 2 7 -1.34 -0.02
 -11 2 7 2.15 -0.02
 -9 2 7 1.68 0.00
 -7 2 7 0.29 0.04
 -5 2 7 3.46 0.02
 -3 2 7 8.88 -0.01
 -1 2 7 17.95 -0.02
 1 2 7 -8.31 0.00
 3 2 7 11.58 -0.01
 5 2 7 13.47 0.01
 7 2 7 4.33 0.04
 9 2 7 -8.48 0.01
 11 2 7 3.73 0.00
 13 2 7 1.16 -0.07
 15 2 7 -1.32 -0.02
 17 2 7 -5.43 0.02
 -18 3 7 1.43 0.03
 -16 3 7 0.08 0.00
 -14 3 7 -4.64 -0.01
 -12 3 7 -0.28 -0.01
 -10 3 7 -2.05 0.00
 -8 3 7 -0.73 0.00
 -6 3 7 -1.58 0.01
 -4 3 7 -6.75 0.01
 -2 3 7 -3.91 0.02
 0 3 7 3.05 -0.04
 2 3 7 -1.76 0.00
 4 3 7 -0.65 -0.03
 6 3 7 -2.22 -0.01
 8 3 7 -1.78 0.03
 10 3 7 -2.40 -0.01
 12 3 7 1.45 -0.04
 14 3 7 3.35 0.00
 16 3 7 -1.01 -0.01
 -17 4 7 -0.74 -0.03
 -15 4 7 -2.10 0.01
 -13 4 7 2.41 0.02
 -11 4 7 -1.25 0.02
 -9 4 7 2.59 -0.01
 -7 4 7 0.71 -0.05
 -5 4 7 -2.72 -0.02
 -3 4 7 0.08 -0.01
 -1 4 7 5.33 0.01
 1 4 7 5.03 0.07
 3 4 7 -12.23 0.00
 5 4 7 -0.57 -0.02
 7 4 7 -1.08 -0.05
 9 4 7 4.19 -0.03
 11 4 7 -4.58 0.01
 13 4 7 2.06 0.08
 15 4 7 -4.23 0.04
 17 4 7 1.20 -0.05
 -16 5 7 -0.96 0.00
 -14 5 7 -3.07 -0.01
 -12 5 7 -2.51 -0.02
 -10 5 7 -2.02 -0.02
 -8 5 7 0.40 0.01
 -6 5 7 -2.21 0.03
 -4 5 7 -2.64 0.02
 -2 5 7 -0.92 -0.01
 0 5 7 10.17 -0.01
 2 5 7 -1.02 -0.02
 4 5 7 -6.90 0.02
 6 5 7 3.48 0.04
 8 5 7 6.76 0.00
 10 5 7 -0.95 -0.01
 12 5 7 -3.30 -0.01
 14 5 7 -0.78 -0.03
 16 5 7 1.60 -0.06
 -17 6 7 -3.19 0.04
 -15 6 7 2.83 -0.01
 -13 6 7 -2.22 -0.01
 -11 6 7 2.71 -0.03
 -9 6 7 -0.27 0.01
 -7 6 7 0.34 0.02
 -5 6 7 -7.51 0.02
 -3 6 7 1.65 -0.01
 -1 6 7 7.89 0.00
 1 6 7 -0.28 -0.02
 3 6 7 3.31 0.00
 5 6 7 -4.44 0.02
 7 6 7 -0.22 0.02
 9 6 7 -0.10 0.01
 11 6 7 2.78 0.00
 13 6 7 -0.54 -0.03
 15 6 7 3.65 -0.02
 17 6 7 2.62 0.02
 -16 7 7 4.11 0.02
 -14 7 7 0.12 0.02
 -12 7 7 -3.68 0.05
 -10 7 7 2.00 0.01
 -8 7 7 1.86 -0.01
 -6 7 7 0.62 -0.03
 -4 7 7 2.92 -0.02
 -2 7 7 3.65 -0.02
 0 7 7 -4.90 0.04
 2 7 7 5.38 0.02
 4 7 7 5.17 -0.04
 6 7 7 2.00 -0.04
 8 7 7 -3.46 -0.03
 10 7 7 -0.64 0.01
 12 7 7 -2.43 0.04
 14 7 7 0.36 0.03
 16 7 7 0.31 0.05
 -15 8 7 -3.95 0.01
 -13 8 7 0.71 -0.01
 -11 8 7 2.57 0.00
 -9 8 7 -0.98 0.00
 -7 8 7 -6.30 0.02
 -5 8 7 1.44 0.02
 -3 8 7 -4.06 0.00
 -1 8 7 0.04 -0.01
 1 8 7 -1.97 0.00
 3 8 7 -2.22 -0.01
 5 8 7 1.17 0.02
 7 8 7 -0.26 0.02
 9 8 7 -0.85 0.00
 11 8 7 -4.47 -0.01
 13 8 7 0.97 -0.01
 15 8 7 1.04 -0.01
 -16 9 7 -3.57 -0.01
 -14 9 7 -1.64 -0.01
 -12 9 7 -1.41 -0.04
 -10 9 7 -1.94 -0.03
 -8 9 7 -0.14 0.01
 -6 9 7 3.01 0.01
 -4 9 7 4.64 0.00
 -2 9 7 0.39 -0.01
 0 9 7 -1.08 -0.03
 2 9 7 -2.15 -0.01
 4 9 7 3.89 0.02
 6 9 7 -0.65 0.02
 8 9 7 3.37 0.01
 10 9 7 2.27 0.00
 12 9 7 0.08 -0.01
 14 9 7 -1.06 -0.04
 -15 10 7 3.24 0.02
 -13 10 7 -2.31 0.02
 -11 10 7 -0.41 0.01
 -9 10 7 -2.22 0.00
 -7 10 7 1.92 0.00
 -5 10 7 -0.60 -0.02
 -3 10 7 1.61 0.02
 -1 10 7 -2.21 0.02
 1 10 7 4.64 0.01
 3 10 7 2.23 0.02
 5 10 7 -0.88 -0.03
 7 10 7 -4.15 -0.02
 9 10 7 -5.37 -0.01
 11 10 7 -2.02 0.03
 13 10 7 -2.26 0.03
 15 10 7 -3.56 0.01
 -14 11 7 7.38 0.01
 -12 11 7 1.15 0.01
 -10 11 7 3.82 0.00
 -8 11 7 0.16 -0.01
 -6 11 7 1.46 -0.01
 -4 11 7 -3.77 0.00
 -2 11 7 -2.33 0.01
 0 11 7 3.36 0.00
 2 11 7 1.71 0.01
 4 11 7 -0.32 0.00
 6 11 7 -0.24 0.00
 8 11 7 -0.13 0.00
 10 11 7 1.97 0.01
 12 11 7 0.79 0.01
 14 11 7 -2.81 0.02
 -13 12 7 3.67 -0.05
 -11 12 7 -1.93 -0.04
 -9 12 7 1.32 0.00
 -7 12 7 4.07 0.01
 -5 12 7 -0.90 0.04
 -3 12 7 -0.70 0.00
 -1 12 7 4.25 -0.03
 1 12 7 2.14 -0.04
 3 12 7 1.97 -0.03
 5 12 7 -1.54 0.02
 7 12 7 -0.15 0.03
 9 12 7 -0.68 0.01
 11 12 7 2.11 -0.04
 13 12 7 -3.25 -0.03
 -12 13 7 3.82 0.02
 -10 13 7 -2.26 0.02
 -8 13 7 0.64 0.00
 -6 13 7 -1.80 -0.02
 -4 13 7 -5.45 -0.02
 -2 13 7 2.50 0.02
 0 13 7 -1.32 0.02
 2 13 7 -3.09 0.00
 4 13 7 0.03 0.00
 6 13 7 0.39 -0.02
 8 13 7 -2.69 0.00
 10 13 7 -4.33 0.02
 12 13 7 2.94 0.03
 -11 14 7 -3.16 0.01
 -9 14 7 2.19 -0.03
 -7 14 7 -6.42 -0.01
 -5 14 7 1.02 -0.03
 -3 14 7 0.41 0.00
 -1 14 7 -3.42 0.01
 1 14 7 2.97 0.01
 3 14 7 -5.61 0.02
 5 14 7 1.01 -0.03
 7 14 7 -0.25 -0.02
 9 14 7 7.06 -0.01
 11 14 7 1.36 0.02
 -10 15 7 -0.14 -0.02
 -8 15 7 -3.75 0.02
 -6 15 7 -2.66 0.05
 -4 15 7 3.69 0.04
 -2 15 7 -0.62 -0.01
 0 15 7 2.12 -0.04
 2 15 7 -0.48 -0.02
 4 15 7 -2.78 0.01
 6 15 7 -3.18 0.05
 8 15 7 -2.96 0.03
 10 15 7 -4.40 -0.02
 -9 16 7 -5.61 0.02
 -7 16 7 4.02 0.00
 -5 16 7 3.58 -0.01
 -3 16 7 0.44 0.00
 -1 16 7 -2.36 0.00
 1 16 7 -1.99 -0.01
 3 16 7 2.55 0.00
 5 16 7 -2.21 0.01
 7 16 7 1.80 0.01
 9 16 7 -1.04 0.01
 -8 17 7 -0.17 -0.02
 -6 17 7 2.87 -0.03
 -4 17 7 2.13 -0.02
 -2 17 7 -0.06 0.05
 0 17 7 0.10 0.07
 2 17 7 4.24 0.01
 4 17 7 -1.83 -0.01
 6 17 7 3.58 -0.04
 -5 18 7 -0.84 0.04
 -3 18 7 -0.66 0.02
 -1 18 7 2.45 -0.02
 1 18 7 2.67 -0.04
 3 18 7 -1.44 0.01
 5 18 7 -0.47 0.02
 -18 0 8 4.94 -0.04
 -16 0 8 -5.38 -0.02
 -14 0 8 0.95 0.01
 -12 0 8 -2.07 0.02
 -10 0 8 0.24 0.05
 -8 0 8 -2.57 0.02
 -6 0 8 -6.41 -0.03
 -4 0 8 -1.82 -0.03
 -2 0 8 21.61 -0.02
 2 0 8 -26.46 0.01
 4 0 8 -0.64 0.01
 6 0 8 7.19 -0.01
 8 0 8 -7.69 -0.06
 10 0 8 5.63 -0.01
 12 0 8 1.47 0.02
 14 0 8 -7.38 0.04
 16 0 8 8.30 0.04
 -17 1 8 -4.36 0.01
 -15 1 8 -2.92 0.00
 -13 1 8 -2.14 -0.01
 -11 1 8 0.23 -0.02
 -9 1 8 1.81 -0.01
 -7 1 8 -0.73 0.02
 -5 1 8 -0.80 0.00
 -3 1 8 8.86 -0.01
 -1 1 8 17.88 0.00
 1 1 8 -6.01 0.01
 3 1 8 6.67 -0.02
 5 1 8 10.98 0.01
 7 1 8 2.86 0.02
 9 1 8 -5.59 0.01
 11 1 8 2.22 0.02
 13 1 8 2.14 -0.04
 15 1 8 -1.15 -0.01
 17 1 8 -4.93 0.00
 -18 2 8 -0.15 0.03
 -16 2 8 3.79 0.01
 -14 2 8 -6.03 -0.01
 -12 2 8 -1.54 -0.02
 -10 2 8 -1.84 -0.03
 -8 2 8 2.18 0.00
 -6 2 8 -0.51 0.02
 -4 2 8 -7.06 0.01
 -2 2 8 -2.14 0.04
 0 2 8 10.00 -0.03
 2 2 8 4.02 -0.02
 4 2 8 -3.57 -0.02
 6 2 8 -3.11 -0.01
 8 2 8 1.98 0.02
 10 2 8 -3.91 0.02
 12 2 8 0.26 -0.03
 14 2 8 4.89 -0.03
 16 2 8 -4.91 -0.03
 -17 3 8 1.46 -0.03
 -15 3 8 -2.31 0.00
 -13 3 8 0.56 0.01
 -11 3 8 0.46 0.01
 -9 3 8 0.30 0.01
 -7 3 8 1.80 -0.03
 -5 3 8 -6.65 -0.03
 -3 3 8 -5.04 -0.01
 -1 3 8 4.34 0.00
 3 3 8 -20.47 0.03
 5 3 8 -5.90 0.01
 7 3 8 -0.17 -0.05
 9 3 8 5.07 -0.04
 11 3 8 -4.51 -0.01
 13 3 8 1.57 0.07
 15 3 8 -2.03 0.06
 17 3 8 5.26 0.00
 -18 4 8 -0.65 -0.02
 -16 4 8 0.12 0.00
 -14 4 8 -0.48 0.00
 -12 4 8 -2.00 0.00
 -10 4 8 -0.63 -0.02
 -8 4 8 -0.84 0.00
 -6 4 8 -2.48 0.01
 -4 4 8 3.47 0.00
 -2 4 8 3.65 -0.02
 0 4 8 8.80 0.01
 2 4 8 -3.27 -0.02
 4 4 8 -3.64 0.03
 6 4 8 6.31 0.02
 8 4 8 6.04 -0.02
 10 4 8 -0.78 0.00
 12 4 8 -2.75 0.03
 14 4 8 -0.92 -0.02
 16 4 8 2.46 -0.02
 -17 5 8 2.88 0.04
 -15 5 8 2.81 0.01
 -13 5 8 -2.99 0.00
 -11 5 8 1.79 -0.04
 -9 5 8 0.36 0.00
 -7 5 8 -1.24 0.03
 -5 5 8 -4.63 0.02
 -3 5 8 0.89 0.02
 -1 5 8 3.67 0.02
 1 5 8 -3.59 -0.06
 3 5 8 5.90 -0.02
 5 5 8 -4.47 0.01
 7 5 8 -1.34 0.02
 9 5 8 -2.41 0.04
 11 5 8 3.11 0.02
 13 5 8 -1.86 -0.06
 15 5 8 3.88 -0.05
 17 5 8 1.07 0.02
 -16 6 8 2.00 -0.01
 -14 6 8 2.56 0.00
 -12 6 8 -0.69 0.03
 -10 6 8 1.29 0.03
 -8 6 8 2.36 0.02
 -6 6 8 5.22 -0.04
 -4 6 8 3.64 -0.05
 -2 6 8 4.10 -0.01
 0 6 8 -8.87 0.01
 2 6 8 7.40 0.02
 4 6 8 7.19 -0.01
 6 6 8 -0.12 -0.04
 8 6 8 -4.35 -0.03
 10 6 8 1.27 0.00
 12 6 8 1.84 0.02
 14 6 8 0.95 0.04
 16 6 8 -2.92 0.13
 -17 7 8 2.52 -0.04
 -15 7 8 -0.58 0.01
 -13 7 8 0.97 0.00
 -11 7 8 -0.37 0.02
 -9 7 8 -3.55 0.00
 -7 7 8 -3.20 0.01
 -5 7 8 6.89 -0.01
 -3 7 8 -4.63 0.01
 -1 7 8 -7.53 0.00
 1 7 8 3.40 -0.01
 3 7 8 -1.68 0.01
 5 7 8 0.15 0.00
 7 7 8 -2.22 -0.01
 9 7 8 0.48 0.00
 11 7 8 -4.38 0.00
 13 7 8 -0.44 0.00
 15 7 8 -0.12 0.02
 -16 8 8 -3.63 0.00
 -14 8 8 1.02 0.01
 -12 8 8 2.10 -0.04
 -10 8 8 -1.75 -0.04
 -8 8 8 -0.88 -0.01
 -6 8 8 3.60 0.01
 -4 8 8 0.78 0.03
 -2 8 8 -3.44 0.03
 0 8 8 3.25 -0.03
 2 8 8 -4.85 -0.02
 4 8 8 0.46 0.02
 6 8 8 -1.95 0.02
 8 8 8 3.12 0.03
 10 8 8 2.68 0.03
 12 8 8 0.42 -0.01
 14 8 8 -2.68 -0.04
 16 8 8 -2.51 -0.03
 -15 9 8 4.44 -0.01
 -13 9 8 0.06 0.01
 -11 9 8 -3.12 0.01
 -9 9 8 -1.53 0.00
 -7 9 8 6.53 0.00
 -5 9 8 0.20 -0.03
 -3 9 8 4.40 0.01
 -1 9 8 -0.84 0.01
 1 9 8 3.05 -0.01
 3 9 8 2.55 0.03
 5 9 8 0.52 -0.02
 7 9 8 -0.55 -0.03
 9 9 8 -3.64 -0.01
 11 9 8 1.90 0.01
 13 9 8 -1.94 0.02
 15 9 8 -3.44 0.03
 -14 10 8 5.18 0.00
 -12 10 8 1.99 0.02
 -10 10 8 2.00 0.02
 -8 10 8 -0.66 0.00
 -6 10 8 -0.67 -0.01
 -4 10 8 -4.74 -0.02
 -2 10 8 -2.32 0.02
 0 10 8 2.89 0.01
 2 10 8 0.63 0.02
 4 10 8 -2.68 0.02
 6 10 8 -0.67 -0.01
 8 10 8 -2.89 -0.01
 10 10 8 -1.74 0.00
 12 10 8 0.90 0.00
 14 10 8 -0.32 0.04
 -15 11 8 1.28 0.00
 -13 11 8 5.91 -0.02
 -11 11 8 -2.77 -0.03
 -9 11 8 0.67 -0.03
 -7 11 8 0.91 -0.01
 -5 11 8 1.92 0.03
 -3 11 8 -0.07 0.01
 -1 11 8 0.89 -0.01
 1 11 8 -0.94 -0.04
 3 11 8 1.02 -0.04
 5 11 8 -0.97 0.01
 7 11 8 2.81 0.02
 9 11 8 5.65 0.04
 11 11 8 4.09 -0.01
 13 11 8 -0.83 -0.03
 -14 12 8 -2.59 -0.02
 -12 12 8 3.18 0.00
 -10 12 8 -3.17 0.01
 -8 12 8 -1.23 0.01
 -6 12 8 -0.67 0.00
 -4 12 8 0.28 0.00
 -2 12 8 2.17 0.00
 0 12 8 -3.92 0.01
 2 12 8 -1.77 0.00
 4 12 8 0.46 0.01
 6 12 8 1.07 -0.02
 8 12 8 -1.06 0.00
 10 12 8 -4.88 0.01
 12 12 8 1.06 0.00
 -13 13 8 -0.60 0.03
 -11 13 8 -2.83 0.03
 -9 13 8 -1.50 0.00
 -7 13 8 -5.01 0.01
 -5 13 8 4.38 -0.04
 -3 13 8 -0.53 -0.03
 -1 13 8 -8.51 0.01
 1 13 8 -0.90 0.03
 3 13 8 -4.51 0.05
 5 13 8 2.29 -0.01
 7 13 8 -0.99 -0.03
 9 13 8 4.02 -0.02
 11 13 8 0.77 0.02
 -12 14 8 -0.36 -0.02
 -10 14 8 -2.34 -0.04
 -8 14 8 -1.98 -0.01
 -6 14 8 1.70 0.03
 -4 14 8 6.21 0.04
 -2 14 8 -2.98 0.01
 0 14 8 1.69 -0.02
 2 14 8 4.28 -0.02
 4 14 8 0.37 -0.01
 6 14 8 -1.13 0.03
 8 14 8 -0.04 0.03
 10 14 8 0.05 0.00
 -11 15 8 2.97 0.00
 -9 15 8 -5.36 0.02
 -7 15 8 6.13 0.01
 -5 15 8 2.72 0.01
 -3 15 8 -0.16 0.01
 -1 15 8 -1.28 0.00
 1 15 8 -4.34 -0.01
 3 15 8 4.93 0.00
 5 15 8 -1.05 0.01
 7 15 8 2.99 0.02
 9 15 8 -4.03 0.02
 -8 16 8 0.89 -0.01
 -6 16 8 3.47 -0.03
 -4 16 8 0.59 -0.05
 -2 16 8 -1.25 -0.01
 0 16 8 -2.83 0.04
 2 16 8 3.32 0.04
 4 16 8 2.35 0.02
 6 16 8 4.13 -0.04
 8 16 8 0.60 -0.04
 -7 17 8 -2.90 0.00
 -5 17 8 -0.94 0.03
 -3 17 8 0.52 0.02
 -1 17 8 1.62 0.00
 1 17 8 0.05 -0.01
 3 17 8 -0.14 -0.01
 5 17 8 3.01 0.00
 7 17 8 1.36 0.01
 -4 18 8 -1.12 0.02
 -2 18 8 -0.03 -0.04
 0 18 8 -0.85 -0.05
 2 18 8 -2.72 -0.02
 4 18 8 3.75 0.01
 -18 1 9 -2.88 0.02
 -16 1 9 5.56 0.03
 -14 1 9 -2.68 0.01
 -12 1 9 0.64 -0.01
 -10 1 9 -1.48 -0.04
 -8 1 9 2.24 -0.03
 -6 1 9 0.86 0.01
 -4 1 9 -3.12 0.02
 -2 1 9 -4.75 0.04
 0 1 9 7.61 0.01
 2 1 9 12.60 0.00
 4 1 9 -0.95 -0.02
 6 1 9 -3.09 -0.02
 8 1 9 5.66 0.03
 10 1 9 -6.00 0.03
 12 1 9 -1.18 0.01
 14 1 9 7.33 -0.04
 16 1 9 -7.17 -0.05
 -17 2 9 4.06 -0.02
 -15 2 9 1.28 -0.01
 -13 2 9 1.40 0.00
 -11 2 9 2.04 0.00
 -9 2 9 -1.02 0.02
 -7 2 9 2.88 -0.01
 -5 2 9 -2.33 -0.01
 -3 2 9 -9.85 -0.01
 -1 2 9 -6.45 0.00
 1 2 9 9.33 -0.02
 3 2 9 -18.02 0.03
 5 2 9 -10.35 0.02
 7 2 9 -0.77 -0.02
 9 2 9 4.59 -0.02
 11 2 9 -2.60 -0.03
 13 2 9 -0.67 0.03
 15 2 9 -0.86 0.04
 17 2 9 7.12 0.02
 -18 3 9 0.16 -0.02
 -16 3 9 -2.67 -0.01
 -14 3 9 2.86 0.00
 -12 3 9 0.49 0.01
 -10 3 9 0.74 0.00
 -8 3 9 -2.04 0.01
 -6 3 9 -0.73 0.00
 -4 3 9 7.93 -0.01
 -2 3 9 -2.09 -0.04
 0 3 9 1.05 0.00
 2 3 9 -2.45 -0.01
 4 3 9 0.18 0.03
 6 3 9 6.21 0.03
 8 3 9 3.89 -0.01
 10 3 9 1.10 -0.01
 12 3 9 -0.93 0.02
 14 3 9 -1.91 0.01
 16 3 9 4.15 0.02
 -17 4 9 5.29 0.03
 -15 4 9 4.70 0.02
 -13 4 9 -0.79 0.02
 -11 4 9 -0.32 -0.01
 -9 4 9 2.10 -0.02
 -7 4 9 -2.24 0.01
 -5 4 9 1.43 0.01
 -3 4 9 2.38 0.03
 -1 4 9 -5.51 0.04
 1 4 9 -4.86 -0.03
 3 4 9 13.96 -0.04
 5 4 9 -3.01 -0.03
 7 4 9 -3.24 0.02
 9 4 9 -1.97 0.04
 11 4 9 3.69 0.04
 13 4 9 -2.79 -0.04
 15 4 9 2.67 -0.06
 17 4 9 -2.29 -0.03
 -16 5 9 -0.57 -0.01
 -14 5 9 1.76 -0.01
 -12 5 9 1.22 0.01
 -10 5 9 1.82 0.03
 -8 5 9 3.71 0.02
 -6 5 9 8.57 -0.02
 -4 5 9 -1.13 -0.03
 -2 5 9 -1.89 0.00
 0 5 9 -10.59 0.00
 2 5 9 9.54 0.02
 4 5 9 5.61 -0.01
 6 5 9 -4.25 -0.02
 8 5 9 -4.79 -0.01
 10 5 9 3.05 -0.01
 12 5 9 3.42 -0.02
 14 5 9 0.49 0.03
 16 5 9 -4.61 0.12
 -17 6 9 -1.90 -0.04
 -15 6 9 0.32 -0.01
 -13 6 9 2.26 -0.02
 -11 6 9 -1.28 0.03
 -9 6 9 -4.23 0.00
 -7 6 9 0.83 0.01
 -5 6 9 7.40 -0.01
 -3 6 9 -3.97 -0.01
 -1 6 9 -8.98 -0.02
 1 6 9 6.05 0.01
 3 6 9 -2.68 0.03
 5 6 9 0.90 0.00
 7 6 9 -0.44 0.00
 9 6 9 2.99 -0.02
 11 6 9 -2.30 -0.03
 13 6 9 -0.35 0.01
 15 6 9 -0.76 0.04
 -16 7 9 -2.38 0.01
 -14 7 9 -0.46 0.02
 -12 7 9 1.70 -0.02
 -10 7 9 -0.26 -0.04
 -8 7 9 -0.89 -0.04
 -6 7 9 -1.38 0.00
 -4 7 9 -2.40 0.04
 -2 7 9 -5.64 0.05
 0 7 9 7.31 0.00
 2 7 9 -8.79 -0.01
 4 7 9 -3.98 0.01
 6 7 9 -1.34 0.01
 8 7 9 2.31 0.04
 10 7 9 0.57 0.03
 12 7 9 -0.78 0.01
 14 7 9 -3.27 -0.03
 16 7 9 0.97 -0.13
 -15 8 9 -0.10 -0.01
 -13 8 9 0.71 0.00
 -11 8 9 -2.04 0.00
 -9 8 9 1.99 0.00
 -7 8 9 5.54 -0.01
 -5 8 9 -3.08 -0.01
 -3 8 9 6.76 0.00
 -1 8 9 4.40 -0.01
 1 8 9 -4.08 0.00
 3 8 9 0.03 0.02
 5 8 9 2.41 -0.01
 7 8 9 4.13 -0.02
 9 8 9 -2.25 -0.01
 11 8 9 4.93 0.00
 13 8 9 0.54 0.02
 15 8 9 -1.77 0.01
 -16 9 9 3.14 -0.02
 -14 9 9 0.36 -0.03
 -12 9 9 0.37 0.02
 -10 9 9 1.94 0.03
 -8 9 9 -0.09 0.02
 -6 9 9 -3.56 0.01
 -4 9 9 -2.67 -0.02
 -2 9 9 1.04 -0.01
 0 9 9 0.25 0.00
 2 9 9 0.67 0.02
 4 9 9 -2.43 0.02
 6 9 9 0.97 0.00
 8 9 9 -3.28 -0.01
 10 9 9 -3.11 -0.04
 12 9 9 0.97 -0.03
 14 9 9 3.49 0.03
 -15 10 9 -2.23 0.01
 -13 10 9 3.86 0.01
 -11 10 9 -1.38 0.00
 -9 10 9 1.28 -0.03
 -7 10 9 -3.74 -0.02
 -5 10 9 1.46 0.02
 -3 10 9 -1.58 0.01
 -1 10 9 -1.15 0.01
 1 10 9 -3.56 0.00
 3 10 9 -1.79 -0.04
 5 10 9 -1.12 0.00
 7 10 9 1.71 0.02
 9 10 9 7.04 0.03
 11 10 9 2.82 0.01
 13 10 9 2.00 -0.01
 -14 11 9 -4.58 0.00
 -12 11 9 0.92 -0.01
 -10 11 9 -1.59 -0.01
 -8 11 9 -0.29 -0.01
 -6 11 9 0.42 0.00
 -4 11 9 2.81 0.01
 -2 11 9 3.15 0.00
 0 11 9 -5.19 0.00
 2 11 9 0.44 -0.01
 4 11 9 1.47 -0.01
 6 11 9 1.81 -0.01
 8 11 9 2.53 0.00
 10 11 9 -1.52 0.01
 12 11 9 0.30 0.00
 14 11 9 3.60 -0.02
 -13 12 9 -5.70 0.00
 -11 12 9 0.56 0.02
 -9 12 9 -1.44 0.04
 -7 12 9 -2.39 0.03
 -5 12 9 2.41 -0.02
 -3 12 9 -1.51 -0.04
 -1 12 9 -5.89 0.00
 1 12 9 -2.08 0.03
 3 12 9 -4.40 0.06
 5 12 9 1.80 0.02
 7 12 9 -2.03 -0.01
 9 12 9 -2.02 -0.04
 11 12 9 -2.10 -0.02
 13 12 9 2.76 0.02
 -12 13 9 -2.54 0.01
 -10 13 9 -1.66 -0.03
 -8 13 9 1.19 -0.03
 -6 13 9 1.81 0.00
 -4 13 9 3.08 0.01
 -2 13 9 -3.52 0.02
 0 13 9 3.14 0.00
 2 13 9 4.76 -0.02
 4 13 9 1.11 -0.02
 6 13 9 -1.17 0.01
 8 13 9 0.20 0.01
 10 13 9 4.07 0.01
 12 13 9 -1.31 -0.01
 -11 14 9 4.54 -0.01
 -9 14 9 -0.77 -0.01
 -7 14 9 6.12 -0.01
 -5 14 9 -1.50 0.02
 -3 14 9 1.25 0.03
 -1 14 9 4.87 0.01
 1 14 9 -2.50 -0.01
 3 14 9 5.66 -0.03
 5 14 9 -1.07 -0.01
 7 14 9 3.94 0.01
 9 14 9 -2.69 0.02
 11 14 9 -1.23 0.01
 -10 15 9 2.56 0.04
 -8 15 9 1.28 0.02
 -6 15 9 -0.22 -0.01
 -4 15 9 -2.39 -0.04
 -2 15 9 0.29 -0.04
 0 15 9 -4.83 0.00
 2 15 9 -1.15 0.03
 4 15 9 1.29 0.04
 6 15 9 1.48 -0.02
 8 15 9 -1.34 -0.04
 10 15 9 3.27 -0.02
 -9 16 9 4.27 -0.01
 -7 16 9 -4.23 -0.02
 -5 16 9 -1.85 0.00
 -3 16 9 1.31 0.00
 -1 16 9 3.00 0.00
 1 16 9 1.10 0.01
 3 16 9 -0.29 -0.01
 5 16 9 3.50 -0.01
 7 16 9 -0.72 -0.01
 9 16 9 1.90 0.00
 -8 17 9 0.74 -0.01
 -6 17 9 -3.39 0.01
 -4 17 9 -1.58 0.03
 -2 17 9 1.11 0.01
 0 17 9 -0.91 -0.02
 2 17 9 -2.43 -0.03
 4 17 9 -0.46 -0.02
 6 17 9 -5.04 0.01
 -5 18 9 -1.05 -0.03
 -3 18 9 -0.57 -0.05
 -1 18 9 -2.49 -0.02
 1 18 9 -1.64 0.02
 3 18 9 2.02 0.02
 -18 0 10 -3.20 0.01
 -16 0 10 5.86 0.03
 -14 0 10 0.16 0.02
 -12 0 10 2.32 0.02
 -10 0 10 -2.17 -0.02
 -8 0 10 0.38 -0.05
 -6 0 10 0.36 0.00
 -4 0 10 -2.20 0.01
 -2 0 10 -2.40 0.02
 0 0 10 3.51 0.03
 2 0 10 10.15 0.03
 4 0 10 -0.01 -0.02
 6 0 10 -1.20 -0.05
 8 0 10 6.93 0.02
 10 0 10 -7.28 0.03
 12 0 10 -2.23 0.05
 14 0 10 8.26 -0.03
 16 0 10 -5.57 -0.06
 -17 1 10 2.79 0.00
 -15 1 10 4.23 -0.01
 -13 1 10 2.99 -0.01
 -11 1 10 2.11 -0.01
 -9 1 10 -0.79 0.01
 -7 1 10 2.58 0.00
 -5 1 10 2.43 0.01
 -3 1 10 -8.27 0.00
 -1 1 10 -9.41 0.00
 1 1 10 8.66 -0.02
 3 1 10 -7.20 0.02
 5 1 10 -7.64 0.01
 7 1 10 -0.96 0.00
 9 1 10 2.38 0.00
 11 1 10 -0.78 -0.02
 13 1 10 -1.45 0.00
 15 1 10 -0.25 0.00
 17 1 10 4.61 0.02
 -18 2 10 0.81 -0.01
 -16 2 10 -4.60 -0.01
 -14 2 10 3.92 -0.01
 -12 2 10 0.52 0.00
 -10 2 10 0.95 0.02
 -8 2 10 -2.10 0.02
 -6 2 10 1.73 0.01
 -4 2 10 7.65 0.00
 -2 2 10 -9.86 -0.04
 0 2 10 -3.50 -0.03
 2 2 10 -0.38 -0.01
 4 2 10 0.88 0.01
 6 2 10 2.74 0.05
 8 2 10 0.89 0.01
 10 2 10 3.97 -0.03
 12 2 10 -0.34 -0.02
 14 2 10 -3.90 0.01
 16 2 10 5.67 0.04
 -17 3 10 2.16 0.01
 -15 3 10 3.72 0.02
 -13 3 10 1.10 0.03
 -11 3 10 -2.06 0.04
 -9 3 10 2.71 -0.02
 -7 3 10 -3.10 -0.01
 -5 3 10 2.36 0.00
 -3 3 10 5.00 0.01
 -1 3 10 -6.45 0.02
 1 3 10 -5.64 0.03
 3 3 10 18.68 -0.03
 5 3 10 0.40 -0.05
 7 3 10 -3.33 0.01
 9 3 10 -0.09 0.02
 11 3 10 1.94 0.04
 13 3 10 -2.11 0.00
 15 3 10 2.27 -0.04
 17 3 10 -5.03 -0.06
 -16 4 10 0.40 0.01
 -14 4 10 0.51 0.00
 -12 4 10 0.54 0.00
 -10 4 10 1.70 0.02
 -8 4 10 3.75 0.00
 -6 4 10 7.96 0.00
 -4 4 10 -5.97 0.00
 -2 4 10 -3.34 0.01
 0 4 10 -7.97 0.01
 2 4 10 10.53 0.03
 4 4 10 3.34 -0.02
 6 4 10 -7.13 -0.02
 8 4 10 -4.80 0.00
 10 4 10 2.31 -0.01
 12 4 10 1.72 -0.02
 14 4 10 0.10 0.00
 16 4 10 -4.96 0.04
 -17 5 10 -7.63 -0.01
 -15 5 10 -2.27 -0.02
 -13 5 10 1.87 -0.04
 -11 5 10 -0.46 0.00
 -9 5 10 -5.52 0.01
 -7 5 10 2.23 0.01
 -5 5 10 3.61 0.01
 -3 5 10 -4.12 -0.02
 -1 5 10 -3.00 -0.06
 1 5 10 4.65 0.01
 3 5 10 -5.89 0.03
 5 5 10 2.51 0.02
 7 5 10 2.55 0.02
 9 5 10 2.70 -0.02
 11 5 10 -1.25 -0.05
 13 5 10 0.52 0.01
 15 5 10 -0.33 0.03
 -16 6 10 0.25 0.01
 -14 6 10 0.05 0.02
 -12 6 10 0.52 0.01
 -10 6 10 -0.35 -0.02
 -8 6 10 -2.23 -0.04
 -6 6 10 -8.04 0.00
 -4 6 10 -0.38 0.03
 -2 6 10 -2.09 0.03
 0 6 10 8.23 0.02
 2 6 10 -10.86 0.01
 4 6 10 -3.81 0.00
 6 6 10 1.25 0.00
 8 6 10 1.17 0.02
 10 6 10 -2.36 0.01
 12 6 10 -2.13 0.03
 14 6 10 -2.62 -0.01
 16 6 10 3.77 -0.17
 -17 7 10 1.56 0.02
 -15 7 10 -4.01 0.00
 -13 7 10 -0.60 0.02
 -11 7 10 -0.43 0.00
 -9 7 10 4.26 0.00
 -7 7 10 -0.34 -0.01
 -5 7 10 -5.26 0.01
 -3 7 10 7.53 -0.01
 -1 7 10 6.81 -0.01
 1 7 10 -9.65 0.02
 3 7 10 -0.51 -0.01
 5 7 10 3.25 0.00
 7 7 10 4.07 0.00
 9 7 10 -3.64 -0.01
 11 7 10 4.00 0.02
 13 7 10 2.43 0.02
 15 7 10 -1.22 -0.02
 -16 8 10 1.90 -0.01
 -14 8 10 -1.03 -0.04
 -12 8 10 -0.05 -0.01
 -10 8 10 1.89 0.03
 -8 8 10 -0.38 0.04
 -6 8 10 -3.31 0.03
 -4 8 10 0.35 -0.02
 -2 8 10 4.46 -0.04
 0 8 10 -4.10 -0.02
 2 8 10 4.12 -0.01
 4 8 10 1.06 0.00
 6 8 10 1.28 0.03
 8 8 10 -2.55 -0.01
 10 8 10 -1.09 -0.05
 12 8 10 1.25 -0.04
 14 8 10 5.03 0.00
 -15 9 10 -1.06 0.01
 -13 9 10 1.02 0.01
 -11 9 10 0.03 0.00
 -9 9 10 0.24 0.01
 -7 9 10 -5.88 -0.01
 -5 9 10 0.96 0.01
 -3 9 10 -4.04 0.00
 -1 9 10 -3.01 0.03
 1 9 10 0.25 0.02
 3 9 10 -0.90 -0.03
 5 9 10 -1.88 0.00
 7 9 10 -2.99 0.01
 9 9 10 4.64 0.01
 11 9 10 -0.81 0.01
 13 9 10 1.67 0.00
 15 9 10 1.32 -0.03
 -14 10 10 -3.11 0.02
 -12 10 10 0.12 0.00
 -10 10 10 -0.28 0.00
 -8 10 10 0.15 -0.03
 -6 10 10 1.04 -0.02
 -4 10 10 1.13 0.01
 -2 10 10 2.77 0.00
 0 10 10 -4.22 0.01
 2 10 10 1.78 -0.01
 4 10 10 1.34 -0.02
 6 10 10 0.04 -0.01
 8 10 10 3.57 -0.01
 10 10 10 1.25 0.02
 12 10 10 0.10 0.03
 14 10 10 -0.80 -0.01
 -13 11 10 -8.56 -0.03
 -11 11 10 4.30 -0.01
 -9 11 10 0.04 0.04
 -7 11 10 0.45 0.04
 -5 11 10 -0.89 0.01
 -3 11 10 -0.86 -0.02
 -1 11 10 0.47 -0.03
 1 11 10 0.85 0.00
 3 11 10 -1.95 0.04
 5 11 10 1.12 0.03
 7 11 10 -1.81 0.01
 9 11 10 -5.80 -0.03
 11 11 10 -3.71 -0.04
 13 11 10 -0.57 -0.01
 -14 12 10 1.09 0.01
 -12 12 10 -1.87 0.02
 -10 12 10 -0.64 -0.01
 -8 12 10 1.69 0.00
 -6 12 10 -1.31 -0.01
 -4 12 10 -0.42 0.00
 -2 12 10 -2.71 0.00
 0 12 10 5.88 0.01
 2 12 10 1.10 0.00
 4 12 10 -0.56 -0.01
 6 12 10 -2.36 0.01
 8 12 10 -3.29 -0.01
 10 12 10 3.83 0.00
 12 12 10 -0.64 0.01
 -13 13 10 1.65 0.00
 -11 13 10 3.76 0.00
 -9 13 10 2.79 -0.03
 -7 13 10 3.64 -0.04
 -5 13 10 -4.32 0.01
 -3 13 10 2.71 0.03
 -1 13 10 8.89 0.02
 1 13 10 1.19 0.00
 3 13 10 5.34 -0.05
 5 13 10 -0.27 -0.03
 7 13 10 3.87 -0.01
 9 13 10 1.60 0.02
 11 13 10 -0.57 0.03
 -12 14 10 0.46 -0.02
 -10 14 10 4.95 0.03
 -8 14 10 -0.81 0.03
 -6 14 10 -3.54 0.02
 -4 14 10 -2.66 -0.01
 -2 14 10 4.07 -0.04
 0 14 10 -4.81 -0.02
 2 14 10 -5.47 0.00
 4 14 10 -2.19 0.04
 6 14 10 -0.63 0.01
 8 14 10 -1.58 -0.02
 10 14 10 -0.74 -0.03
 -11 15 10 -1.84 0.00
 -9 15 10 3.05 0.01
 -7 15 10 -5.51 -0.01
 -5 15 10 -1.59 -0.01
 -3 15 10 -0.19 -0.01
 -1 15 10 1.75 -0.02
 1 15 10 2.34 0.00
 3 15 10 -2.75 0.00
 5 15 10 2.04 0.01
 7 15 10 -2.71 -0.01
 9 15 10 1.03 -0.01
 -8 16 10 0.11 -0.02
 -6 16 10 -2.40 -0.02
 -4 16 10 -0.66 0.02
 -2 16 10 3.03 0.05
 0 16 10 4.02 0.02
 2 16 10 -1.54 -0.02
 4 16 10 -3.94 -0.04
 6 16 10 -4.02 -0.01
 8 16 10 4.04 0.02
 -7 17 10 3.55 0.02
 -5 17 10 -1.28 0.00
 -3 17 10 -2.40 -0.02
 -1 17 10 -3.01 -0.02
 1 17 10 1.05 -0.01
 3 17 10 -1.00 0.01
 5 17 10 -3.78 0.02
 7 17 10 -1.82 0.02
 -4 18 10 1.27 0.00
 -2 18 10 1.04 0.00
 0 18 10 5.56 0.00
 2 18 10 -0.96 0.01
 4 18 10 -0.77 0.01
 -18 1 11 0.88 0.01
 -16 1 11 -5.19 -0.01
 -14 1 11 1.22 -0.02
 -12 1 11 -1.57 -0.02
 -10 1 11 1.57 0.00
 -8 1 11 0.27 0.03
 -6 1 11 1.85 0.01
 -4 1 11 4.99 0.01
 -2 1 11 -9.12 -0.01
 0 1 11 -2.49 -0.05
 2 1 11 1.66 -0.04
 4 1 11 0.95 0.00
 6 1 11 -0.31 0.06
 8 1 11 -2.57 0.02
 10 1 11 6.19 -0.01
 12 1 11 0.52 -0.06
 14 1 11 -5.53 0.00
 16 1 11 3.55 0.03
 -17 2 11 -0.50 -0.01
 -15 2 11 -2.15 0.01
 -13 2 11 -1.72 0.02
 -11 2 11 -2.87 0.05
 -9 2 11 1.56 -0.01
 -7 2 11 -3.75 -0.01
 -5 2 11 -2.95 -0.01
 -3 2 11 7.30 0.00
 -1 2 11 2.13 0.00
 1 2 11 -8.11 0.05
 3 2 11 11.38 -0.01
 5 2 11 2.71 -0.03
 7 2 11 -1.63 -0.01
 9 2 11 0.89 -0.01
 11 2 11 -0.42 0.03
 13 2 11 -0.10 0.03
 15 2 11 1.79 0.00
 17 2 11 -4.97 -0.04
 -18 3 11 -0.97 0.00
 -16 3 11 2.31 0.00
 -14 3 11 -1.38 0.00
 -12 3 11 -0.28 0.01
 -10 3 11 1.35 0.01
 -8 3 11 2.82 0.00
 -6 3 11 3.19 0.00
 -4 3 11 -7.64 0.00
 -2 3 11 6.18 0.01
 0 3 11 -2.93 0.04
 2 3 11 5.13 0.03
 4 3 11 2.29 0.00
 6 3 11 -4.80 -0.03
 8 3 11 -4.45 -0.02
 10 3 11 -0.98 0.00
 12 3 11 0.66 0.00
 14 3 11 0.93 0.00
 16 3 11 -4.96 -0.01
 -17 4 11 -8.16 0.01
 -15 4 11 -4.89 -0.01
 -13 4 11 -1.06 -0.04
 -11 4 11 -0.21 -0.05
 -9 4 11 -7.03 0.00
 -7 4 11 1.26 0.02
 -5 4 11 0.99 0.03
 -3 4 11 -3.67 0.00
 -1 4 11 4.71 -0.04
 1 4 11 1.00 -0.02
 3 4 11 -10.31 0.01
 5 4 11 3.61 0.04
 7 4 11 4.21 0.02
 9 4 11 -1.17 0.01
 11 4 11 -0.53 -0.04
 13 4 11 1.49 -0.03
 15 4 11 -0.54 0.00
 17 4 11 2.26 0.07
 -16 5 11 1.54 -0.01
 -14 5 11 0.69 0.02
 -12 5 11 0.26 0.01
 -10 5 11 -2.00 -0.01
 -8 5 11 -3.50 -0.02
 -6 5 11 -10.77 -0.01
 -4 5 11 3.70 0.00
 -2 5 11 3.76 0.01
 0 5 11 6.89 0.00
 2 5 11 -12.63 0.00
 4 5 11 -1.72 0.02
 6 5 11 4.14 -0.01
 8 5 11 0.52 0.00
 10 5 11 -3.64 0.01
 12 5 11 -1.65 0.03
 14 5 11 -1.03 0.00
 16 5 11 4.82 -0.11
 -17 6 11 5.68 0.00
 -15 6 11 -2.56 0.00
 -13 6 11 -1.89 0.04
 -11 6 11 -0.32 0.01
 -9 6 11 4.74 0.01
 -7 6 11 -4.44 -0.02
 -5 6 11 -3.60 -0.01
 -3 6 11 8.29 0.00
 -1 6 11 4.26 0.02
 1 6 11 -8.36 0.02
 3 6 11 1.52 -0.02
 5 6 11 2.34 0.00
 7 6 11 0.81 -0.02
 9 6 11 -4.59 -0.01
 11 6 11 0.32 0.03
 13 6 11 2.83 0.02
 15 6 11 -1.48 -0.01
 -16 7 11 0.38 0.01
 -14 7 11 -1.59 -0.03
 -12 7 11 -0.19 -0.03
 -10 7 11 0.84 0.01
 -8 7 11 -0.85 0.03
 -6 7 11 1.50 0.03
 -4 7 11 0.64 -0.01
 -2 7 11 3.41 -0.03
 0 7 11 -5.86 -0.03
 2 7 11 8.09 -0.05
 4 7 11 1.74 -0.02
 6 7 11 -1.06 0.03
 8 7 11 -0.75 -0.01
 10 7 11 1.54 -0.02
 12 7 11 1.06 -0.04
 14 7 11 4.30 -0.02
 16 7 11 -0.54 0.12
 -15 8 11 4.30 0.01
 -13 8 11 0.60 0.00
 -11 8 11 0.23 0.00
 -9 8 11 -2.08 0.01
 -7 8 11 -1.60 0.00
 -5 8 11 2.04 -0.01
 -3 8 11 -6.50 -0.01
 -1 8 11 -3.52 0.03
 1 8 11 8.23 0.00
 3 8 11 2.21 0.00
 5 8 11 -2.90 0.00
 7 8 11 -5.11 0.00
 9 8 11 3.41 0.01
 11 8 11 -3.80 0.00
 13 8 11 -1.07 -0.01
 15 8 11 0.23 0.00
 -16 9 11 -1.85 0.00
 -14 9 11 -0.53 0.03
 -12 9 11 -0.35 0.02
 -10 9 11 -1.90 0.01
 -8 9 11 -0.32 -0.03
 -6 9 11 2.25 -0.04
 -4 9 11 -1.52 -0.01
 -2 9 11 0.16 0.01
 0 9 11 -0.34 0.03
 2 9 11 1.09 0.02
 4 9 11 -0.97 -0.01
 6 9 11 -2.09 -0.03
 8 9 11 2.79 -0.02
 10 9 11 -0.49 0.02
 12 9 11 -1.04 0.05
 14 9 11 -4.75 0.02
 -15 10 11 0.83 0.00
 -13 10 11 -6.76 -0.02
 -11 10 11 4.67 -0.03
 -9 10 11 0.67 0.00
 -7 10 11 3.44 0.02
 -5 10 11 -1.20 0.02
 -3 10 11 -0.04 0.01
 -1 10 11 3.51 -0.04
 1 10 11 2.48 -0.02
 3 10 11 0.84 0.01
 5 10 11 0.80 0.02
 7 10 11 0.75 0.02
 9 10 11 -5.02 0.00
 11 10 11 -2.82 -0.03
 13 10 11 -3.71 -0.03
 -14 11 11 2.76 -0.01
 -12 11 11 -0.52 0.00
 -10 11 11 -1.64 -0.01
 -8 11 11 0.11 0.03
 -6 11 11 -2.26 0.02
 -4 11 11 0.54 0.00
 -2 11 11 -2.66 -0.01
 0 11 11 7.47 -0.01
 2 11 11 -1.40 0.01
 4 11 11 -0.95 0.00
 6 11 11 -1.76 0.02
 8 11 11 -5.44 0.00
 10 11 11 0.92 0.00
 12 11 11 -1.07 -0.01
 -13 12 11 7.03 0.02
 -11 12 11 -1.36 0.03
 -9 12 11 1.36 -0.02
 -7 12 11 1.58 -0.04
 -5 12 11 -2.01 -0.03
 -3 12 11 1.70 0.00
 -1 12 11 4.28 0.03
 1 12 11 1.83 0.02
 3 12 11 4.19 -0.03
 5 12 11 1.06 -0.04
 7 12 11 2.76 -0.03
 9 12 11 4.46 0.01
 11 12 11 1.52 0.04
 13 12 11 -0.82 0.03
 -12 13 11 0.99 -0.03
 -10 13 11 4.23 0.00
 -8 13 11 -2.79 0.01
 -6 13 11 -1.35 0.03
 -4 13 11 -0.66 0.01
 -2 13 11 4.78 -0.02
 0 13 11 -5.37 -0.03
 2 13 11 -4.41 -0.01
 4 13 11 -1.95 0.02
 6 13 11 -0.23 0.01
 8 13 11 1.52 0.01
 10 13 11 -3.04 -0.01
 12 13 11 0.49 -0.02
 -11 14 11 -3.50 -0.01
 -9 14 11 -1.40 0.01
 -7 14 11 -4.43 0.02
 -5 14 11 0.88 0.00
 -3 14 11 -2.52 -0.01
 -1 14 11 -3.81 -0.03
 1 14 11 0.45 -0.01
 3 14 11 -3.75 0.01
 5 14 11 -0.33 0.03
 7 14 11 -3.87 0.02
 9 14 11 -3.50 -0.01
 11 14 11 0.85 -0.02
 -10 15 11 -2.96 -0.01
 -8 15 11 0.34 -0.01
 -6 15 11 1.57 -0.04
 -4 15 11 -0.01 -0.01
 -2 15 11 -0.14 0.04
 0 15 11 7.63 0.04
 2 15 11 1.65 0.02
 4 15 11 -1.60 -0.03
 6 15 11 0.24 -0.02
 8 15 11 4.72 0.00
 10 15 11 -0.29 0.02
 -9 16 11 -1.96 -0.01
 -7 16 11 4.26 0.02
 -5 16 11 0.06 0.02
 -3 16 11 -1.91 0.00
 -1 16 11 -4.18 0.00
 1 16 11 0.14 -0.01
 3 16 11 -1.12 0.01
 5 16 11 -4.07 0.00
 7 16 11 -1.00 0.02
 -6 17 11 3.55 0.02
 -4 17 11 1.16 0.01
 -2 17 11 -2.16 -0.02
 0 17 11 4.13 -0.03
 2 17 11 -1.20 0.00
 4 17 11 3.49 0.02
 6 17 11 6.16 0.03
 -3 18 11 1.56 0.02
 -1 18 11 2.70 0.05
 1 18 11 0.00 0.02
 3 18 11 -1.64 0.00
 -18 0 12 -0.33 0.02
 -16 0 12 -6.08 0.00
 -14 0 12 -1.34 -0.01
 -12 0 12 -2.40 -0.03
 -10 0 12 2.10 -0.02
 -8 0 12 2.70 0.02
 -6 0 12 1.02 0.00
 -4 0 12 4.09 0.02
 -2 0 12 -7.45 0.03
 0 0 12 -2.47 -0.04
 2 0 12 6.08 -0.07
 4 0 12 2.69 -0.01
 6 0 12 -1.01 0.06
 8 0 12 -3.06 0.02
 10 0 12 6.47 0.02
 12 0 12 0.51 -0.06
 14 0 12 -5.05 -0.01
 16 0 12 -0.40 0.00
 -17 1 12 -0.45 -0.01
 -15 1 12 -5.12 -0.01
 -13 1 12 -3.65 0.01
 -11 1 12 -1.70 0.03
 -9 1 12 0.22 0.01
 -7 1 12 -3.08 0.00
 -5 1 12 -5.42 -0.01
 -3 1 12 5.84 0.00
 -1 1 12 5.76 0.00
 1 1 12 -6.62 0.03
 3 1 12 1.52 -0.01
 5 1 12 1.50 -0.01
 7 1 12 -0.77 -0.01
 9 1 12 0.72 -0.01
 11 1 12 -0.73 0.00
 13 1 12 0.92 0.02
 15 1 12 0.27 0.02
 17 1 12 -2.43 -0.01
 -18 2 12 0.01 -0.01
 -16 2 12 2.76 -0.01
 -14 2 12 -2.88 0.00
 -12 2 12 0.24 0.01
 -10 2 12 0.94 0.01
 -8 2 12 1.01 0.00
 -6 2 12 -0.80 -0.01
 -4 2 12 -6.40 -0.02
 -2 2 12 13.96 -0.01
 0 2 12 0.11 0.05
 2 2 12 -4.29 0.03
 4 2 12 1.23 0.02
 6 2 12 -0.20 -0.04
 8 2 12 -3.08 -0.04
 10 2 12 -3.85 -0.01
 12 2 12 1.42 0.03
 14 2 12 1.78 0.02
 16 2 12 -3.13 0.00
 -17 3 12 -4.77 0.02
 -15 3 12 -3.16 0.01
 -13 3 12 -1.31 -0.03
 -11 3 12 0.14 -0.08
 -9 3 12 -5.41 -0.01
 -7 3 12 0.75 0.01
 -5 3 12 3.19 0.01
 -3 3 12 -3.08 0.02
 -1 3 12 5.11 0.00
 1 3 12 -0.80 -0.05
 3 3 12 -9.06 -0.01
 5 3 12 4.28 0.03
 7 3 12 3.65 0.01
 9 3 12 -4.59 0.04
 11 3 12 1.62 -0.01
 13 3 12 1.21 -0.05
 15 3 12 -1.86 -0.02
 17 3 12 2.74 0.05
 -16 4 12 0.66 -0.01
 -14 4 12 -0.09 0.01
 -12 4 12 0.13 0.00
 -10 4 12 -3.10 0.00
 -8 4 12 -3.06 0.00
 -6 4 12 -7.78 -0.01
 -4 4 12 5.56 -0.01
 -2 4 12 2.24 0.01
 0 4 12 4.62 -0.03
 2 4 12 -11.76 -0.03
 4 4 12 -1.63 0.01
 6 4 12 4.20 0.00
 8 4 12 0.79 0.00
 10 4 12 -1.49 0.01
 12 4 12 0.23 0.00
 14 4 12 -0.52 0.01
 16 4 12 4.13 -0.03
 -17 5 12 8.66 -0.02
 -15 5 12 1.14 -0.02
 -13 5 12 -1.03 0.04
 -11 5 12 0.81 0.04
 -9 5 12 6.73 0.02
 -7 5 12 -2.47 -0.01
 -5 5 12 -1.89 -0.04
 -3 5 12 7.96 -0.01
 -1 5 12 -0.85 0.02
 1 5 12 -2.13 0.01
 3 5 12 3.53 0.00
 5 5 12 0.46 0.00
 7 5 12 -1.64 -0.03
 9 5 12 -1.46 -0.03
 11 5 12 -1.80 0.02
 13 5 12 1.93 0.03
 15 5 12 -1.32 0.04
 -16 6 12 -1.45 0.02
 -14 6 12 -3.20 -0.01
 -12 6 12 -0.78 -0.03
 -10 6 12 1.19 -0.02
 -8 6 12 0.23 0.01
 -6 6 12 5.68 0.02
 -4 6 12 -2.07 0.01
 -2 6 12 -0.89 0.01
 0 6 12 -3.68 -0.01
 2 6 12 9.72 -0.06
 4 6 12 -1.57 -0.04
 6 6 12 -3.26 0.02
 8 6 12 1.80 0.01
 10 6 12 2.80 0.01
 12 6 12 0.74 -0.03
 14 6 12 2.45 -0.03
 16 6 12 -2.31 0.12
 -15 7 12 5.90 0.01
 -13 7 12 1.53 -0.01
 -11 7 12 0.49 -0.01
 -9 7 12 -2.03 0.00
 -7 7 12 5.67 0.01
 -5 7 12 1.81 -0.01
 -3 7 12 -9.28 0.01
 -1 7 12 -0.87 0.02
 1 7 12 11.29 -0.03
 3 7 12 1.68 0.00
 5 7 12 -3.39 -0.01
 7 7 12 -2.34 -0.01
 9 7 12 4.08 0.03
 11 7 12 -2.22 0.00
 13 7 12 -3.15 -0.02
 15 7 12 1.11 0.01
 -16 8 12 -0.44 -0.03
 -14 8 12 0.91 0.01
 -12 8 12 -0.53 0.03
 -10 8 12 -2.90 0.01
 -8 8 12 0.40 0.00
 -6 8 12 1.96 -0.04
 -4 8 12 -2.40 -0.02
 -2 8 12 -0.30 0.01
 0 8 12 3.86 0.02
 2 8 12 -2.63 0.06
 4 8 12 -2.29 0.02
 6 8 12 -0.28 -0.03
 8 8 12 1.98 -0.01
 10 8 12 -3.90 0.00
 12 8 12 -1.68 0.03
 14 8 12 -4.35 0.04
 -15 9 12 -1.41 0.00
 -13 9 12 -4.38 0.00
 -11 9 12 2.46 -0.01
 -9 9 12 1.49 -0.04
 -7 9 12 3.67 0.00
 -5 9 12 -0.27 0.02
 -3 9 12 0.86 0.03
 -1 9 12 2.20 -0.03
 1 9 12 -2.08 -0.02
 3 9 12 -0.59 -0.01
 5 9 12 0.72 -0.01
 7 9 12 3.25 0.02
 9 9 12 -2.67 0.02
 11 9 12 0.43 -0.01
 13 9 12 -2.94 -0.02
 15 9 12 1.26 0.00
 -14 10 12 3.17 0.00
 -12 10 12 0.05 -0.01
 -10 10 12 -0.93 -0.04
 -8 10 12 0.28 0.02
 -6 10 12 -1.11 0.03
 -4 10 12 3.81 0.02
 -2 10 12 -2.74 0.00
 0 10 12 5.53 -0.02
 2 10 12 -1.95 -0.01
 4 10 12 0.97 0.00
 6 10 12 1.52 0.02
 8 10 12 -3.73 0.03
 10 10 12 0.92 0.01
 12 10 12 -0.70 -0.03
 14 10 12 3.14 -0.02
 -13 11 12 9.37 0.02
 -11 11 12 -6.29 0.05
 -9 11 12 -1.61 0.01
 -7 11 12 0.30 -0.01
 -5 11 12 1.28 -0.04
 -3 11 12 0.39 -0.03
 -1 11 12 -2.43 0.03
 1 11 12 -0.49 0.03
 3 11 12 1.29 0.01
 5 11 12 1.35 -0.02
 7 11 12 1.54 -0.04
 9 11 12 3.86 -0.02
 11 11 12 2.17 0.03
 13 11 12 2.80 0.04
 -12 12 12 -0.81 -0.01
 -10 12 12 2.96 0.00
 -8 12 12 -1.38 -0.02
 -6 12 12 3.05 0.00
 -4 12 12 -0.70 0.00
 -2 12 12 1.96 0.01
 0 12 12 -7.74 -0.01
 2 12 12 -1.20 -0.02
 4 12 12 -0.10 0.01
 6 12 12 1.23 -0.01
 8 12 12 5.29 0.02
 10 12 12 -1.91 0.00
 12 12 12 1.01 -0.01
 -13 13 12 -1.91 -0.01
 -11 13 12 -2.49 -0.04
 -9 13 12 -3.07 -0.01
 -7 13 12 -2.21 0.03
 -5 13 12 1.51 0.03
 -3 13 12 -2.33 0.02
 -1 13 12 -5.59 -0.02
 1 13 12 -1.78 -0.02
 3 13 12 -2.50 0.00
 5 13 12 -3.10 0.02
 7 13 12 -3.60 0.03
 9 13 12 -6.49 0.02
 11 13 12 -0.55 -0.02
 -12 14 12 -1.52 0.03
 -10 14 12 -5.46 0.01
 -8 14 12 2.24 0.01
 -6 14 12 3.71 -0.03
 -4 14 12 -0.15 -0.04
 -2 14 12 -5.74 0.01
 0 14 12 6.75 0.04
 2 14 12 4.22 0.04
 4 14 12 1.36 -0.01
 6 14 12 3.27 -0.02
 8 14 12 2.56 -0.02
 10 14 12 2.13 0.01
 -9 15 12 -0.71 -0.01
 -7 15 12 4.17 0.00
 -5 15 12 1.21 0.01
 -3 15 12 0.29 -0.01
 -1 15 12 -2.36 0.02
 1 15 12 -0.15 0.01
 3 15 12 1.36 0.01
 5 15 12 -1.22 -0.02
 7 15 12 -0.29 0.00
 9 15 12 1.45 0.00
 -8 16 12 -0.66 -0.01
 -6 16 12 2.39 0.04
 -4 16 12 1.49 0.02
 -2 16 12 -4.10 -0.02
 0 16 12 -3.69 -0.04
 2 16 12 -0.09 -0.03
 4 16 12 5.70 0.00
 6 16 12 3.12 0.03
 8 16 12 -4.75 0.03
 -7 17 12 -3.85 0.00
 -5 17 12 1.59 -0.03
 -3 17 12 2.41 -0.01
 -1 17 12 3.08 0.02
 1 17 12 -0.70 0.03
 3 17 12 1.43 0.01
 5 17 12 3.56 -0.01
 -4 18 12 -0.51 -0.03
 -2 18 12 -1.14 0.00
 0 18 12 -11.99 0.03
 2 18 12 4.52 0.01
 -18 1 13 1.66 -0.01
 -16 1 13 4.68 -0.01
 -14 1 13 -0.58 -0.01
 -12 1 13 1.08 0.01
 -10 1 13 -0.39 0.02
 -8 1 13 -1.83 0.01
 -6 1 13 -0.51 0.01
 -4 1 13 -4.78 -0.02
 -2 1 13 10.50 -0.04
 0 1 13 2.54 0.02
 2 1 13 -9.53 0.05
 4 1 13 -1.62 0.04
 6 1 13 0.88 -0.03
 8 1 13 -0.92 -0.03
 10 1 13 -4.87 -0.04
 12 1 13 1.79 0.02
 14 1 13 2.26 0.03
 16 1 13 1.56 0.03
 -17 2 13 -1.83 0.02
 -15 2 13 2.60 0.02
 -13 2 13 2.21 -0.01
 -11 2 13 0.21 -0.06
 -9 2 13 -1.65 -0.02
 -7 2 13 2.08 0.00
 -5 2 13 7.44 0.00
 -3 2 13 -4.31 0.02
 -1 2 13 -0.98 0.02
 1 2 13 0.51 -0.03
 3 2 13 -1.61 -0.02
 5 2 13 3.91 0.01
 7 2 13 2.51 0.01
 9 2 13 -4.04 0.04
 11 2 13 2.68 0.02
 13 2 13 -0.67 -0.04
 15 2 13 -1.31 -0.04
 17 2 13 1.86 0.01
 -16 3 13 0.23 0.00
 -14 3 13 1.59 0.01
 -12 3 13 0.18 -0.01
 -10 3 13 -2.90 -0.01
 -8 3 13 -1.75 -0.01
 -6 3 13 -2.70 -0.01
 -4 3 13 5.05 0.00
 -2 3 13 -6.83 0.03
 0 3 13 2.74 -0.04
 2 3 13 -3.27 -0.04
 4 3 13 -2.54 -0.02
 6 3 13 0.87 0.01
 8 3 13 2.12 0.02
 10 3 13 1.90 0.02
 12 3 13 -0.10 -0.01
 14 3 13 -0.64 -0.01
 16 3 13 2.44 -0.01
 -17 4 13 7.58 -0.02
 -15 4 13 3.56 -0.03
 -13 4 13 0.80 0.02
 -11 4 13 2.53 0.07
 -9 4 13 7.86 0.03
 -7 4 13 2.10 0.01
 -5 4 13 -2.91 -0.03
 -3 4 13 4.94 -0.03
 -1 4 13 -5.06 -0.02
 1 4 13 4.61 -0.01
 3 4 13 3.48 0.03
 5 4 13 -2.68 0.01
 7 4 13 -2.21 -0.01
 9 4 13 4.06 -0.05
 11 4 13 -2.34 -0.02
 13 4 13 0.41 0.03
 15 4 13 0.38 0.06
 -16 5 13 -2.55 0.01
 -14 5 13 -2.43 -0.01
 -12 5 13 -0.19 -0.01
 -10 5 13 3.42 -0.02
 -8 5 13 1.62 0.00
 -6 5 13 4.96 0.01
 -4 5 13 -4.37 0.02
 -2 5 13 -3.05 0.01
 0 5 13 -0.95 0.02
 2 5 13 10.03 -0.01
 4 5 13 -3.35 -0.04
 6 5 13 -3.15 0.01
 8 5 13 3.91 0.01
 10 5 13 2.17 0.01
 12 5 13 -0.77 0.00
 14 5 13 0.95 -0.02
 16 5 13 -2.48 0.05
 -17 6 13 -5.28 0.02
 -15 6 13 3.07 0.03
 -13 6 13 2.20 -0.01
 -11 6 13 -0.14 -0.02
 -9 6 13 -1.65 -0.02
 -7 6 13 7.34 0.00
 -5 6 13 0.74 0.02
 -3 6 13 -11.22 0.02
 -1 6 13 2.36 0.02
 1 6 13 6.59 0.00
 3 6 13 -0.76 -0.01
 5 6 13 -3.18 -0.03
 7 6 13 0.73 0.00
 9 6 13 3.28 0.04
 11 6 13 1.97 0.01
 13 6 13 -3.52 -0.01
 15 6 13 1.31 -0.03
 -16 7 13 0.14 -0.03
 -14 7 13 2.80 -0.01
 -12 7 13 0.37 0.03
 -10 7 13 -1.70 0.02
 -8 7 13 1.43 0.03
 -6 7 13 0.20 -0.02
 -4 7 13 -0.62 -0.03
 -2 7 13 1.90 -0.02
 0 7 13 3.46 -0.01
 2 7 13 -6.33 0.09
 4 7 13 0.99 0.05
 6 7 13 3.49 -0.01
 8 7 13 0.25 0.00
 10 7 13 -4.06 -0.02
 12 7 13 -1.34 0.01
 14 7 13 -2.16 0.04
 -15 8 13 -5.04 -0.01
 -13 8 13 -3.33 0.00
 -11 8 13 0.61 0.01
 -9 8 13 1.32 -0.02
 -7 8 13 -1.56 -0.01
 -5 8 13 0.04 0.02
 -3 8 13 3.63 0.02
 -1 8 13 -1.58 -0.02
 1 8 13 -8.45 0.01
 3 8 13 -2.18 -0.01
 5 8 13 1.27 -0.02
 7 8 13 1.52 0.03
 9 8 13 -1.69 0.00
 11 8 13 3.15 0.00
 13 8 13 0.02 0.00
 15 8 13 0.42 -0.01
 -14 9 13 2.15 0.01
 -12 9 13 0.33 -0.01
 -10 9 13 2.09 -0.04
 -8 9 13 1.48 -0.02
 -6 9 13 -0.59 0.02
 -4 9 13 5.61 0.03
 -2 9 13 -3.34 0.01
 0 9 13 -0.39 -0.01
 2 9 13 -1.16 -0.04
 4 9 13 2.98 -0.02
 6 9 13 2.81 0.01
 8 9 13 -1.72 0.02
 10 9 13 5.43 0.03
 12 9 13 1.30 -0.01
 14 9 13 4.88 -0.03
 -15 10 13 -0.33 -0.03
 -13 10 13 8.00 -0.01
 -11 10 13 -5.64 0.03
 -9 10 13 -2.39 0.04
 -7 10 13 -1.77 0.02
 -5 10 13 1.06 -0.02
 -3 10 13 1.32 -0.04
 -1 10 13 -3.10 0.01
 1 10 13 -0.91 0.02
 3 10 13 -0.25 0.03
 5 10 13 1.31 0.02
 7 10 13 0.25 -0.02
 9 10 13 1.68 -0.04
 11 10 13 1.02 0.00
 13 10 13 5.17 0.03
 -14 11 13 -1.56 -0.01
 -12 11 13 -1.95 0.01
 -10 11 13 2.45 0.04
 -8 11 13 0.51 -0.02
 -6 11 13 3.62 -0.01
 -4 11 13 -3.39 -0.01
 -2 11 13 0.43 0.01
 0 11 13 -9.45 0.01
 2 11 13 -0.59 -0.01
 4 11 13 -0.61 0.01
 6 11 13 0.42 -0.01
 8 11 13 4.97 0.00
 10 11 13 -0.19 -0.01
 12 11 13 2.16 0.00
 -13 12 13 -5.30 0.00
 -11 12 13 2.91 -0.04
 -9 12 13 0.33 -0.04
 -7 12 13 -1.84 -0.01
 -5 12 13 -1.63 0.03
 -3 12 13 0.16 0.05
 -1 12 13 -0.32 0.00
 1 12 13 -1.80 -0.02
 3 12 13 -0.68 -0.02
 5 12 13 -3.90 0.00
 7 12 13 -3.18 0.03
 9 12 13 -5.07 0.04
 11 12 13 -1.53 0.00
 -12 13 13 0.28 0.01
 -10 13 13 -4.70 0.01
 -8 13 13 2.45 0.03
 -6 13 13 0.58 -0.01
 -4 13 13 0.48 -0.02
 -2 13 13 -5.23 -0.01
 0 13 13 5.79 0.01
 2 13 13 3.37 0.04
 4 13 13 0.85 0.00
 6 13 13 2.58 0.00
 8 13 13 -0.68 -0.02
 10 13 13 2.33 -0.01
 -11 14 13 2.25 0.02
 -9 14 13 2.32 0.01
 -7 14 13 2.30 -0.01
 -5 14 13 1.49 -0.01
 -3 14 13 1.50 -0.03
 -1 14 13 1.03 0.01
 1 14 13 1.15 0.01
 3 14 13 1.07 0.02
 5 14 13 2.69 -0.01
 7 14 13 1.08 -0.02
 9 14 13 6.05 -0.02
 -10 15 13 2.14 -0.03
 -8 15 13 -0.87 -0.04
 -6 15 13 -0.87 0.02
 -4 15 13 1.76 0.04
 -2 15 13 1.27 0.01
 0 15 13 -7.34 -0.02
 2 15 13 -0.84 -0.05
 4 15 13 3.76 -0.02
 6 15 13 -2.25 0.01
 8 15 13 -3.83 0.03
 -9 16 13 0.90 0.02
 -7 16 13 -3.76 0.00
 -5 16 13 -0.22 -0.02
 -3 16 13 1.48 0.00
 -1 16 13 2.34 0.00
 1 16 13 0.34 0.01
 3 16 13 0.52 0.00
 5 16 13 2.24 0.01
 7 16 13 2.31 -0.02
 -6 17 13 -2.80 -0.01
 -4 17 13 -0.65 -0.03
 -2 17 13 3.43 -0.01
 0 17 13 -7.44 0.03
 2 17 13 3.38 0.02
 4 17 13 -4.42 0.03
 6 17 13 -4.64 -0.02
 -3 18 13 -1.16 0.01
 -1 18 13 -1.87 -0.02
 1 18 13 0.75 -0.03
 -18 0 14 2.62 0.00
 -16 0 14 6.89 0.00
 -14 0 14 1.70 -0.02
 -12 0 14 0.67 -0.01
 -10 0 14 -0.82 0.02
 -8 0 14 -2.74 0.01
 -6 0 14 1.62 0.03
 -4 0 14 -4.81 0.00
 -2 0 14 5.09 -0.05
 0 0 14 4.88 -0.01
 2 0 14 -9.50 0.04
 4 0 14 -2.83 0.05
 6 0 14 -0.58 -0.01
 8 0 14 -0.76 0.00
 10 0 14 -4.57 -0.06
 12 0 14 2.27 -0.01
 14 0 14 2.26 0.01
 16 0 14 5.27 0.05
 -17 1 14 -0.07 0.01
 -15 1 14 5.00 0.01
 -13 1 14 3.15 0.01
 -11 1 14 -0.72 -0.02
 -9 1 14 0.30 -0.02
 -7 1 14 2.38 -0.01
 -5 1 14 6.73 0.00
 -3 1 14 -4.15 0.00
 -1 1 14 -3.06 0.01
 1 1 14 0.85 0.00
 3 1 14 2.24 -0.01
 5 1 14 2.08 -0.01
 7 1 14 1.68 0.00
 9 1 14 -1.37 0.02
 11 1 14 1.38 0.02
 13 1 14 -1.53 -0.01
 15 1 14 0.55 -0.03
 -16 2 14 -0.67 0.01
 -14 2 14 3.55 0.02
 -12 2 14 0.47 0.00
 -10 2 14 -1.52 -0.01
 -8 2 14 -0.02 -0.02
 -6 2 14 -0.68 -0.02
 -4 2 14 4.43 0.01
 -2 2 14 -10.94 0.03
 0 2 14 0.65 0.00
 2 2 14 6.57 -0.01
 4 2 14 -1.81 -0.05
 6 2 14 -1.00 0.00
 8 2 14 3.29 0.02
 10 2 14 3.20 0.03
 12 2 14 -2.59 0.01
 14 2 14 -0.13 -0.02
 16 2 14 -0.67 -0.03
 -17 3 14 4.17 0.00
 -15 3 14 2.51 -0.02
 -13 3 14 0.56 0.00
 -11 3 14 2.80 0.06
 -9 3 14 4.33 0.03
 -7 3 14 2.91 0.02
 -5 3 14 -5.78 0.01
 -3 3 14 2.98 -0.02
 -1 3 14 -4.67 -0.05
 1 3 14 7.75 -0.01
 3 3 14 0.39 0.03
 5 3 14 -5.54 0.01
 7 3 14 -1.87 0.02
 9 3 14 6.02 -0.05
 11 3 14 -3.39 -0.05
 13 3 14 0.75 0.02
 15 3 14 2.14 0.05
 -16 4 14 -2.38 0.00
 -14 4 14 -1.02 -0.01
 -12 4 14 0.55 0.01
 -10 4 14 4.18 -0.01
 -8 4 14 1.46 0.00
 -6 4 14 1.72 0.02
 -4 4 14 -4.25 0.01
 -2 4 14 0.80 -0.02
 0 4 14 -0.54 0.03
 2 4 14 6.73 0.03
 4 4 14 -1.64 -0.02
 6 4 14 -0.84 0.00
 8 4 14 3.84 0.01
 10 4 14 -0.33 -0.01
 12 4 14 -2.31 0.01
 14 4 14 0.84 -0.01
 16 4 14 -0.96 0.01
 -17 5 14 -5.98 0.01
 -15 5 14 0.21 0.04
 -13 5 14 2.03 0.00
 -11 5 14 -2.43 -0.03
 -9 5 14 -3.62 -0.04
 -7 5 14 1.32 -0.02
 -5 5 14 1.53 0.03
 -3 5 14 -9.71 0.02
 -1 5 14 4.14 0.03
 1 5 14 -0.84 0.08
 3 5 14 -0.56 -0.02
 5 5 14 -1.72 -0.04
 7 5 14 1.29 -0.01
 9 5 14 -0.82 0.04
 11 5 14 3.11 0.03
 13 5 14 -2.11 0.01
 15 5 14 0.17 -0.07
 -16 6 14 1.64 -0.01
 -14 6 14 4.39 -0.01
 -12 6 14 0.08 0.01
 -10 6 14 -2.51 0.03
 -8 6 14 0.28 0.03
 -6 6 14 0.74 0.01
 -4 6 14 2.64 -0.02
 -2 6 14 2.50 -0.04
 0 6 14 -1.11 -0.04
 2 6 14 -6.91 0.05
 4 6 14 5.37 0.06
 6 6 14 4.01 0.02
 8 6 14 -3.09 0.00
 10 6 14 -1.93 -0.02
 12 6 14 -0.42 -0.01
 14 6 14 -0.72 0.01
 -15 7 14 -4.69 -0.02
 -13 7 14 -3.01 -0.02
 -11 7 14 0.39 0.01
 -9 7 14 -0.85 0.01
 -7 7 14 -7.38 0.01
 -5 7 14 0.33 0.01
 -3 7 14 7.40 0.00
 -1 7 14 -5.10 -0.02
 1 7 14 -8.62 0.00
 3 7 14 0.34 0.01
 5 7 14 2.12 0.01
 7 7 14 -2.67 0.03
 9 7 14 -1.54 -0.02
 11 7 14 1.44 -0.01
 13 7 14 1.63 0.00
 15 7 14 -1.04 -0.01
 -16 8 14 0.35 0.03
 -14 8 14 0.58 0.03
 -12 8 14 0.03 0.00
 -10 8 14 2.35 -0.01
 -8 8 14 0.36 -0.05
 -6 8 14 -0.91 0.01
 -4 8 14 4.94 0.02
 -2 8 14 -5.16 0.02
 0 8 14 -5.04 0.03
 2 8 14 1.90 -0.05
 4 8 14 1.64 -0.04
 6 8 14 -0.94 -0.01
 8 8 14 -1.46 -0.01
 10 8 14 7.94 0.03
 12 8 14 2.81 0.03
 14 8 14 1.90 -0.02
 -15 9 14 1.37 -0.02
 -13 9 14 5.99 -0.01
 -11 9 14 -1.90 0.00
 -9 9 14 -1.49 0.04
 -7 9 14 -2.39 0.03
 -5 9 14 -0.80 0.00
 -3 9 14 2.15 -0.04
 -1 9 14 1.10 -0.01
 1 9 14 3.17 -0.01
 3 9 14 0.84 0.03
 5 9 14 0.89 0.05
 7 9 14 0.41 -0.02
 9 9 14 0.27 -0.03
 11 9 14 -2.00 -0.01
 13 9 14 3.02 0.00
 -14 10 14 -3.50 -0.02
 -12 10 14 -1.49 -0.01
 -10 10 14 0.22 0.06
 -8 10 14 -0.90 0.01
 -6 10 14 1.04 0.00
 -4 10 14 -5.62 -0.02
 -2 10 14 2.37 -0.01
 0 10 14 -6.05 0.00
 2 10 14 -0.38 0.00
 4 10 14 -2.24 0.02
 6 10 14 -2.61 0.00
 8 10 14 1.23 -0.01
 10 10 14 -2.48 -0.03
 12 10 14 1.43 -0.01
 14 10 14 -5.36 0.01
 -13 11 14 -6.07 0.02
 -11 11 14 6.50 -0.01
 -9 11 14 3.09 -0.04
 -7 11 14 -1.96 -0.05
 -5 11 14 -3.75 0.01
 -3 11 14 0.92 0.05
 -1 11 14 3.96 0.01
 1 11 14 -0.80 -0.01
 3 11 14 0.41 -0.03
 5 11 14 -2.96 -0.03
 7 11 14 -3.62 0.01
 9 11 14 -1.79 0.04
 11 11 14 -0.58 0.03
 13 11 14 -3.97 -0.01
 -12 12 14 3.65 -0.02
 -10 12 14 -2.66 -0.01
 -8 12 14 -0.27 0.03
 -6 12 14 -3.48 0.01
 -4 12 14 2.25 0.00
 -2 12 14 0.04 -0.02
 0 12 14 8.30 0.00
 2 12 14 2.95 0.03
 4 12 14 0.57 0.01
 6 12 14 0.15 0.01
 8 12 14 -2.29 -0.02
 10 12 14 0.97 -0.01
 12 12 14 -1.82 0.01
 -11 13 14 1.33 0.02
 -9 13 14 1.47 0.05
 -7 13 14 0.97 0.01
 -5 13 14 3.21 0.00
 -3 13 14 0.46 -0.05
 -1 13 14 0.40 -0.02
 1 13 14 1.62 0.00
 3 13 14 -1.62 0.02
 5 13 14 4.38 0.02
 7 13 14 2.59 -0.01
 9 13 14 6.68 -0.04
 11 13 14 2.19 -0.02
 -10 14 14 4.83 -0.01
 -8 14 14 -1.43 -0.05
 -6 14 14 -2.37 -0.01
 -4 14 14 0.25 0.03
 -2 14 14 6.91 0.03
 0 14 14 -4.55 0.00
 2 14 14 -2.13 -0.04
 4 14 14 2.26 -0.02
 6 14 14 -4.61 -0.02
 8 14 14 -2.58 0.02
 10 14 14 -2.71 0.03
 -9 15 14 -0.31 0.00
 -7 15 14 -2.62 0.00
 -5 15 14 -2.44 -0.01
 -3 15 14 0.69 0.01
 -1 15 14 1.28 0.00
 1 15 14 -0.34 0.00
 3 15 14 -1.86 -0.01
 5 15 14 -1.63 0.01
 7 15 14 2.54 0.00
 9 15 14 -1.05 0.01
 -8 16 14 0.94 0.04
 -6 16 14 -2.61 0.00
 -4 16 14 -1.83 -0.02
 -2 16 14 3.95 -0.03
 0 16 14 1.24 -0.01
 2 16 14 0.21 0.03
 4 16 14 -5.96 0.05
 6 16 14 -0.15 0.01
 -5 17 14 -0.02 0.02
 -3 17 14 -0.77 0.02
 -1 17 14 0.70 0.00
 1 17 14 -1.16 -0.01
 3 17 14 -0.67 -0.02
 5 17 14 -1.91 -0.02
 -2 18 14 -0.35 0.02
 0 18 14 14.39 -0.01
 -16 1 15 -4.44 -0.01
 -14 1 15 1.42 0.02
 -12 1 15 0.81 0.03
 -10 1 15 -0.22 0.00
 -8 1 15 1.13 -0.02
 -6 1 15 -2.61 -0.03
 -4 1 15 5.57 -0.02
 -2 1 15 -5.78 0.03
 0 1 15 -2.80 0.03
 2 1 15 8.18 0.01
 4 1 15 -0.34 -0.04
 6 1 15 0.79 -0.02
 8 1 15 2.87 -0.02
 10 1 15 3.26 0.04
 12 1 15 -3.61 0.04
 14 1 15 -0.84 0.00
 16 1 15 -4.84 -0.04
 -17 2 15 0.32 0.00
 -15 2 15 -2.38 -0.01
 -13 2 15 -1.15 -0.01
 -11 2 15 3.01 0.02
 -9 2 15 -0.18 0.03
 -7 2 15 -0.04 0.02
 -5 2 15 -7.44 0.04
 -3 2 15 4.50 0.01
 -1 2 15 -1.30 -0.02
 1 2 15 5.74 -0.01
 3 2 15 -2.43 0.01
 5 2 15 -4.45 0.01
 7 2 15 -1.57 0.03
 9 2 15 2.88 -0.02
 11 2 15 -3.33 -0.04
 13 2 15 2.58 0.00
 15 2 15 0.94 0.02
 -16 3 15 -1.90 0.00
 -14 3 15 -3.10 -0.01
 -12 3 15 -0.27 0.01
 -10 3 15 2.04 0.00
 -8 3 15 -0.18 0.01
 -6 3 15 0.25 0.03
 -4 3 15 -3.57 0.01
 -2 3 15 6.96 -0.03
 0 3 15 -1.77 0.00
 2 3 15 -1.46 0.00
 4 3 15 0.85 0.02
 6 3 15 1.06 0.01
 8 3 15 0.51 0.01
 10 3 15 -2.28 -0.02
 12 3 15 -0.29 -0.01
 14 3 15 0.38 0.00
 16 3 15 0.76 0.01
 -17 4 15 -4.18 -0.01
 -15 4 15 -2.10 0.02
 -13 4 15 0.58 0.01
 -11 4 15 -3.97 -0.02
 -9 4 15 -3.68 -0.03
 -7 4 15 -4.46 -0.03
 -5 4 15 3.49 0.00
 -3 4 15 -6.01 0.00
 -1 4 15 4.92 0.05
 1 4 15 -6.54 0.12
 3 4 15 1.63 -0.01
 5 4 15 1.48 -0.03
 7 4 15 0.62 -0.04
 9 4 15 -4.54 0.03
 11 4 15 2.20 0.04
 13 4 15 -0.85 0.02
 15 4 15 -1.87 -0.05
 -16 5 15 2.86 0.00
 -14 5 15 3.36 0.01
 -12 5 15 -1.60 -0.01
 -10 5 15 -5.00 0.02
 -8 5 15 -1.66 0.02
 -6 5 15 3.21 0.00
 -4 5 15 4.51 0.00
 -2 5 15 -0.17 -0.01
 0 5 15 -4.22 -0.04
 2 5 15 -4.74 -0.01
 4 5 15 5.92 0.04
 6 5 15 1.22 0.02
 8 5 15 -6.31 0.00
 10 5 15 -0.31 -0.01
 12 5 15 1.78 -0.02
 14 5 15 -0.39 -0.01
 16 5 15 0.49 0.00
 -15 6 15 -2.77 -0.02
 -13 6 15 -3.77 -0.03
 -11 6 15 1.54 0.00
 -9 6 15 -1.86 0.02
 -7 6 15 -6.33 0.02
 -5 6 15 0.04 0.00
 -3 6 15 8.85 0.00
 -1 6 15 -5.52 -0.03
 1 6 15 -3.29 -0.09
 3 6 15 2.19 0.02
 5 6 15 2.43 0.03
 7 6 15 -4.23 0.03
 9 6 15 -0.44 -0.02
 11 6 15 -1.45 -0.02
 13 6 15 1.25 -0.03
 15 6 15 -0.42 0.02
 -16 7 15 0.60 0.01
 -14 7 15 -1.93 0.03
 -12 7 15 0.22 0.01
 -10 7 15 1.00 0.00
 -8 7 15 -1.12 -0.06
 -6 7 15 -2.37 -0.02
 -4 7 15 1.90 0.01
 -2 7 15 -5.06 0.04
 0 7 15 -2.73 0.06
 2 7 15 4.64 -0.03
 4 7 15 -2.66 -0.04
 6 7 15 -4.16 -0.04
 8 7 15 -0.51 -0.03
 10 7 15 4.44 0.02
 12 7 15 3.01 0.04
 14 7 15 0.04 0.02
 -15 8 15 2.97 0.00
 -13 8 15 4.34 0.01
 -11 8 15 -0.46 -0.01
 -9 8 15 0.10 0.02
 -7 8 15 0.74 0.01
 -5 8 15 -1.63 -0.01
 -3 8 15 0.44 -0.03
 -1 8 15 5.34 -0.01
 1 8 15 6.87 -0.02
 3 8 15 -0.61 0.00
 5 8 15 -0.66 0.03
 7 8 15 3.55 -0.02
 9 8 15 -0.58 -0.01
 11 8 15 -4.29 0.00
 13 8 15 0.15 0.00
 -14 9 15 -3.47 -0.02
 -12 9 15 -0.82 -0.03
 -10 9 15 -1.93 0.02
 -8 9 15 -2.26 0.04
 -6 9 15 -0.43 0.02
 -4 9 15 -5.99 0.00
 -2 9 15 5.77 -0.01
 0 9 15 1.91 -0.03
 2 9 15 0.33 0.01
 4 9 15 -1.96 0.02
 6 9 15 -2.36 0.02
 8 9 15 -0.70 0.01
 10 9 15 -7.67 -0.03
 12 9 15 -1.34 -0.04
 14 9 15 -3.73 -0.02
 -13 10 15 -5.00 0.02
 -11 10 15 3.94 0.01
 -9 10 15 1.52 -0.02
 -7 10 15 -0.01 -0.06
 -5 10 15 -1.81 -0.02
 -3 10 15 -1.36 0.03
 -1 10 15 2.36 0.02
 1 10 15 -1.52 0.01
 3 10 15 -0.44 -0.02
 5 10 15 -2.30 -0.05
 7 10 15 -3.65 -0.01
 9 10 15 -0.33 0.03
 11 10 15 1.31 0.03
 13 10 15 -4.15 0.01
 -14 11 15 0.12 0.01
 -12 11 15 4.47 -0.01
 -10 11 15 -0.82 -0.04
 -8 11 15 -1.23 0.01
 -6 11 15 -3.07 0.00
 -4 11 15 3.28 0.01
 -2 11 15 1.46 -0.01
 0 11 15 10.43 0.00
 2 11 15 4.09 0.01
 4 11 15 1.77 0.00
 6 11 15 0.48 0.01
 8 11 15 -0.12 -0.01
 10 11 15 0.22 0.00
 12 11 15 -3.30 0.02
 -13 12 15 0.82 -0.02
 -11 12 15 -3.27 -0.01
 -9 12 15 -2.62 0.05
 -7 12 15 2.25 0.05
 -5 12 15 5.90 0.02
 -3 12 15 -1.32 -0.05
 -1 12 15 -3.38 -0.03
 1 12 15 1.58 -0.01
 3 12 15 -2.56 0.00
 5 12 15 2.68 0.04
 7 12 15 4.29 0.01
 9 12 15 3.49 -0.03
 11 12 15 1.87 -0.03
 -12 13 15 -1.55 0.03
 -10 13 15 3.86 0.00
 -8 13 15 0.31 -0.04
 -6 13 15 -0.13 -0.02
 -4 13 15 -2.34 0.00
 -2 13 15 4.22 0.02
 0 13 15 -3.32 0.01
 2 13 15 -2.80 -0.02
 4 13 15 1.63 -0.01
 6 13 15 -2.43 -0.03
 8 13 15 -2.27 0.00
 10 13 15 -2.32 0.03
 -11 14 15 -2.31 0.00
 -9 14 15 -1.91 -0.03
 -7 14 15 -0.77 -0.01
 -5 14 15 -4.31 -0.01
 -3 14 15 0.35 0.02
 -1 14 15 1.46 0.02
 1 14 15 -0.69 0.02
 3 14 15 -0.17 -0.01
 5 14 15 -3.92 -0.02
 7 14 15 -0.27 -0.01
 9 14 15 -3.62 0.01
 -10 15 15 -1.48 0.00
 -8 15 15 0.38 0.06
 -6 15 15 -0.63 0.02
 -4 15 15 -1.45 -0.01
 -2 15 15 -2.26 -0.03
 0 15 15 2.57 -0.03
 2 15 15 -0.92 0.01
 4 15 15 -5.84 0.03
 6 15 15 3.39 0.04
 8 15 15 1.12 0.00
 -7 16 15 2.40 -0.02
 -5 16 15 1.62 0.01
 -3 16 15 -1.03 0.00
 -1 16 15 3.01 0.00
 1 16 15 -1.65 0.01
 3 16 15 1.96 0.00
 5 16 15 1.20 -0.02
 7 16 15 -2.02 0.00
 -6 17 15 1.40 -0.02
 -4 17 15 -0.31 0.00
 -2 17 15 -4.45 0.02
 0 17 15 7.89 0.02
 2 17 15 -3.01 0.00
 4 17 15 2.51 -0.04
 -1 18 15 -0.25 -0.01
 -16 0 16 -6.78 -0.03
 -14 0 16 0.33 0.01
 -12 0 16 1.67 0.04
 -10 0 16 -0.44 0.04
 -8 0 16 0.27 -0.01
 -6 0 16 -4.84 -0.04
 -4 0 16 8.03 -0.04
 -2 0 16 -1.87 0.00
 0 0 16 -4.06 0.04
 2 0 16 5.08 0.02
 4 0 16 -1.28 -0.02
 6 0 16 2.38 -0.03
 8 0 16 2.18 -0.05
 10 0 16 3.28 0.01
 12 0 16 -3.14 0.06
 14 0 16 -2.31 0.04
 16 0 16 -6.76 -0.03
 -17 1 16 -1.94 0.00
 -15 1 16 -4.88 0.00
 -13 1 16 -1.18 -0.01
 -11 1 16 2.84 -0.01
 -9 1 16 -1.25 0.01
 -7 1 16 -1.39 0.00
 -5 1 16 -4.77 0.02
 -3 1 16 4.59 0.03
 -1 1 16 0.04 0.01
 1 1 16 2.03 -0.02
 3 1 16 -1.60 0.00
 5 1 16 -0.88 0.01
 7 1 16 -0.97 0.01
 9 1 16 -0.16 0.01
 11 1 16 -1.53 -0.02
 13 1 16 2.33 -0.01
 15 1 16 -1.04 0.00
 -16 2 16 -0.14 0.01
 -14 2 16 -5.19 -0.01
 -12 2 16 -1.40 -0.01
 -10 2 16 0.03 -0.01
 -8 2 16 -1.38 0.01
 -6 2 16 1.68 0.03
 -4 2 16 -5.39 0.02
 -2 2 16 7.82 0.00
 0 2 16 -1.51 -0.04
 2 2 16 -6.80 -0.05
 4 2 16 2.49 0.03
 6 2 16 0.05 0.02
 8 2 16 -3.01 0.02
 10 2 16 -2.25 -0.01
 12 2 16 3.18 -0.03
 14 2 16 -0.40 -0.01
 16 2 16 2.73 0.02
 -17 3 16 -0.40 -0.03
 -15 3 16 -1.90 -0.01
 -13 3 16 -1.13 0.01
 -11 3 16 -4.07 0.00
 -9 3 16 0.28 -0.01
 -7 3 16 -3.80 -0.02
 -5 3 16 4.27 -0.04
 -3 3 16 -5.00 -0.02
 -1 3 16 4.44 0.03
 1 3 16 -7.76 0.08
 3 3 16 2.73 0.01
 5 3 16 3.02 0.00
 7 3 16 -0.19 -0.06
 9 3 16 -3.22 0.00
 11 3 16 2.92 0.03
 13 3 16 -2.20 0.03
 15 3 16 -2.98 0.00
 -16 4 16 1.94 0.00
 -14 4 16 2.22 0.01
 -12 4 16 -1.45 -0.01
 -10 4 16 -3.63 0.01
 -8 4 16 -0.58 0.00
 -6 4 16 3.46 -0.02
 -4 4 16 3.90 0.00
 -2 4 16 -4.29 0.03
 0 4 16 -2.67 -0.02
 2 4 16 0.00 -0.02
 4 4 16 3.30 0.02
 6 4 16 -1.21 0.00
 8 4 16 -5.70 -0.01
 10 4 16 1.07 0.00
 12 4 16 2.62 -0.02
 14 4 16 -0.76 0.00
 16 4 16 -0.92 0.01
 -17 5 16 2.63 0.02
 -15 5 16 -1.46 -0.01
 -13 5 16 -3.85 -0.02
 -11 5 16 2.92 -0.02
 -9 5 16 -0.91 0.01
 -7 5 16 -0.18 0.03
 -5 5 16 -1.58 0.00
 -3 5 16 7.00 0.03
 -1 5 16 -3.65 -0.03
 1 5 16 1.46 -0.20
 3 5 16 -0.11 -0.01
 5 5 16 1.28 0.03
 7 5 16 -2.88 0.04
 9 5 16 1.54 0.00
 11 5 16 -0.49 -0.02
 13 5 16 -0.04 -0.04
 15 5 16 0.91 0.02
 -16 6 16 -0.84 -0.02
 -14 6 16 -4.13 0.00
 -12 6 16 2.03 0.01
 -10 6 16 3.17 0.00
 -8 6 16 0.82 -0.03
 -6 6 16 -5.08 -0.03
 -4 6 16 -2.02 -0.01
 -2 6 16 -1.04 0.03
 0 6 16 3.69 0.05
 2 6 16 3.61 0.02
 4 6 16 -5.18 -0.02
 6 6 16 -2.04 -0.05
 8 6 16 2.90 -0.03
 10 6 16 0.50 0.00
 12 6 16 1.68 0.03
 14 6 16 0.34 0.04
 -15 7 16 2.48 0.00
 -13 7 16 4.17 0.03
 -11 7 16 -1.08 0.00
 -9 7 16 2.07 0.00
 -7 7 16 3.84 -0.01
 -5 7 16 -1.87 -0.01
 -3 7 16 -1.98 -0.02
 -1 7 16 6.68 0.00
 1 7 16 5.14 0.04
 3 7 16 -4.92 -0.03
 5 7 16 -2.01 0.00
 7 7 16 6.58 -0.03
 9 7 16 -1.22 0.00
 11 7 16 -3.11 0.00
 13 7 16 0.00 0.02
 15 7 16 1.59 0.02
 -14 8 16 -2.15 -0.01
 -12 8 16 -1.12 -0.04
 -10 8 16 -0.81 -0.03
 -8 8 16 0.17 0.04
 -6 8 16 0.54 0.03
 -4 8 16 -4.78 0.01
 -2 8 16 7.03 0.00
 0 8 16 6.28 -0.05
 2 8 16 -0.95 -0.02
 4 8 16 0.74 0.00
 6 8 16 1.84 0.04
 8 8 16 0.30 0.05
 10 8 16 -8.08 0.00
 12 8 16 -3.51 -0.06
 14 8 16 -0.11 -0.05
 -15 9 16 -0.50 0.01
 -13 9 16 -3.71 0.01
 -11 9 16 0.55 0.01
 -9 9 16 -0.67 -0.01
 -7 9 16 2.20 -0.04
 -5 9 16 1.04 -0.02
 -3 9 16 -3.71 0.02
 -1 9 16 -1.40 0.03
 1 9 16 -4.40 0.03
 3 9 16 -0.65 0.00
 5 9 16 -0.81 -0.05
 7 9 16 -3.48 0.00
 9 9 16 -0.23 0.01
 11 9 16 3.98 0.01
 13 9 16 -0.19 0.01
 -14 10 16 2.24 0.01
 -12 10 16 2.85 0.03
 -10 10 16 1.42 -0.03
 -8 10 16 1.24 -0.01
 -6 10 16 -0.09 -0.02
 -4 10 16 2.70 -0.01
 -2 10 16 -2.51 -0.01
 0 10 16 6.25 0.01
 2 10 16 2.50 0.01
 4 10 16 1.20 0.00
 6 10 16 2.87 0.00
 8 10 16 3.37 -0.01
 10 10 16 2.89 0.01
 12 10 16 -2.25 0.03
 -13 11 16 0.35 -0.01
 -11 11 16 -5.10 -0.03
 -9 11 16 -2.84 0.00
 -7 11 16 3.61 0.06
 -5 11 16 5.74 0.04
 -3 11 16 -1.29 -0.01
 -1 11 16 -4.94 -0.02
 1 11 16 2.07 -0.02
 3 11 16 -0.57 -0.02
 5 11 16 1.37 0.03
 7 11 16 5.66 0.02
 9 11 16 0.77 0.00
 11 11 16 -0.39 -0.04
 -12 12 16 -5.71 0.02
 -10 12 16 1.26 0.01
 -8 12 16 3.01 -0.01
 -6 12 16 1.82 -0.02
 -4 12 16 -3.25 -0.01
 -2 12 16 -1.40 0.02
 0 12 16 -7.33 0.00
 2 12 16 -4.85 -0.02
 4 12 16 -0.57 -0.01
 6 12 16 0.35 -0.02
 8 12 16 -2.90 0.00
 10 12 16 -1.80 0.02
 12 12 16 1.68 -0.01
 -11 13 16 -1.37 0.01
 -9 13 16 0.57 -0.03
 -7 13 16 -0.69 -0.02
 -5 13 16 -5.95 -0.03
 -3 13 16 0.23 0.02
 -1 13 16 2.92 0.03
 1 13 16 0.09 0.03
 3 13 16 2.89 0.02
 5 13 16 -1.59 -0.03
 7 13 16 -3.09 -0.02
 9 13 16 -3.56 0.01
 11 13 16 -2.35 0.02
 -10 14 16 -4.07 -0.03
 -8 14 16 -1.18 0.04
 -6 14 16 0.76 0.04
 -4 14 16 1.65 0.01
 -2 14 16 -6.06 -0.02
 0 14 16 -1.03 -0.03
 2 14 16 -0.12 -0.01
 4 14 16 -5.53 0.00
 6 14 16 2.46 0.04
 8 14 16 2.47 0.02
 10 14 16 1.72 -0.02
 -9 15 16 0.47 0.00
 -7 15 16 1.69 0.00
 -5 15 16 3.75 0.01
 -3 15 16 -1.94 0.00
 -1 15 16 1.30 0.00
 1 15 16 -0.50 -0.01
 3 15 16 4.40 0.00
 5 15 16 4.20 0.00
 7 15 16 -0.96 0.00
 -8 16 16 -0.93 -0.03
 -6 16 16 2.51 -0.03
 -4 16 16 0.83 -0.02
 -2 16 16 -3.70 0.02
 0 16 16 2.06 0.04
 2 16 16 1.39 0.02
 4 16 16 3.79 -0.02
 6 16 16 -3.00 -0.04
 -5 17 16 -1.10 0.00
 -3 17 16 -0.51 0.00
 -1 17 16 -6.31 0.00
 1 17 16 2.40 -0.02
 3 17 16 -1.32 -0.01
 -16 1 17 3.49 0.03
 -14 1 17 -4.38 0.00
 -12 1 17 -2.32 -0.02
 -10 1 17 0.71 -0.04
 -8 1 17 -0.29 -0.01
 -6 1 17 4.10 0.02
 -4 1 17 -9.60 0.05
 -2 1 17 4.48 0.04
 0 1 17 0.68 -0.03
 2 1 17 -4.85 -0.05
 4 1 17 3.45 0.00
 6 1 17 -1.95 0.02
 8 1 17 -2.81 0.05
 10 1 17 -2.38 0.02
 12 1 17 3.17 -0.04
 14 1 17 1.36 -0.04
 16 1 17 4.98 0.01
 -17 2 17 3.62 -0.01
 -15 2 17 2.88 -0.02
 -13 2 17 -1.49 -0.01
 -11 2 17 -4.09 0.02
 -9 2 17 3.16 0.00
 -7 2 17 -0.26 0.00
 -5 2 17 2.94 -0.04
 -3 2 17 -6.58 -0.04
 -1 2 17 2.83 -0.02
 1 2 17 -4.12 0.03
 3 2 17 1.52 0.02
 5 2 17 0.34 0.01
 7 2 17 -0.64 -0.04
 9 2 17 0.69 -0.02
 11 2 17 3.26 0.00
 13 2 17 -3.58 0.02
 15 2 17 -0.91 0.03
 -16 3 17 0.81 -0.01
 -14 3 17 4.01 0.00
 -12 3 17 0.26 -0.01
 -8 3 17 2.85 0.01
 -6 3 17 1.01 -0.03
 -4 3 17 4.16 -0.01
 -2 3 17 -6.90 0.01
 0 3 17 1.09 0.01
 2 3 17 5.24 0.04
 4 3 17 -0.21 0.01
 6 3 17 -1.02 0.00
 8 3 17 -0.59 -0.02
 10 3 17 1.94 -0.01
 12 3 17 -0.52 0.00
 14 3 17 -0.25 0.01
 16 3 17 -1.38 0.00
 -17 4 17 0.23 0.03
 -15 4 17 0.64 0.02
 -13 4 17 -0.76 0.00
 -11 4 17 3.47 -0.02
 -9 4 17 -1.58 0.00
 -7 4 17 2.84 0.01
 -5 4 17 -2.36 0.01
 -3 4 17 5.00 0.04
 -1 4 17 -2.45 0.00
 1 4 17 3.07 -0.18
 3 4 17 -2.62 -0.05
 5 4 17 -0.49 -0.01
 7 4 17 -0.68 0.04
 9 4 17 1.61 0.02
 11 4 17 0.46 0.00
 13 4 17 0.26 -0.04
 15 4 17 2.39 -0.02
 -16 5 17 -0.88 -0.02
 -14 5 17 -3.59 -0.01
 -12 5 17 2.74 0.00
 -10 5 17 5.15 -0.01
 -8 5 17 2.89 0.00
 -6 5 17 -6.07 0.00
 -4 5 17 -3.46 -0.02
 -2 5 17 3.54 0.00
 0 5 17 6.53 0.02
 2 5 17 -0.17 0.04
 4 5 17 -4.14 0.00
 6 5 17 1.89 -0.02
 8 5 17 6.08 -0.02
 10 5 17 -0.09 -0.01
 12 5 17 -0.74 0.02
 14 5 17 0.88 0.02
 -15 6 17 2.43 -0.01
 -13 6 17 5.45 0.02
 -11 6 17 -1.28 0.02
 -9 6 17 3.27 0.01
 -7 6 17 3.10 -0.01
 -5 6 17 -1.36 0.00
 -3 6 17 -2.75 -0.03
 -1 6 17 4.45 0.00
 1 6 17 1.22 0.16
 3 6 17 -5.64 0.00
 5 6 17 -1.80 0.00
 7 6 17 6.34 -0.02
 9 6 17 -0.93 -0.02
 11 6 17 -2.25 -0.01
 13 6 17 1.00 0.03
 15 6 17 0.60 0.02
 -16 7 17 -1.59 0.03
 -14 7 17 0.84 0.01
 -12 7 17 -2.62 -0.02
 -10 7 17 -0.26 -0.04
 -8 7 17 1.85 0.02
 -6 7 17 2.72 0.03
 -4 7 17 -2.04 0.02
 -2 7 17 3.72 0.00
 0 7 17 2.08 -0.04
 2 7 17 -2.15 -0.05
 4 7 17 3.08 -0.03
 6 7 17 2.85 0.04
 8 7 17 0.41 0.06
 10 7 17 -2.87 0.03
 12 7 17 -3.94 -0.02
 14 7 17 -0.49 -0.06
 -15 8 17 -0.78 0.00
 -13 8 17 -3.10 -0.01
 -11 8 17 0.48 0.00
 -9 8 17 -0.65 0.00
 -7 8 17 2.04 -0.01
 -5 8 17 2.64 -0.01
 -3 8 17 -3.98 0.01
 -1 8 17 -3.83 0.03
 1 8 17 -5.72 0.01
 3 8 17 3.59 0.04
 5 8 17 1.83 -0.02
 7 8 17 -4.32 0.01
 9 8 17 1.07 0.01
 11 8 17 5.62 0.00
 13 8 17 1.64 0.00
 -14 9 17 2.73 -0.02
 -12 9 17 2.26 0.04
 -10 9 17 2.46 0.01
 -8 9 17 1.59 -0.01
 -6 9 17 0.79 -0.02
 -4 9 17 1.61 -0.03
 -2 9 17 -6.27 -0.02
 0 9 17 -1.66 0.01
 2 9 17 -0.52 0.03
 4 9 17 -1.58 0.03
 6 9 17 1.61 -0.01
 8 9 17 3.74 -0.04
 10 9 17 6.86 -0.01
 12 9 17 0.45 0.04
 -13 10 17 -0.04 0.01
 -11 10 17 -2.38 -0.02
 -9 10 17 1.05 -0.04
 -7 10 17 2.01 0.04
 -5 10 17 2.52 0.04
 -3 10 17 1.31 0.02
 -1 10 17 -4.04 -0.01
 1 10 17 3.24 -0.02
 3 10 17 2.08 -0.02
 5 10 17 1.72 0.02
 7 10 17 4.54 0.02
 9 10 17 1.24 0.02
 11 10 17 -2.45 -0.01
 13 10 17 1.46 -0.03
 -12 11 17 -5.50 0.00
 -10 11 17 -0.76 0.01
 -8 11 17 2.26 0.00
 -6 11 17 0.45 0.00
 -4 11 17 -1.44 0.01
 -2 11 17 -1.19 0.02
 0 11 17 -10.43 0.00
 2 11 17 -5.75 -0.01
 4 11 17 -1.30 -0.01
 6 11 17 -0.98 -0.02
 8 11 17 -5.05 0.01
 10 11 17 -1.37 0.02
 12 11 17 2.99 -0.02
 -13 12 17 3.01 0.00
 -11 12 17 2.31 0.03
 -9 12 17 3.75 0.01
 -7 12 17 -3.30 -0.02
 -5 12 17 -6.40 -0.04
 -3 12 17 0.77 -0.01
 -1 12 17 4.06 0.01
 1 12 17 -0.50 0.03
 3 12 17 2.40 0.05
 5 12 17 1.87 -0.01
 7 12 17 -4.39 -0.02
 9 12 17 -1.31 -0.01
 11 12 17 -1.23 0.01
 -12 13 17 3.21 -0.02
 -10 13 17 -2.82 -0.01
 -8 13 17 -4.29 0.00
 -6 13 17 0.55 0.03
 -4 13 17 4.37 0.02
 -2 13 17 -2.78 0.00
 0 13 17 -0.14 -0.01
 2 13 17 1.86 0.00
 4 13 17 -3.09 -0.02
 6 13 17 -0.69 0.03
 8 13 17 4.05 0.03
 10 13 17 2.39 -0.01
 -9 14 17 1.07 0.00
 -7 14 17 1.20 0.00
 -5 14 17 4.91 0.02
 -3 14 17 -1.29 0.01
 -1 14 17 -1.56 -0.01
 1 14 17 -1.32 -0.03
 3 14 17 2.07 -0.03
 5 14 17 2.80 0.01
 7 14 17 2.69 0.02
 9 14 17 0.79 0.01
 -8 15 17 0.63 -0.01
 -6 15 17 1.61 -0.02
 -4 15 17 -0.15 -0.02
 -2 15 17 1.34 0.00
 0 15 17 3.36 0.03
 2 15 17 3.64 0.04
 4 15 17 5.55 0.02
 6 15 17 -1.98 -0.03
 8 15 17 -0.25 -0.04
 -7 16 17 -1.29 0.01
 -5 16 17 -2.13 0.00
 -3 16 17 1.43 0.01
 -1 16 17 -8.00 0.00
 1 16 17 1.89 -0.01
 3 16 17 -5.58 -0.01
 5 16 17 -3.78 0.00
 -4 17 17 1.27 0.03
 -2 17 17 4.58 0.01
 0 17 17 -5.01 -0.03
 2 17 17 1.47 -0.03
 -16 0 18 4.82 0.04
 -14 0 18 -5.25 0.02
 -12 0 18 -3.55 -0.01
 -10 0 18 2.71 -0.06
 -8 0 18 1.18 -0.03
 -6 0 18 4.20 0.00
 -4 0 18 -13.09 0.05
 -2 0 18 4.41 0.06
 0 0 18 1.22 0.00
 2 0 18 -2.36 -0.03
 4 0 18 3.70 -0.03
 6 0 18 -2.31 0.01
 8 0 18 -0.97 0.04
 10 0 18 -2.70 0.05
 12 0 18 1.16 -0.01
 14 0 18 3.36 -0.04
 16 0 18 5.29 -0.01
 -17 1 18 4.18 0.00
 -15 1 18 5.32 -0.01
 -13 1 18 -0.83 -0.01
 -11 1 18 -2.75 0.01
 -9 1 18 2.43 0.00
 -7 1 18 0.79 0.01
 -5 1 18 0.48 -0.02
 -3 1 18 -5.18 -0.03
 -1 1 18 1.19 -0.04
 1 1 18 -0.32 0.01
 3 1 18 -0.11 0.01
 5 1 18 -1.94 0.00
 7 1 18 -0.48 -0.01
 9 1 18 1.66 -0.02
 11 1 18 1.56 -0.01
 13 1 18 -1.97 0.00
 15 1 18 1.36 0.02
 -16 2 18 0.21 -0.01
 -14 2 18 6.63 -0.02
 -12 2 18 1.42 -0.01
 -10 2 18 0.81 0.02
 -8 2 18 3.70 0.02
 -6 2 18 -1.24 0.00
 -4 2 18 8.18 -0.02
 -2 2 18 -6.82 -0.05
 0 2 18 2.53 0.02
 2 2 18 6.16 0.07
 4 2 18 -3.00 0.01
 6 2 18 0.81 0.01
 8 2 18 3.10 -0.02
 10 2 18 1.78 -0.03
 12 2 18 -2.96 0.00
 14 2 18 0.21 0.01
 16 2 18 -1.92 0.00
 -17 3 18 -3.55 0.02
 -15 3 18 0.40 0.03
 -13 3 18 2.88 0.02
 -11 3 18 3.24 -0.02
 -9 3 18 -4.00 -0.01
 -7 3 18 1.10 -0.01
 -5 3 18 -0.09 0.02
 -3 3 18 5.58 0.04
 -1 3 18 -2.29 0.04
 1 3 18 1.58 -0.06
 3 3 18 -2.17 -0.05
 5 3 18 0.16 -0.04
 7 3 18 1.47 0.03
 9 3 18 -1.34 0.03
 11 3 18 -2.05 0.03
 13 3 18 2.58 -0.01
 15 3 18 2.67 -0.05
 -16 4 18 1.46 0.00
 -14 4 18 -1.86 0.00
 -12 4 18 0.95 0.00
 -10 4 18 1.59 0.00
 -8 4 18 -0.20 0.00
 -6 4 18 -3.57 0.03
 -4 4 18 -2.33 -0.01
 -2 4 18 5.40 -0.02
 0 4 18 3.11 0.01
 2 4 18 -3.92 0.00
 4 4 18 -1.45 -0.02
 6 4 18 3.06 -0.01
 8 4 18 4.45 0.01
 10 4 18 -0.61 0.00
 12 4 18 -0.73 0.01
 14 4 18 1.40 0.00
 -15 5 18 2.60 -0.02
 -13 5 18 4.28 -0.01
 -11 5 18 -1.57 0.03
 -9 5 18 3.09 0.02
 -7 5 18 1.24 0.01
 -5 5 18 0.39 0.01
 -3 5 18 -2.27 -0.05
 -1 5 18 0.92 -0.02
 1 5 18 0.18 0.21
 3 5 18 -2.04 0.05
 5 5 18 -0.47 0.03
 7 5 18 3.94 0.00
 9 5 18 0.21 -0.03
 11 5 18 -3.75 -0.03
 13 5 18 1.09 0.01
 15 5 18 -0.03 0.03
 -16 6 18 -0.93 0.04
 -14 6 18 3.64 0.02
 -12 6 18 -3.33 0.01
 -10 6 18 -2.93 -0.01
 -8 6 18 -1.07 0.00
 -6 6 18 4.39 0.01
 -4 6 18 0.43 0.01
 -2 6 18 -1.99 0.00
 0 6 18 -4.68 0.00
 2 6 18 -0.12 -0.05
 4 6 18 2.57 -0.05
 6 6 18 -1.26 0.01
 8 6 18 -2.40 0.04
 10 6 18 -0.17 0.03
 12 6 18 -2.63 0.01
 14 6 18 -2.04 -0.04
 -15 7 18 -0.85 0.02
 -13 7 18 -4.29 -0.01
 -11 7 18 0.28 -0.01
 -9 7 18 -0.95 -0.01
 -7 7 18 0.19 0.00
 -5 7 18 3.79 0.00
 -3 7 18 -2.49 0.01
 -1 7 18 -4.17 0.03
 1 7 18 -3.45 -0.05
 3 7 18 8.62 0.04
 5 7 18 2.80 -0.01
 7 7 18 -4.87 0.00
 9 7 18 2.19 0.02
 11 7 18 5.09 0.02
 13 7 18 0.14 -0.01
 -14 8 18 1.90 -0.05
 -12 8 18 3.66 0.01
 -10 8 18 1.41 0.05
 -8 8 18 -2.07 0.01
 -6 8 18 -0.37 -0.01
 -4 8 18 1.01 -0.02
 -2 8 18 -5.77 -0.04
 0 8 18 -4.18 0.01
 2 8 18 -0.80 0.06
 4 8 18 -3.75 0.07
 6 8 18 -2.22 0.00
 8 8 18 1.37 -0.05
 10 8 18 5.88 -0.04
 12 8 18 2.07 0.01
 14 8 18 -0.52 0.06
 -15 9 18 0.25 0.01
 -13 9 18 0.08 0.01
 -11 9 18 -0.68 0.01
 -9 9 18 1.77 -0.03
 -7 9 18 -1.33 0.01
 -5 9 18 -0.40 0.02
 -3 9 18 4.53 0.01
 -1 9 18 -2.91 -0.01
 1 9 18 4.90 -0.01
 3 9 18 1.25 -0.03
 5 9 18 0.23 0.00
 7 9 18 1.44 0.00
 9 9 18 1.82 0.01
 11 9 18 -4.08 0.01
 13 9 18 -3.19 0.00
 -14 10 18 0.32 0.02
 -12 10 18 -3.19 -0.02
 -10 10 18 -2.86 0.02
 -8 10 18 -0.83 -0.01
 -6 10 18 -1.08 0.00
 -4 10 18 1.59 0.03
 -2 10 18 3.19 0.03
 0 10 18 -7.10 0.01
 2 10 18 -2.09 0.00
 4 10 18 1.84 -0.02
 6 10 18 -3.69 -0.02
 8 10 18 -6.80 0.01
 10 10 18 -3.01 0.02
 12 10 18 2.00 -0.01
 -13 11 18 3.42 -0.04
 -11 11 18 3.37 0.02
 -9 11 18 1.69 0.06
 -7 11 18 -5.42 -0.01
 -5 11 18 -4.72 -0.03
 -3 11 18 0.79 -0.03
 -1 11 18 5.20 -0.02
 1 11 18 -1.91 0.00
 3 11 18 -0.90 0.05
 5 11 18 0.75 0.02
 7 11 18 -4.06 -0.01
 9 11 18 0.02 -0.03
 11 11 18 1.10 0.00
 -12 12 18 6.63 -0.01
 -10 12 18 -0.62 0.02
 -8 12 18 -5.87 0.00
 -6 12 18 0.76 0.02
 -4 12 18 3.94 0.01
 -2 12 18 0.81 -0.01
 0 12 18 5.89 0.00
 2 12 18 4.48 0.01
 4 12 18 0.18 0.00
 6 12 18 -1.13 0.02
 8 12 18 5.08 0.01
 10 12 18 2.90 -0.02
 -11 13 18 1.90 0.00
 -9 13 18 -1.82 -0.02
 -7 13 18 2.57 -0.02
 -5 13 18 4.39 0.02
 -3 13 18 -0.32 0.02
 -1 13 18 -1.84 0.01
 1 13 18 -2.12 -0.03
 3 13 18 -0.91 -0.05
 5 13 18 -2.53 -0.01
 7 13 18 3.34 0.00
 9 13 18 1.54 0.02
 -10 14 18 3.34 0.03
 -8 14 18 3.96 0.01
 -6 14 18 -0.17 -0.01
 -4 14 18 -3.18 -0.01
 -2 14 18 4.04 -0.02
 0 14 18 5.31 0.00
 2 14 18 2.85 0.03
 4 14 18 5.85 0.06
 6 14 18 1.75 -0.01
 8 14 18 -1.70 -0.04
 -9 15 18 -0.14 0.01
 -7 15 18 -2.28 0.01
 -5 15 18 -3.52 0.00
 -3 15 18 2.94 -0.01
 -1 15 18 -3.60 -0.01
 1 15 18 1.18 0.01
 3 15 18 -7.58 0.01
 5 15 18 -4.77 0.00
 7 15 18 -2.73 0.00
 -6 16 18 -2.26 0.00
 -4 16 18 0.39 0.02
 -2 16 18 4.06 0.03
 0 16 18 -3.57 -0.02
 2 16 18 -3.69 -0.04
 4 16 18 -0.03 -0.03
 6 16 18 3.58 0.01
 -3 17 18 -0.08 -0.02
 -1 17 18 9.03 -0.01
 1 17 18 -2.06 0.01
 3 17 18 4.21 0.03
 -16 1 19 -1.44 -0.01
 -14 1 19 8.25 -0.02
 -12 1 19 3.27 -0.02
 -10 1 19 -3.12 0.03
 -8 1 19 1.09 0.03
 -6 1 19 -1.07 0.03
 -4 1 19 13.10 -0.02
 -2 1 19 -6.92 -0.06
 0 1 19 0.99 -0.01
 2 1 19 3.33 0.03
 4 1 19 -2.88 0.03
 6 1 19 1.89 0.02
 8 1 19 1.52 -0.01
 10 1 19 1.79 -0.04
 12 1 19 -0.88 -0.02
 14 1 19 -1.68 0.01
 -17 2 19 -5.84 0.00
 -15 2 19 -3.95 0.03
 -13 2 19 3.21 0.02
 -11 2 19 2.10 0.00
 -9 2 19 -4.75 -0.01
 -7 2 19 -0.52 -0.02
 -5 2 19 3.23 0.01
 -3 2 19 6.13 0.03
 -1 2 19 -1.61 0.06
 1 2 19 -0.98 0.01
 3 2 19 -0.27 -0.02
 5 2 19 2.62 -0.03
 7 2 19 1.98 0.01
 9 2 19 -3.28 0.02
 11 2 19 -3.24 0.04
 13 2 19 2.96 0.01
 15 2 19 -0.12 -0.04
 -16 3 19 1.37 0.00
 -14 3 19 -2.94 0.02
 -12 3 19 -0.41 0.01
 -10 3 19 -1.90 0.00
 -8 3 19 -4.99 -0.01
 -6 3 19 -0.65 0.01
 -4 3 19 -3.40 -0.01
 -2 3 19 5.30 0.01
 0 3 19 -2.05 0.01
 2 3 19 -5.48 -0.04
 4 3 19 1.46 -0.03
 6 3 19 1.57 -0.02
 8 3 19 -0.73 0.01
 10 3 19 -1.77 0.01
 12 3 19 1.88 0.02
 14 3 19 0.87 0.00
 -15 4 19 1.37 -0.02
 -13 4 19 -0.32 -0.03
 -11 4 19 -2.28 0.01
 -9 4 19 2.60 0.01
 -7 4 19 1.33 0.03
 -5 4 19 0.07 0.02
 -3 4 19 -2.38 -0.03
 -1 4 19 -0.73 -0.05
 1 4 19 1.80 0.12
 3 4 19 0.78 0.06
 5 4 19 0.16 0.06
 7 4 19 0.78 0.02
 9 4 19 2.07 -0.02
 11 4 19 -2.21 -0.05
 13 4 19 -0.59 -0.02
 15 4 19 -0.91 0.04
 -16 5 19 -2.73 0.01
 -14 5 19 2.56 0.01
 -12 5 19 -1.33 0.03
 -10 5 19 -3.15 0.01
 -8 5 19 -3.00 -0.01
 -6 5 19 3.92 -0.02
 -4 5 19 0.03 0.01
 -2 5 19 -5.16 0.02
 0 5 19 -5.54 0.01
 2 5 19 3.00 -0.02
 4 5 19 0.30 -0.02
 6 5 19 -4.75 -0.01
 8 5 19 -4.84 0.01
 10 5 19 -1.16 0.02
 12 5 19 -0.89 0.01
 14 5 19 -2.34 -0.01
 -15 6 19 -2.32 0.02
 -13 6 19 -5.19 0.02
 -11 6 19 -1.00 -0.01
 -9 6 19 -2.34 -0.02
 -7 6 19 -2.01 -0.02
 -5 6 19 3.20 -0.01
 -3 6 19 -0.53 0.02
 -1 6 19 -1.96 0.03
 1 6 19 -1.27 -0.13
 3 6 19 8.43 0.00
 5 6 19 1.46 -0.03
 7 6 19 -3.97 -0.03
 9 6 19 0.74 0.02
 11 6 19 5.22 0.03
 13 6 19 -0.44 0.01
 -14 7 19 -1.01 -0.04
 -12 7 19 4.44 -0.02
 -10 7 19 0.88 0.03
 -8 7 19 -3.44 0.02
 -6 7 19 -1.35 0.01
 -4 7 19 1.02 0.00
 -2 7 19 -1.39 -0.03
 0 7 19 0.71 -0.03
 2 7 19 -0.52 0.06
 4 7 19 -3.23 0.08
 6 7 19 -1.93 0.02
 8 7 19 0.31 -0.03
 10 7 19 1.78 -0.04
 12 7 19 2.48 -0.03
 14 7 19 1.89 0.03
 -15 8 19 -0.20 0.00
 -13 8 19 1.16 0.00
 -11 8 19 -0.55 0.02
 -9 8 19 -1.15 -0.01
 -7 8 19 -2.62 0.00
 -5 8 19 -2.26 0.01
 -3 8 19 5.21 0.00
 -1 8 19 -1.13 -0.02
 1 8 19 5.30 0.01
 3 8 19 -4.01 -0.04
 5 8 19 -2.41 -0.02
 7 8 19 -0.78 0.00
 9 8 19 -0.58 0.00
 11 8 19 -4.64 0.00
 13 8 19 -3.20 0.00
 -14 9 19 -0.44 0.05
 -12 9 19 -3.40 0.00
 -10 9 19 -4.69 0.01
 -8 9 19 -0.76 -0.02
 -6 9 19 -0.32 -0.01
 -4 9 19 3.42 0.02
 -2 9 19 5.85 0.04
 0 9 19 -1.50 0.03
 2 9 19 1.79 -0.02
 4 9 19 5.15 -0.05
 6 9 19 -1.60 -0.03
 8 9 19 -5.59 0.01
 10 9 19 -5.43 0.03
 12 9 19 0.73 0.01
 -13 10 19 2.95 -0.04
 -11 10 19 1.80 -0.01
 -9 10 19 -1.72 0.06
 -7 10 19 -3.83 0.01
 -5 10 19 -2.19 -0.02
 -3 10 19 -1.61 -0.02
 -1 10 19 7.25 -0.02
 1 10 19 -2.85 -0.02
 3 10 19 -3.40 0.03
 5 10 19 -2.12 0.04
 7 10 19 -0.84 0.01
 9 10 19 -1.46 -0.03
 11 10 19 2.15 -0.02
 -12 11 19 4.73 0.00
 -10 11 19 0.68 0.01
 -8 11 19 -3.33 0.01
 -6 11 19 1.40 0.02
 -4 11 19 0.88 -0.01
 -2 11 19 0.02 -0.02
 0 11 19 9.88 -0.01
 2 11 19 3.90 -0.01
 4 11 19 -0.77 0.01
 6 11 19 2.92 0.02
 8 11 19 6.49 0.00
 10 11 19 2.46 -0.02
 12 11 19 -0.93 0.00
 -11 12 19 -0.72 0.00
 -9 12 19 -3.70 -0.05
 -7 12 19 5.39 -0.03
 -5 12 19 3.11 0.00
 -3 12 19 -1.16 0.02
 -1 12 19 -1.77 0.04
 1 12 19 -0.47 0.01
 3 12 19 -0.91 -0.05
 5 12 19 -4.52 -0.04
 7 12 19 1.42 -0.02
 9 12 19 -0.47 0.01
 11 12 19 -0.22 0.03
 -10 13 19 1.89 -0.02
 -8 13 19 7.20 0.02
 -6 13 19 -1.45 0.00
 -4 13 19 -5.11 0.00
 -2 13 19 2.78 -0.02
 0 13 19 1.77 -0.02
 2 13 19 0.29 0.00
 4 13 19 2.78 0.04
 6 13 19 2.85 0.00
 8 13 19 -2.22 -0.03
 10 13 19 -1.68 -0.01
 -9 14 19 0.04 0.03
 -7 14 19 -3.55 0.03
 -5 14 19 -3.31 0.01
 -3 14 19 2.22 -0.02
 -1 14 19 -0.73 -0.02
 1 14 19 2.36 0.02
 3 14 19 -4.42 0.03
 5 14 19 -1.19 0.02
 7 14 19 -4.38 0.01
 9 14 19 -1.30 -0.01
 -8 15 19 -1.49 -0.03
 -6 15 19 -1.43 -0.03
 -4 15 19 0.98 -0.02
 -2 15 19 0.33 0.04
 0 15 19 -5.49 0.02
 2 15 19 -6.16 -0.03
 4 15 19 -3.34 -0.07
 6 15 19 -0.92 -0.02
 -5 16 19 1.38 0.00
 -3 16 19 -2.79 -0.01
 -1 16 19 8.69 0.00
 1 16 19 -1.08 0.00
 3 16 19 8.69 0.01
 5 16 19 4.30 0.02
 -2 17 19 -3.38 -0.04
 0 17 19 1.08 0.00
 2 17 19 -0.57 0.03
 -16 0 20 -1.89 0.00
 -14 0 20 9.84 -0.01
 -12 0 20 5.30 -0.03
 -10 0 20 -6.47 0.02
 -8 0 20 0.10 0.03
 -6 0 20 2.19 0.04
 -4 0 20 14.57 0.00
 -2 0 20 -8.69 -0.04
 0 0 20 -0.07 -0.03
 2 0 20 1.54 -0.03
 4 0 20 -0.20 0.04
 6 0 20 2.18 0.02
 8 0 20 -0.57 0.01
 10 0 20 1.49 -0.03
 12 0 20 1.66 -0.04
 14 0 20 -2.90 -0.01
 -17 1 20 -4.13 -0.01
 -15 1 20 -5.07 0.01
 -13 1 20 1.45 0.01
 -11 1 20 0.17 0.01
 -9 1 20 -3.13 0.00
 -7 1 20 -0.20 -0.02
 -5 1 20 3.56 0.00
 -3 1 20 3.31 0.01
 -1 1 20 -0.36 0.04
 1 1 20 -1.20 0.01
 3 1 20 0.58 0.00
 5 1 20 2.51 -0.01
 7 1 20 0.64 -0.01
 9 1 20 -1.91 0.01
 11 1 20 -1.30 0.03
 13 1 20 0.78 0.02
 15 1 20 -2.31 -0.01
 -16 2 20 -1.07 -0.01
 -14 2 20 -6.79 0.02
 -12 2 20 -1.30 0.03
 -10 2 20 1.14 0.01
 -8 2 20 -5.21 -0.02
 -6 2 20 -1.05 -0.02
 -4 2 20 -8.07 -0.01
 -2 2 20 6.02 0.03
 0 2 20 -3.44 0.01
 2 2 20 -3.93 -0.03
 4 2 20 2.12 -0.02
 6 2 20 -0.55 -0.03
 8 2 20 -2.75 -0.01
 10 2 20 -1.40 0.01
 12 2 20 1.79 0.04
 14 2 20 -0.13 0.02
 -15 3 20 1.47 0.00
 -13 3 20 -3.33 -0.01
 -11 3 20 -1.11 -0.02
 -9 3 20 2.91 -0.01
 -7 3 20 1.37 0.03
 -5 3 20 -4.37 0.02
 -3 3 20 -3.06 0.01
 -1 3 20 -0.38 -0.06
 1 3 20 3.08 -0.01
 3 3 20 0.92 0.03
 5 3 20 -0.95 0.06
 7 3 20 -1.66 0.02
 9 3 20 3.96 0.00
 11 3 20 2.32 -0.04
 13 3 20 -2.67 -0.04
 15 3 20 -0.62 0.03
 -16 4 20 -4.87 -0.01
 -14 4 20 -0.29 -0.01
 -12 4 20 1.01 0.01
 -10 4 20 0.67 0.00
 -8 4 20 0.48 0.00
 -6 4 20 1.35 -0.02
 -4 4 20 -1.51 0.02
 -2 4 20 -4.43 0.02
 0 4 20 -0.17 -0.02
 2 4 20 4.13 0.01
 4 4 20 -1.99 0.02
 6 4 20 -4.75 0.00
 8 4 20 -3.00 -0.01
 10 4 20 -0.22 0.00
 12 4 20 -1.21 0.00
 14 4 20 -2.63 0.01
 -15 5 20 -4.06 0.00
 -13 5 20 -2.68 0.04
 -11 5 20 0.10 0.00
 -9 5 20 -1.40 -0.01
 -7 5 20 -3.76 -0.04
 -5 5 20 0.87 -0.03
 -3 5 20 0.69 0.01
 -1 5 20 1.33 0.03
 1 5 20 -2.08 -0.12
 3 5 20 4.34 -0.02
 5 5 20 -0.08 -0.05
 7 5 20 -2.03 -0.06
 9 5 20 -1.43 0.00
 11 5 20 5.23 0.03
 13 5 20 0.55 0.04
 -16 6 20 2.61 -0.01
 -14 6 20 -3.12 -0.01
 -12 6 20 2.33 -0.04
 -10 6 20 1.18 -0.01
 -8 6 20 0.00 0.01
 -6 6 20 -2.28 0.02
 -4 6 20 1.70 0.01
 -2 6 20 3.42 0.00
 0 6 20 5.08 -0.06
 2 6 20 -2.25 0.02
 4 6 20 -0.61 0.06
 6 6 20 2.02 0.04
 8 6 20 2.19 0.00
 10 6 20 1.62 -0.02
 12 6 20 2.14 -0.04
 14 6 20 2.98 -0.01
 -15 7 20 0.23 0.00
 -13 7 20 2.75 -0.02
 -11 7 20 1.59 0.00
 -9 7 20 -1.14 0.01
 -7 7 20 -0.21 0.01
 -5 7 20 -3.36 0.00
 -3 7 20 2.24 0.00
 -1 7 20 0.56 -0.03
 1 7 20 3.59 0.03
 3 7 20 -8.42 -0.03
 5 7 20 -2.49 0.00
 7 7 20 -1.28 0.02
 9 7 20 -2.58 0.00
 11 7 20 -4.19 -0.02
 13 7 20 -1.18 -0.02
 -14 8 20 -0.26 0.06
 -12 8 20 -4.98 0.02
 -10 8 20 -4.06 0.00
 -8 8 20 2.57 -0.02
 -6 8 20 0.27 -0.02
 -4 8 20 1.97 -0.01
 -2 8 20 5.16 0.03
 0 8 20 -0.74 0.04
 2 8 20 1.89 -0.03
 4 8 20 5.29 -0.06
 6 8 20 3.02 -0.04
 8 8 20 -2.48 0.00
 10 8 20 -4.43 0.01
 12 8 20 0.60 0.04
 -13 9 20 1.85 -0.01
 -11 9 20 1.22 -0.03
 -9 9 20 0.39 0.02
 -7 9 20 -0.23 0.01
 -5 9 20 -0.81 -0.01
 -3 9 20 -4.61 0.00
 -1 9 20 7.75 0.00
 1 9 20 -4.21 -0.03
 3 9 20 -2.40 0.01
 5 9 20 -1.10 0.05
 7 9 20 3.98 0.02
 9 9 20 -1.97 -0.02
 11 9 20 1.98 -0.02
 13 9 20 3.94 -0.02
 -14 10 20 -2.14 -0.02
 -12 10 20 2.21 0.00
 -10 10 20 3.50 -0.05
 -8 10 20 0.80 0.02
 -6 10 20 0.24 0.03
 -4 10 20 -2.80 -0.01
 -2 10 20 -2.58 -0.02
 0 10 20 8.29 -0.03
 2 10 20 -0.45 -0.03
 4 10 20 -4.47 0.02
 6 10 20 5.82 0.03
 8 10 20 7.00 0.01
 10 10 20 3.34 0.00
 12 10 20 -0.43 -0.02
 -13 11 20 -3.36 0.05
 -11 11 20 -1.44 0.00
 -9 11 20 -1.42 -0.05
 -7 11 20 6.24 -0.02
 -5 11 20 1.87 -0.02
 -3 11 20 -1.58 0.01
 -1 11 20 -5.06 0.04
 1 11 20 0.91 0.05
 3 11 20 0.75 -0.02
 5 11 20 0.17 -0.06
 7 11 20 -0.57 -0.04
 9 11 20 -2.40 0.01
 11 11 20 -1.71 0.02
 -12 12 20 -6.06 0.00
 -10 12 20 1.02 -0.06
 -8 12 20 7.07 0.00
 -6 12 20 -1.53 -0.01
 -4 12 20 -4.39 0.01
 -2 12 20 0.59 0.00
 0 12 20 -4.79 -0.01
 2 12 20 -1.63 -0.01
 4 12 20 0.70 0.00
 6 12 20 -0.70 0.00
 8 12 20 -3.07 0.00
 10 12 20 -2.47 0.00
 -11 13 20 -2.22 -0.03
 -9 13 20 2.27 0.03
 -7 13 20 -5.43 0.05
 -5 13 20 -1.57 0.03
 -3 13 20 2.33 0.00
 -1 13 20 -1.57 -0.04
 1 13 20 1.79 -0.01
 3 13 20 -0.40 0.02
 5 13 20 3.51 0.04
 7 13 20 -0.86 0.04
 9 13 20 -1.48 0.01
 -10 14 20 -2.23 0.00
 -8 14 20 -5.16 -0.02
 -6 14 20 0.91 -0.03
 -4 14 20 3.04 -0.05
 -2 14 20 -3.58 0.03
 0 14 20 -5.24 0.03
 2 14 20 -4.78 0.00
 4 14 20 -4.31 -0.06
 6 14 20 -3.71 -0.04
 8 14 20 -0.79 0.02
 -7 15 20 3.42 -0.01
 -5 15 20 2.60 -0.01
 -3 15 20 -4.13 0.00
 -1 15 20 4.07 0.02
 1 15 20 -0.77 0.00
 3 15 20 8.69 -0.01
 5 15 20 4.17 0.00
 7 15 20 4.30 0.00
 -6 16 20 2.03 0.04
 -4 16 20 -0.30 0.04
 -2 16 20 -3.93 -0.04
 0 16 20 2.29 -0.03
 2 16 20 4.49 0.01
 4 16 20 -2.54 0.04
 -1 17 20 -6.79 0.01
 -16 1 21 -1.18 -0.02
 -14 1 21 -9.79 -0.01
 -12 1 21 -4.13 0.03
 -10 1 21 6.72 0.02
 -8 1 21 -2.94 -0.01
 -6 1 21 -5.24 -0.04
 -4 1 21 -11.33 -0.01
 -2 1 21 8.42 0.01
 0 1 21 -1.48 0.01
 2 1 21 -1.05 0.04
 4 1 21 -1.25 -0.01
 6 1 21 -2.25 -0.02
 8 1 21 -0.69 -0.03
 10 1 21 -0.25 -0.01
 12 1 21 -1.34 0.04
 14 1 21 0.66 0.04
 -15 2 21 3.58 0.01
 -13 2 21 -2.61 0.01
 -11 2 21 2.01 -0.03
 -9 2 21 3.58 -0.02
 -7 2 21 -0.15 0.01
 -5 2 21 -7.60 0.02
 -3 2 21 -1.89 0.02
 -1 2 21 -0.13 -0.04
 1 2 21 1.82 -0.04
 3 2 21 -0.07 -0.01
 5 2 21 -1.91 0.02
 7 2 21 -1.09 0.01
 9 2 21 3.70 0.01
 11 2 21 3.09 -0.02
 13 2 21 -2.17 -0.04
 15 2 21 2.31 0.00
 -16 3 21 -1.77 0.01
 -14 3 21 0.94 -0.01
 -12 3 21 1.23 -0.01
 -10 3 21 1.12 -0.02
 -8 3 21 4.26 0.00
 -6 3 21 -0.20 0.00
 -4 3 21 0.18 0.02
 -2 3 21 -3.32 0.01
 0 3 21 4.61 -0.02
 2 3 21 2.89 0.01
 4 3 21 -3.06 0.02
 6 3 21 -2.63 0.02
 8 3 21 0.80 0.01
 10 3 21 1.34 0.01
 12 3 21 -1.96 -0.02
 14 3 21 -1.42 -0.02
 -15 4 21 -3.76 -0.03
 -13 4 21 0.86 0.00
 -11 4 21 1.58 0.03
 -9 4 21 1.61 0.03
 -7 4 21 -3.23 -0.03
 -5 4 21 2.00 -0.04
 -3 4 21 0.92 -0.03
 -1 4 21 2.62 0.01
 1 4 21 -3.47 -0.03
 3 4 21 0.86 0.00
 5 4 21 -0.52 -0.04
 7 4 21 0.46 -0.05
 9 4 21 -2.56 -0.03
 11 4 21 1.17 0.01
 13 4 21 1.88 0.05
 -16 5 21 5.09 0.01
 -14 5 21 -1.01 0.02
 -12 5 21 -1.20 -0.03
 -10 5 21 -0.32 -0.02
 -8 5 21 2.48 0.00
 -6 5 21 -2.55 0.02
 -4 5 21 2.99 0.01
 -2 5 21 5.05 0.00
 0 5 21 2.71 -0.02
 2 5 21 -3.62 -0.01
 4 5 21 2.21 0.01
 6 5 21 4.45 0.03
 8 5 21 4.00 0.02
 10 5 21 3.06 0.01
 12 5 21 1.48 -0.02
 14 5 21 2.52 -0.02
 -15 6 21 2.82 0.01
 -13 6 21 2.43 -0.03
 -11 6 21 2.77 -0.02
 -9 6 21 0.84 0.01
 -7 6 21 3.42 0.02
 -5 6 21 -2.13 0.01
 -3 6 21 -1.40 0.02
 -1 6 21 -0.46 -0.01
 1 6 21 2.11 0.05
 3 6 21 -7.69 -0.02
 5 6 21 -0.69 0.02
 7 6 21 -1.12 0.05
 9 6 21 -1.63 0.01
 11 6 21 -4.35 -0.01
 13 6 21 -1.67 -0.04
 -14 7 21 1.85 0.02
 -12 7 21 -4.07 0.04
 -10 7 21 -0.77 0.03
 -8 7 21 3.60 0.00
 -6 7 21 0.35 -0.02
 -4 7 21 -1.43 -0.03
 -2 7 21 1.98 -0.01
 0 7 21 -3.91 0.05
 2 7 21 1.39 -0.01
 4 7 21 2.98 -0.04
 6 7 21 3.84 -0.04
 8 7 21 -0.67 -0.02
 10 7 21 -2.42 -0.01
 12 7 21 -0.15 0.04
 -13 8 21 0.45 0.01
 -11 8 21 0.30 -0.02
 -9 8 21 3.84 0.00
 -7 8 21 0.54 0.00
 -5 8 21 -0.76 0.00
 -3 8 21 -3.97 0.00
 -1 8 21 4.75 0.01
 1 8 21 -5.08 -0.01
 3 8 21 1.53 0.02
 5 8 21 1.29 0.04
 7 8 21 6.58 0.01
 9 8 21 1.14 -0.01
 11 8 21 1.03 0.00
 13 8 21 2.49 0.00
 -14 9 21 -1.06 -0.02
 -12 9 21 3.13 0.00
 -10 9 21 6.78 -0.07
 -8 9 21 1.98 0.01
 -6 9 21 -1.29 0.02
 -4 9 21 -3.61 0.01
 -2 9 21 -4.71 -0.01
 0 9 21 4.95 -0.04
 2 9 21 -2.80 -0.02
 4 9 21 -5.37 0.02
 6 9 21 1.95 0.03
 8 9 21 5.20 0.03
 10 9 21 5.08 0.03
 12 9 21 -1.16 -0.03
 -13 10 21 -2.78 0.02
 -11 10 21 -0.74 0.00
 -9 10 21 -0.08 -0.01
 -7 10 21 3.40 -0.01
 -5 10 21 0.96 -0.01
 -3 10 21 0.67 -0.01
 -1 10 21 -9.22 0.02
 1 10 21 1.48 0.06
 3 10 21 2.54 0.02
 5 10 21 4.07 -0.05
 7 10 21 -3.60 -0.04
 9 10 21 -1.09 0.01
 11 10 21 -1.25 0.01
 -12 11 21 -2.66 0.00
 -10 11 21 0.69 0.00
 -8 11 21 2.84 -0.02
 -6 11 21 0.35 -0.02
 -4 11 21 -1.73 0.00
 -2 11 21 -0.99 0.00
 0 11 21 -8.83 0.01
 2 11 21 0.03 0.03
 4 11 21 2.69 0.00
 6 11 21 -6.32 -0.01
 8 11 21 -4.65 0.00
 10 11 21 -2.56 -0.02
 -11 12 21 -0.79 0.00
 -9 12 21 3.00 0.01
 -7 12 21 -6.33 0.03
 -5 12 21 -0.60 0.05
 -3 12 21 4.10 0.03
 -1 12 21 -0.06 -0.04
 1 12 21 -0.34 -0.04
 3 12 21 2.10 -0.01
 5 12 21 2.64 0.04
 7 12 21 2.89 0.06
 9 12 21 2.86 0.03
 -10 13 21 -1.00 0.05
 -8 13 21 -7.12 0.00
 -6 13 21 1.86 -0.01
 -4 13 21 4.26 -0.04
 -2 13 21 -4.42 0.01
 0 13 21 -1.52 0.02
 2 13 21 -2.16 0.01
 4 13 21 -2.14 -0.02
 6 13 21 -0.92 -0.02
 8 13 21 -1.61 -0.01
 -9 14 21 -1.19 -0.02
 -7 14 21 5.09 -0.03
 -5 14 21 2.44 -0.03
 -3 14 21 -4.13 -0.01
 -1 14 21 2.80 0.02
 1 14 21 -0.72 0.01
 3 14 21 4.05 0.00
 5 14 21 1.41 -0.01
 7 14 21 2.50 -0.02
 -8 15 21 1.65 0.02
 -6 15 21 0.41 0.05
 -4 15 21 -0.42 0.09
 -2 15 21 -0.24 -0.02
 0 15 21 3.40 -0.04
 2 15 21 5.78 -0.01
 4 15 21 2.01 0.03
 6 15 21 2.09 0.05
 -5 16 21 -0.80 -0.01
 -3 16 21 4.15 0.00
 -1 16 21 -5.28 -0.01
 1 16 21 0.76 0.00
 3 16 21 -8.93 0.01
 -16 0 22 -0.83 -0.02
 -14 0 22 -9.92 -0.03
 -12 0 22 -5.98 0.00
 -10 0 22 9.30 0.02
 -8 0 22 -3.43 0.02
 -6 0 22 -9.95 -0.03
 -4 0 22 -10.00 -0.02
 -2 0 22 9.61 -0.03
 0 0 22 -0.85 -0.01
 2 0 22 1.18 0.07
 4 0 22 -4.87 0.00
 6 0 22 -3.52 0.00
 8 0 22 0.07 -0.04
 10 0 22 0.88 -0.04
 12 0 22 -2.77 0.02
 14 0 22 1.26 0.05
 -15 1 22 3.11 0.01
 -13 1 22 -1.18 0.02
 -11 1 22 3.18 -0.02
 -9 1 22 2.87 -0.01
 -7 1 22 -1.15 0.00
 -5 1 22 -4.95 0.01
 -3 1 22 0.66 0.01
 -1 1 22 -0.38 -0.01
 1 1 22 -0.66 0.00
 3 1 22 -0.64 -0.01
 5 1 22 -1.06 0.00
 7 1 22 0.67 0.00
 9 1 22 1.62 0.01
 11 1 22 0.68 -0.01
 13 1 22 -0.31 -0.02
 15 1 22 3.40 -0.01
 -16 2 22 2.98 0.03
 -14 2 22 5.49 0.01
 -12 2 22 1.75 -0.01
 -10 2 22 -3.97 -0.03
 -8 2 22 4.65 -0.01
 -6 2 22 2.72 0.01
 -4 2 22 4.14 0.02
 -2 2 22 -4.90 0.02
 0 2 22 4.37 0.02
 2 2 22 0.17 -0.01
 4 2 22 -0.74 -0.02
 6 2 22 0.52 0.01
 8 2 22 1.85 0.03
 10 2 22 -0.11 0.03
 12 2 22 -0.04 -0.02
 14 2 22 0.87 -0.04
 -15 3 22 -2.34 -0.04
 -13 3 22 1.67 -0.05
 -11 3 22 -1.33 0.03
 -9 3 22 1.98 0.05
 -7 3 22 0.08 0.00
 -5 3 22 7.05 -0.03
 -3 3 22 -0.17 -0.05
 -1 3 22 1.48 0.00
 1 3 22 -2.02 0.03
 3 3 22 -0.31 0.02
 5 3 22 -0.10 -0.01
 7 3 22 1.41 -0.01
 9 3 22 -3.30 -0.04
 11 3 22 -3.25 -0.02
 13 3 22 3.02 0.03
 -16 4 22 5.45 0.01
 -14 4 22 1.51 0.02
 -12 4 22 -2.90 0.00
 -10 4 22 -1.90 0.01
 -8 4 22 1.16 0.00
 -6 4 22 -0.15 0.01
 -4 4 22 3.52 -0.01
 -2 4 22 3.48 -0.01
 0 4 22 -3.28 0.03
 2 4 22 -2.71 0.00
 4 4 22 4.06 -0.02
 6 4 22 4.28 0.00
 8 4 22 2.64 0.01
 10 4 22 1.21 0.00
 12 4 22 1.39 0.00
 14 4 22 2.43 -0.01
 -15 5 22 5.93 0.04
 -13 5 22 0.32 -0.01
 -11 5 22 -0.21 -0.02
 -9 5 22 -1.84 -0.01
 -7 5 22 4.12 0.01
 -5 5 22 -0.46 0.02
 -3 5 22 -2.48 0.03
 -1 5 22 -3.35 0.03
 1 5 22 2.02 0.05
 3 5 22 -3.62 -0.03
 5 5 22 0.58 0.00
 7 5 22 -1.55 0.05
 9 5 22 -0.79 0.03
 11 5 22 -3.24 0.02
 13 5 22 -2.25 -0.04
 -14 6 22 3.01 -0.02
 -12 6 22 -0.82 0.03
 -10 6 22 2.39 0.04
 -8 6 22 0.51 0.02
 -6 6 22 2.57 -0.01
 -4 6 22 -2.68 -0.03
 -2 6 22 -1.84 -0.03
 0 6 22 -4.56 0.04
 2 6 22 2.45 0.01
 4 6 22 0.07 -0.01
 6 6 22 1.41 -0.03
 8 6 22 -1.44 -0.03
 10 6 22 -3.57 -0.03
 12 6 22 -1.15 0.02
 14 6 22 -1.10 0.04
 -15 7 22 -0.59 -0.03
 -13 7 22 -0.05 0.01
 -11 7 22 -2.13 0.01
 -9 7 22 1.72 -0.01
 -7 7 22 -2.09 -0.01
 -5 7 22 -1.26 0.00
 -3 7 22 0.06 -0.01
 -1 7 22 1.70 0.00
 1 7 22 -3.75 0.01
 3 7 22 4.38 0.02
 5 7 22 1.02 0.01
 7 7 22 5.93 -0.01
 9 7 22 3.81 0.00
 11 7 22 0.40 0.00
 13 7 22 1.31 0.02
 -14 8 22 -0.84 -0.01
 -12 8 22 4.33 0.00
 -10 8 22 4.72 -0.05
 -8 8 22 -0.29 -0.01
 -6 8 22 -0.47 0.01
 -4 8 22 0.60 0.02
 -2 8 22 -5.76 0.02
 0 8 22 3.93 -0.02
 2 8 22 -1.28 -0.01
 4 8 22 -3.39 0.00
 6 8 22 -4.73 0.02
 8 8 22 2.10 0.03
 10 8 22 4.51 0.05
 12 8 22 -2.18 -0.02
 -13 9 22 -1.76 -0.01
 -11 9 22 -0.85 0.01
 -9 9 22 -2.97 0.02
 -7 9 22 0.53 0.00
 -5 9 22 1.86 0.00
 -3 9 22 2.84 -0.02
 -1 9 22 -8.80 0.00
 1 9 22 3.41 0.04
 3 9 22 3.26 0.02
 5 9 22 2.10 -0.04
 7 9 22 -6.97 -0.04
 9 9 22 -0.09 0.01
 11 9 22 0.88 0.00
 -12 10 22 -0.67 -0.01
 -10 10 22 -2.81 0.08
 -8 10 22 -2.52 -0.01
 -6 10 22 3.16 -0.02
 -4 10 22 0.57 0.00
 -2 10 22 -0.92 -0.01
 0 10 22 -8.32 0.01
 2 10 22 3.31 0.05
 4 10 22 3.77 0.01
 6 10 22 -7.75 -0.01
 8 10 22 -4.82 -0.01
 10 10 22 -3.89 -0.05
 -11 11 22 -0.42 0.07
 -9 11 22 1.39 -0.02
 -7 11 22 -4.04 -0.01
 -5 11 22 -0.11 0.03
 -3 11 22 4.40 0.04
 -1 11 22 5.57 -0.01
 1 11 22 -0.56 -0.05
 3 11 22 2.48 -0.03
 5 11 22 -2.93 0.03
 7 11 22 3.73 0.05
 9 11 22 6.42 0.02
 11 11 22 1.78 0.01
 -10 12 22 -1.81 0.06
 -8 12 22 -5.08 0.02
 -6 12 22 -0.37 0.01
 -4 12 22 3.26 -0.01
 -2 12 22 -0.71 0.00
 0 12 22 3.48 0.01
 2 12 22 -1.30 0.01
 4 12 22 -1.62 0.01
 6 12 22 4.45 0.00
 8 12 22 0.31 -0.03
 10 12 22 0.95 0.02
 -9 13 22 -1.69 0.01
 -7 13 22 5.76 -0.03
 -5 13 22 1.49 -0.05
 -3 13 22 -5.20 -0.05
 -1 13 22 3.04 0.01
 1 13 22 1.17 0.03
 3 13 22 -1.39 0.03
 5 13 22 -0.99 -0.01
 7 13 22 -2.73 -0.04
 9 13 22 0.44 -0.04
 -8 14 22 4.10 -0.01
 -6 14 22 -2.17 0.02
 -4 14 22 -1.94 0.09
 -2 14 22 5.27 0.00
 0 14 22 3.26 -0.03
 2 14 22 3.56 -0.01
 4 14 22 3.43 0.01
 6 14 22 1.35 0.03
 -7 15 22 -2.91 0.01
 -5 15 22 -2.56 0.01
 -3 15 22 5.08 0.01
 -1 15 22 -2.73 -0.01
 1 15 22 -0.17 -0.01
 3 15 22 -6.24 0.00
 5 15 22 -3.68 -0.01
 -4 16 22 -0.81 -0.09
 -2 16 22 2.56 -0.01
 0 16 22 -0.50 0.02
 2 16 22 -2.38 0.02
 -16 1 23 3.33 0.03
 -14 1 23 7.47 0.03
 -12 1 23 3.80 0.03
 -10 1 23 -8.38 -0.02
 -8 1 23 5.34 -0.03
 -6 1 23 8.94 0.00
 -4 1 23 5.38 0.01
 -2 1 23 -7.36 0.05
 0 1 23 2.72 0.04
 2 1 23 -2.61 -0.04
 4 1 23 3.87 -0.03
 6 1 23 3.52 -0.01
 8 1 23 1.25 0.02
 10 1 23 -2.17 0.05
 12 1 23 2.06 0.01
 14 1 23 0.63 -0.04
 -15 2 23 -1.49 -0.03
 -13 2 23 1.25 -0.07
 -11 2 23 -5.50 0.02
 -9 2 23 -0.64 0.03
 -7 2 23 3.16 0.02
 -5 2 23 7.99 -0.01
 -3 2 23 -2.92 -0.04
 -1 2 23 0.46 -0.01
 1 2 23 1.86 0.01
 3 2 23 0.36 0.01
 5 2 23 0.22 0.01
 7 2 23 -0.32 0.02
 9 2 23 -3.03 -0.03
 11 2 23 -2.55 -0.02
 13 2 23 2.52 0.01
 -16 3 23 0.50 -0.01
 -14 3 23 -0.48 0.00
 -12 3 23 -2.50 0.00
 -10 3 23 0.39 0.02
 -8 3 23 -1.10 0.01
 -6 3 23 2.26 0.01
 -4 3 23 1.96 -0.01
 -2 3 23 2.44 -0.02
 0 3 23 -5.70 0.00
 2 3 23 -0.17 0.00
 4 3 23 3.74 0.01
 6 3 23 2.08 0.01
 8 3 23 -0.14 0.00
 10 3 23 0.11 -0.02
 12 3 23 0.71 -0.01
 14 3 23 0.30 0.02
 -15 4 23 5.62 0.06
 -13 4 23 -0.39 0.06
 -11 4 23 -1.57 -0.02
 -9 4 23 -6.75 -0.05
 -7 4 23 0.67 -0.02
 -5 4 23 -3.16 0.01
 -3 4 23 -1.26 0.05
 -1 4 23 -4.16 0.05
 1 4 23 1.23 0.01
 3 4 23 0.01 -0.03
 5 4 23 1.06 -0.03
 7 4 23 -2.44 0.01
 9 4 23 -0.66 0.04
 11 4 23 0.80 0.05
 13 4 23 -2.05 -0.01
 -14 5 23 1.45 -0.03
 -12 5 23 2.12 0.00
 -10 5 23 2.99 0.01
 -8 5 23 -2.94 0.03
 -6 5 23 3.79 0.01
 -4 5 23 -1.28 0.00
 -2 5 23 -3.31 -0.02
 0 5 23 -0.52 -0.01
 2 5 23 2.98 0.00
 4 5 23 -2.42 0.02
 6 5 23 -0.79 0.00
 8 5 23 -2.53 -0.01
 10 5 23 -4.08 -0.03
 12 5 23 -0.98 0.00
 14 5 23 -0.29 0.02
 -15 6 23 -3.76 -0.04
 -13 6 23 1.01 0.00
 -11 6 23 -1.79 0.02
 -9 6 23 -0.88 0.00
 -7 6 23 -3.41 0.00
 -5 6 23 -1.67 0.01
 -3 6 23 2.75 -0.02
 -1 6 23 2.68 -0.04
 1 6 23 -1.26 -0.01
 3 6 23 3.39 0.02
 5 6 23 -0.35 0.01
 7 6 23 4.28 -0.02
 9 6 23 4.11 -0.01
 11 6 23 1.18 -0.03
 13 6 23 2.26 0.01
 -14 7 23 -2.57 0.02
 -12 7 23 2.97 0.01
 -10 7 23 -2.27 -0.04
 -8 7 23 -1.93 -0.04
 -6 7 23 -0.46 -0.01
 -4 7 23 4.43 0.01
 -2 7 23 -4.37 0.04
 0 7 23 4.19 0.00
 2 7 23 -0.22 0.00
 4 7 23 -1.44 -0.02
 6 7 23 -7.23 0.00
 8 7 23 -0.24 0.02
 10 7 23 3.41 0.05
 12 7 23 -0.79 0.00
 -13 8 23 -1.10 0.00
 -11 8 23 -0.75 0.00
 -9 8 23 -4.06 0.02
 -7 8 23 1.22 0.01
 -5 8 23 4.71 0.00
 -3 8 23 2.14 -0.01
 -1 8 23 -4.22 0.00
 1 8 23 4.69 0.00
 3 8 23 1.95 0.01
 5 8 23 -0.66 -0.02
 7 8 23 -7.65 -0.02
 9 8 23 -2.34 0.00
 11 8 23 3.21 0.00
 -12 9 23 -2.34 -0.05
 -10 9 23 -5.93 0.07
 -8 9 23 -4.55 0.02
 -6 9 23 3.43 0.00
 -4 9 23 -1.56 0.00
 -2 9 23 1.70 -0.02
 0 9 23 -5.42 -0.01
 2 9 23 3.07 0.03
 4 9 23 1.21 0.03
 6 9 23 -1.76 0.01
 8 9 23 -3.11 -0.01
 10 9 23 -5.48 -0.07
 12 9 23 0.82 0.00
 -13 10 23 1.37 0.02
 -11 10 23 -0.66 0.10
 -9 10 23 0.91 -0.04
 -7 10 23 -0.27 -0.03
 -5 10 23 0.52 0.00
 -3 10 23 2.75 0.03
 -1 10 23 8.92 0.01
 1 10 23 -0.81 -0.04
 3 10 23 -0.33 -0.04
 5 10 23 -4.52 0.01
 7 10 23 4.45 0.03
 9 10 23 4.60 0.01
 11 10 23 0.20 0.02
 -12 11 23 0.21 0.01
 -10 11 23 -2.36 -0.01
 -8 11 23 0.09 0.01
 -6 11 23 -4.20 0.02
 -4 11 23 1.27 0.00
 -2 11 23 4.34 0.01
 0 11 23 6.77 0.00
 2 11 23 -3.39 -0.02
 4 11 23 -2.48 -0.01
 6 11 23 8.53 0.00
 8 11 23 2.39 -0.04
 10 11 23 2.36 0.05
 -11 12 23 1.03 -0.09
 -9 12 23 -1.25 0.03
 -7 12 23 3.86 0.02
 -5 12 23 1.29 -0.03
 -3 12 23 -6.48 -0.06
 -1 12 23 -0.85 -0.01
 1 12 23 2.00 0.02
 3 12 23 -5.61 0.03
 5 12 23 0.54 0.01
 7 12 23 -4.60 -0.03
 9 12 23 -6.10 -0.04
 -10 13 23 0.61 -0.04
 -8 13 23 4.19 -0.03
 -6 13 23 -1.61 -0.01
 -4 13 23 -2.17 0.03
 -2 13 23 5.71 0.01
 0 13 23 2.03 0.00
 2 13 23 1.59 -0.01
 4 13 23 1.98 -0.01
 6 13 23 -3.22 -0.01
 8 13 23 3.79 0.02
 -7 14 23 -3.50 0.00
 -5 14 23 -3.28 0.02
 -3 14 23 4.98 0.04
 -1 14 23 -2.85 0.01
 1 14 23 -1.78 -0.01
 3 14 23 -1.15 -0.03
 5 14 23 -2.76 -0.02
 7 14 23 0.67 0.01
 -6 15 23 0.55 -0.01
 -4 15 23 -0.45 -0.10
 -2 15 23 -1.40 -0.03
 0 15 23 -1.44 0.01
 2 15 23 -1.67 0.00
 4 15 23 -2.73 0.01
 -3 16 23 -4.19 0.01
 -1 16 23 1.50 0.02
 1 16 23 -1.56 0.01
 -16 0 24 2.53 0.01
 -14 0 24 5.80 0.03
 -12 0 24 3.78 0.06
 -10 0 24 -8.98 0.00
 -8 0 24 7.88 -0.04
 -6 0 24 11.82 -0.02
 -4 0 24 3.06 -0.01
 -2 0 24 -7.19 0.05
 0 0 24 3.69 0.05
 2 0 24 -4.16 -0.02
 4 0 24 5.64 -0.01
 6 0 24 4.96 -0.03
 8 0 24 1.65 -0.01
 10 0 24 -3.01 0.05
 12 0 24 1.94 0.04
 14 0 24 -0.62 -0.02
 -15 1 24 -0.79 -0.01
 -13 1 24 1.26 -0.04
 -11 1 24 -4.72 0.00
 -9 1 24 -1.63 0.01
 -7 1 24 3.19 0.01
 -5 1 24 3.09 0.00
 -3 1 24 -4.05 -0.01
 -1 1 24 0.57 -0.01
 1 1 24 3.43 -0.03
 3 1 24 0.93 0.01
 5 1 24 0.15 0.01
 7 1 24 -1.34 0.02
 9 1 24 -1.48 -0.01
 11 1 24 -0.13 -0.01
 13 1 24 0.99 -0.01
 -16 2 24 -4.01 -0.02
 -14 2 24 -3.79 -0.02
 -12 2 24 -2.00 -0.03
 -10 2 24 4.79 0.00
 -8 2 24 -3.93 0.03
 -6 2 24 -0.55 0.02
 -4 2 24 -0.06 0.01
 -2 2 24 3.87 -0.03
 0 2 24 -4.06 -0.06
 2 2 24 2.72 0.00
 4 2 24 0.57 0.04
 6 2 24 -1.64 0.03
 8 2 24 -1.50 0.01
 10 2 24 2.36 -0.03
 12 2 24 -1.09 -0.02
 14 2 24 -2.24 0.01
 -15 3 24 2.22 0.04
 -13 3 24 0.06 0.10
 -11 3 24 2.49 0.00
 -9 3 24 -6.46 -0.04
 -7 3 24 -4.00 -0.03
 -5 3 24 -7.05 -0.01
 -3 3 24 1.55 0.03
 -1 3 24 -2.34 0.04
 1 3 24 -1.63 0.01
 3 3 24 1.00 -0.01
 5 3 24 0.76 -0.03
 7 3 24 -1.87 -0.05
 9 3 24 0.89 0.02
 11 3 24 3.27 0.06
 13 3 24 -2.98 0.03
 -14 4 24 0.62 -0.01
 -12 4 24 3.65 -0.02
 -10 4 24 1.12 -0.02
 -8 4 24 -3.64 0.01
 -6 4 24 -0.74 0.01
 -4 4 24 -0.50 0.01
 -2 4 24 -1.97 0.00
 0 4 24 3.48 -0.03
 2 4 24 1.59 -0.01
 4 4 24 -3.91 0.01
 6 4 24 -1.51 0.00
 8 4 24 -1.20 -0.01
 10 4 24 -1.69 -0.01
 12 4 24 -0.58 0.00
 -15 5 24 -7.08 -0.04
 -13 5 24 1.50 -0.04
 -11 5 24 1.75 0.00
 -9 5 24 3.13 0.01
 -7 5 24 -0.97 0.02
 -5 5 24 -0.12 0.02
 -3 5 24 2.53 -0.02
 -1 5 24 5.91 -0.07
 1 5 24 0.78 -0.04
 3 5 24 -0.16 0.03
 5 5 24 -1.18 0.04
 7 5 24 3.68 0.01
 9 5 24 4.62 -0.01
 11 5 24 1.11 -0.05
 13 5 24 1.25 -0.02
 -14 6 24 -4.14 0.03
 -12 6 24 0.73 0.02
 -10 6 24 -5.74 -0.02
 -8 6 24 0.08 -0.04
 -6 6 24 -3.93 -0.02
 -4 6 24 1.50 -0.01
 -2 6 24 -1.33 0.04
 0 6 24 2.87 0.01
 2 6 24 -1.31 0.01
 4 6 24 -0.09 -0.02
 6 6 24 -5.19 -0.02
 8 6 24 -0.59 0.00
 10 6 24 3.87 0.04
 12 6 24 0.64 0.02
 -13 7 24 -1.71 0.01
 -11 7 24 0.06 -0.01
 -9 7 24 0.18 0.01
 -7 7 24 2.30 0.01
 -5 7 24 5.86 -0.01
 -3 7 24 0.90 0.01
 -1 7 24 -1.21 0.01
 1 7 24 2.40 -0.02
 3 7 24 0.33 0.00
 5 7 24 -0.42 0.00
 7 7 24 -5.76 -0.01
 9 7 24 -4.44 -0.01
 11 7 24 3.43 0.01
 -14 8 24 0.62 -0.02
 -12 8 24 -3.40 -0.07
 -10 8 24 -1.43 0.01
 -8 8 24 -1.94 0.04
 -6 8 24 0.80 0.03
 -4 8 24 -7.36 0.02
 -2 8 24 4.55 -0.03
 0 8 24 -2.99 -0.05
 2 8 24 -0.09 -0.01
 4 8 24 -0.85 0.04
 6 8 24 5.83 0.03
 8 8 24 -0.68 0.00
 10 8 24 -4.68 -0.06
 12 8 24 2.03 -0.03
 -13 9 24 0.41 0.01
 -11 9 24 0.58 0.06
 -9 9 24 2.29 -0.03
 -7 9 24 0.37 -0.02
 -5 9 24 -1.61 -0.01
 -3 9 24 1.20 0.01
 -1 9 24 6.04 0.02
 1 9 24 -3.23 -0.02
 3 9 24 -3.71 -0.02
 5 9 24 -0.41 0.00
 7 9 24 5.53 0.02
 9 9 24 1.77 0.00
 11 9 24 -3.24 0.01
 -12 10 24 -0.13 0.05
 -10 10 24 0.86 -0.05
 -8 10 24 4.86 0.00
 -6 10 24 -6.21 0.00
 -4 10 24 1.77 -0.02
 -2 10 24 5.44 0.01
 0 10 24 6.11 0.02
 2 10 24 -5.16 -0.02
 4 10 24 0.03 -0.02
 6 10 24 7.63 -0.02
 8 10 24 1.94 -0.04
 10 10 24 4.41 0.07
 -11 11 24 0.70 -0.22
 -9 11 24 -0.01 0.03
 -7 11 24 -0.21 0.05
 -5 11 24 0.04 0.00
 -3 11 24 -6.97 -0.03
 -1 11 24 -6.44 -0.02
 1 11 24 0.35 0.00
 3 11 24 -5.62 0.02
 5 11 24 3.46 0.01
 7 11 24 -3.10 0.00
 9 11 24 -9.23 -0.01
 -10 12 24 2.59 -0.02
 -8 12 24 0.99 -0.01
 -6 12 24 2.43 -0.01
 -4 12 24 0.00 -0.01
 -2 12 24 -0.51 0.00
 0 12 24 -0.89 0.00
 2 12 24 2.01 0.00
 4 12 24 1.67 -0.01
 6 12 24 -6.52 -0.01
 8 12 24 0.46 0.05
 -9 13 24 -0.32 -0.02
 -7 13 24 -2.60 -0.01
 -5 13 24 -2.97 0.01
 -3 13 24 4.63 0.05
 -1 13 24 -2.16 0.03
 1 13 24 -3.15 0.00
 3 13 24 3.91 -0.03
 5 13 24 -1.21 -0.03
 7 13 24 3.84 0.00
 -8 14 24 -1.77 0.03
 -6 14 24 3.04 0.02
 -4 14 24 0.96 -0.05
 -2 14 24 -6.43 -0.03
 0 14 24 -3.42 -0.01
 2 14 24 0.61 -0.02
 4 14 24 -3.36 0.01
 6 14 24 2.69 0.02
 -5 15 24 2.63 0.00
 -3 15 24 -4.40 -0.01
 -1 15 24 1.45 0.00
 1 15 24 0.19 0.01
 3 15 24 1.93 0.00
 -14 1 25 -3.61 -0.01
 -12 1 25 -1.44 -0.07
 -10 1 25 6.91 -0.02
 -8 1 25 -8.40 0.03
 -6 1 25 -6.05 0.03
 -4 1 25 0.10 0.03
 -2 1 25 4.85 -0.03
 0 1 25 -4.22 -0.06
 2 1 25 4.18 -0.02
 4 1 25 -2.73 0.01
 6 1 25 -4.55 0.03
 8 1 25 -1.84 0.04
 10 1 25 3.78 -0.02
 12 1 25 -1.57 -0.04
 14 1 25 -0.75 -0.01
 -15 2 25 0.07 0.01
 -13 2 25 -0.89 0.08
 -11 2 25 5.61 0.02
 -9 2 25 -2.26 -0.01
 -7 2 25 -6.30 -0.02
 -5 2 25 -4.69 -0.02
 -3 2 25 5.06 0.00
 -1 2 25 -1.56 0.01
 1 2 25 -4.42 0.04
 3 2 25 -0.10 0.02
 5 2 25 -0.09 -0.01
 7 2 25 -0.17 -0.06
 9 2 25 2.00 -0.01
 11 2 25 1.59 0.03
 13 2 25 -3.22 0.04
 -14 3 25 2.06 0.00
 -12 3 25 3.50 0.00
 -10 3 25 -1.65 0.00
 -8 3 25 -0.83 -0.01
 -6 3 25 -5.64 -0.02
 -4 3 25 -1.09 -0.01
 -2 3 25 -1.20 0.00
 0 3 25 3.03 0.01
 2 3 25 -1.08 0.01
 4 3 25 -3.55 -0.01
 6 3 25 0.08 -0.02
 8 3 25 1.27 -0.02
 10 3 25 -1.19 0.01
 12 3 25 -0.05 0.02
 -15 4 25 -6.08 -0.03
 -13 4 25 0.31 -0.08
 -11 4 25 2.29 -0.02
 -9 4 25 8.54 0.01
 -7 4 25 2.77 0.02
 -5 4 25 3.64 0.03
 -3 4 25 1.31 0.00
 -1 4 25 6.68 -0.05
 1 4 25 2.10 -0.04
 3 4 25 -2.89 0.01
 5 4 25 -1.47 0.04
 7 4 25 3.70 0.06
 9 4 25 4.08 0.01
 11 4 25 -0.99 -0.05
 13 4 25 0.18 -0.05
 -14 5 25 -4.47 0.01
 -12 5 25 -1.46 0.03
 -10 5 25 -2.34 0.02
 -8 5 25 3.59 -0.03
 -6 5 25 -4.44 -0.03
 -4 5 25 -3.80 -0.02
 -2 5 25 -0.28 0.02
 0 5 25 0.08 0.02
 2 5 25 -2.16 0.03
 4 5 25 1.26 -0.01
 6 5 25 -1.99 -0.03
 8 5 25 -0.61 -0.02
 10 5 25 2.76 0.01
 12 5 25 0.30 0.02
 -13 6 25 -2.87 0.02
 -11 6 25 -0.77 0.01
 -9 6 25 2.52 0.02
 -7 6 25 -0.03 0.00
 -5 6 25 3.02 -0.03
 -3 6 25 1.39 0.00
 -1 6 25 -3.06 0.03
 1 6 25 -1.78 0.01
 3 6 25 0.99 0.00
 5 6 25 0.84 -0.01
 7 6 25 -3.97 -0.02
 9 6 25 -4.99 -0.01
 11 6 25 0.86 0.02
 13 6 25 -0.90 0.02
 -14 7 25 2.91 -0.01
 -12 7 25 -2.28 -0.06
 -10 7 25 6.35 -0.01
 -8 7 25 0.88 0.04
 -6 7 25 0.31 0.03
 -4 7 25 -7.84 0.04
 -2 7 25 4.65 -0.02
 0 7 25 -1.87 -0.04
 2 7 25 -1.33 -0.03
 4 7 25 -0.27 0.03
 6 7 25 7.67 0.04
 8 7 25 1.39 0.02
 10 7 25 -3.03 -0.03
 12 7 25 0.57 -0.04
 -13 8 25 0.10 -0.02
 -11 8 25 2.30 0.00
 -9 8 25 1.39 -0.01
 -7 8 25 -1.41 -0.02
 -5 8 25 -5.65 0.00
 -3 8 25 -0.83 0.00
 -1 8 25 0.57 0.01
 1 8 25 -3.89 0.01
 3 8 25 -3.80 -0.01
 5 8 25 2.48 -0.01
 7 8 25 5.14 0.01
 9 8 25 1.84 0.01
 11 8 25 -6.07 0.00
 -12 9 25 2.34 0.08
 -10 9 25 2.62 0.01
 -8 9 25 5.11 -0.01
 -6 9 25 -4.54 -0.03
 -4 9 25 7.01 -0.04
 -2 9 25 2.34 0.00
 0 9 25 2.83 0.04
 2 9 25 -2.84 0.01
 4 9 25 3.68 -0.02
 6 9 25 1.09 -0.03
 8 9 25 0.65 -0.04
 10 9 25 5.43 0.05
 -11 10 25 0.86 -0.21
 -9 10 25 0.68 0.01
 -7 10 25 -2.24 0.04
 -5 10 25 -1.75 0.02
 -3 10 25 -7.35 0.00
 -1 10 25 -7.20 -0.02
 1 10 25 0.50 0.00
 3 10 25 -0.63 0.01
 5 10 25 1.59 0.01
 7 10 25 -2.70 0.01
 9 10 25 -5.55 0.01
 -10 11 25 3.41 0.01
 -8 11 25 -3.35 -0.01
 -6 11 25 5.60 0.00
 -4 11 25 1.13 0.00
 -2 11 25 -6.28 0.00
 0 11 25 -3.08 -0.01
 2 11 25 4.44 0.00
 4 11 25 0.77 0.00
 6 11 25 -7.50 0.01
 8 11 25 -0.77 0.07
 -9 12 25 -1.13 -0.01
 -7 12 25 0.19 -0.04
 -5 12 25 -2.35 -0.01
 -3 12 25 4.66 0.02
 -1 12 25 1.87 0.02
 1 12 25 -1.54 0.02
 3 12 25 7.21 0.01
 5 12 25 -1.09 -0.02
 7 12 25 2.88 -0.01
 -8 13 25 -1.05 0.01
 -6 13 25 1.51 0.02
 -4 13 25 -0.02 0.01
 -2 13 25 -5.06 -0.01
 0 13 25 -4.56 -0.01
 2 13 25 1.36 -0.01
 4 13 25 -1.57 0.00
 6 13 25 5.40 0.03
 -7 14 25 0.56 0.02
 -5 14 25 3.04 0.02
 -3 14 25 -2.55 -0.02
 -1 14 25 2.61 -0.03
 1 14 25 1.76 0.00
 3 14 25 -1.20 0.01
 5 14 25 2.83 0.02
 -4 15 25 0.78 0.03
 -2 15 25 1.88 0.03
 0 15 25 2.25 0.02
 2 15 25 -2.87 0.04
 -14 0 26 -1.74 0.02
 -12 0 26 0.12 -0.07
 -10 0 26 6.21 -0.04
 -8 0 26 -11.49 0.01
 -6 0 26 -6.19 0.03
 -4 0 26 1.86 0.04
 -2 0 26 3.41 -0.01
 0 0 26 -6.12 -0.02
 2 0 26 3.51 -0.04
 4 0 26 -2.98 -0.03
 6 0 26 -5.29 0.02
 8 0 26 -1.53 0.06
 10 0 26 3.55 0.00
 12 0 26 -0.96 -0.03
 -15 1 26 0.25 0.00
 -13 1 26 -1.64 0.03
 -11 1 26 3.41 0.01
 -9 1 26 -0.09 0.01
 -7 1 26 -4.80 0.00
 -5 1 26 0.38 -0.01
 -3 1 26 5.10 -0.01
 -1 1 26 -2.23 0.01
 1 1 26 -3.71 0.04
 3 1 26 -0.59 0.01
 5 1 26 -0.50 0.01
 7 1 26 0.21 -0.03
 9 1 26 0.97 -0.01
 11 1 26 -0.26 0.00
 13 1 26 -1.61 0.02
 -14 2 26 2.55 -0.01
 -12 2 26 1.49 0.03
 -10 2 26 -3.59 0.04
 -8 2 26 4.91 -0.01
 -6 2 26 -3.84 -0.03
 -4 2 26 -1.78 -0.03
 -2 2 26 -2.13 0.00
 0 2 26 1.45 0.04
 2 2 26 -3.00 0.04
 4 2 26 -1.35 -0.01
 6 2 26 3.11 -0.02
 8 2 26 1.96 -0.04
 10 2 26 -3.11 -0.01
 12 2 26 0.90 0.02
 -15 3 26 -2.27 0.00
 -13 3 26 -0.12 -0.07
 -11 3 26 -1.04 -0.03
 -9 3 26 7.98 -0.01
 -7 3 26 5.57 0.00
 -5 3 26 4.59 0.03
 -3 3 26 -1.15 0.02
 -1 3 26 5.23 0.00
 1 3 26 2.80 -0.03
 3 3 26 -2.76 -0.03
 5 3 26 -0.53 0.01
 7 3 26 2.94 0.09
 9 3 26 1.05 0.04
 11 3 26 -1.71 -0.02
 13 3 26 1.97 -0.06
 -14 4 26 -4.31 -0.01
 -12 4 26 -3.68 0.02
 -10 4 26 2.00 0.02
 -8 4 26 4.06 -0.02
 -6 4 26 1.91 -0.01
 -4 4 26 -3.72 -0.01
 -2 4 26 -1.58 0.01
 0 4 26 -1.01 0.03
 2 4 26 -1.02 0.01
 4 4 26 2.56 -0.01
 6 4 26 -0.41 0.00
 8 4 26 -2.45 0.00
 10 4 26 -0.05 0.00
 12 4 26 0.48 0.00
 -13 5 26 -2.82 0.03
 -11 5 26 -3.08 0.03
 -9 5 26 -2.00 0.02
 -7 5 26 -2.70 -0.01
 -5 5 26 -1.15 -0.03
 -3 5 26 1.27 -0.03
 -1 5 26 -7.06 0.03
 1 5 26 -4.03 0.04
 3 5 26 3.50 0.01
 5 5 26 1.74 -0.02
 7 5 26 -3.56 -0.05
 9 5 26 -5.45 -0.03
 11 5 26 -0.98 0.01
 -14 6 26 5.56 0.00
 -12 6 26 -0.75 -0.03
 -10 6 26 6.12 -0.02
 -8 6 26 -0.15 0.02
 -6 6 26 3.23 0.03
 -4 6 26 0.09 0.04
 -2 6 26 3.32 0.00
 0 6 26 -1.20 -0.02
 2 6 26 0.31 -0.04
 4 6 26 0.79 0.00
 6 6 26 4.08 0.03
 8 6 26 2.30 0.04
 10 6 26 -1.82 0.01
 12 6 26 -0.07 -0.03
 -13 7 26 1.24 -0.02
 -11 7 26 2.20 -0.01
 -9 7 26 -2.49 -0.01
 -7 7 26 0.25 -0.02
 -5 7 26 -5.05 0.01
 -3 7 26 -4.62 0.01
 -1 7 26 -2.03 0.01
 1 7 26 -0.17 0.02
 3 7 26 -1.90 -0.01
 5 7 26 1.42 -0.03
 7 7 26 3.91 0.01
 9 7 26 2.26 0.02
 11 7 26 -5.18 0.00
 -12 8 26 2.75 0.07
 -10 8 26 -2.71 0.06
 -8 8 26 1.10 -0.01
 -6 8 26 -0.76 -0.03
 -4 8 26 11.97 -0.05
 -2 8 26 -0.79 -0.01
 0 8 26 0.48 0.05
 2 8 26 1.35 0.04
 4 8 26 3.18 -0.01
 6 8 26 -4.53 -0.03
 8 8 26 -0.01 -0.03
 10 8 26 3.94 0.01
 -11 9 26 -0.83 -0.08
 -9 9 26 0.35 0.00
 -7 9 26 0.08 0.01
 -5 9 26 0.08 0.02
 -3 9 26 -6.11 0.02
 -1 9 26 -2.62 -0.01
 1 9 26 2.98 0.00
 3 9 26 3.47 -0.01
 5 9 26 -3.62 0.01
 7 9 26 -3.64 0.01
 9 9 26 -0.92 0.01
 11 9 26 4.47 -0.01
 -12 10 26 -0.15 -0.03
 -10 10 26 0.79 -0.01
 -8 10 26 -5.11 -0.02
 -6 10 26 5.71 0.01
 -4 10 26 -2.20 0.04
 -2 10 26 -6.46 0.01
 0 10 26 -1.77 -0.01
 2 10 26 5.25 -0.01
 4 10 26 -2.77 0.00
 6 10 26 -5.26 0.01
 8 10 26 0.82 0.07
 10 10 26 -4.16 -0.03
 -11 11 26 0.76 0.30
 -9 11 26 -1.53 0.02
 -7 11 26 2.54 -0.04
 -5 11 26 -0.13 -0.01
 -3 11 26 6.93 -0.02
 -1 11 26 5.58 0.00
 1 11 26 1.10 0.03
 3 11 26 5.22 0.03
 5 11 26 -1.18 0.00
 7 11 26 1.27 -0.03
 9 11 26 8.02 -0.03
 -10 12 26 -2.82 -0.02
 -8 12 26 1.72 -0.02
 -6 12 26 -2.05 0.00
 -4 12 26 -2.68 0.03
 -2 12 26 1.01 0.00
 0 12 26 -3.04 0.00
 2 12 26 -0.14 0.01
 4 12 26 -1.10 0.00
 6 12 26 5.10 0.01
 8 12 26 0.03 -0.05
 -7 13 26 -0.59 0.02
 -5 13 26 1.77 0.03
 -3 13 26 0.23 0.00
 -1 13 26 2.73 -0.02
 1 13 26 1.34 -0.02
 3 13 26 -3.88 -0.02
 5 13 26 0.78 0.01
 -6 14 26 -3.29 -0.02
 -4 14 26 -0.48 -0.01
 -2 14 26 5.03 0.01
 0 14 26 5.58 0.01
 2 14 26 -4.55 0.04
 4 14 26 2.57 0.02
 -3 15 26 2.11 0.00
 -1 15 26 -2.07 0.01
 1 15 26 1.16 0.00
 -14 1 27 1.13 -0.04
 -12 1 27 -0.95 0.04
 -10 1 27 -3.87 0.05
 -8 1 27 10.10 0.01
 -6 1 27 -0.05 -0.02
 -4 1 27 -2.83 -0.03
 -2 1 27 -1.61 -0.02
 0 1 27 3.53 0.00
 2 1 27 -2.25 0.05
 4 1 27 0.76 0.03
 6 1 27 4.91 0.00
 8 1 27 0.72 -0.05
 10 1 27 -3.46 -0.03
 12 1 27 1.10 0.00
 -15 2 27 -0.89 0.01
 -13 2 27 1.17 -0.03
 -11 2 27 -2.42 -0.02
 -9 2 27 3.88 -0.03
 -7 2 27 6.73 -0.01
 -5 2 27 0.18 0.02
 -3 2 27 -4.37 0.02
 -1 2 27 5.64 0.02
 1 2 27 2.84 -0.03
 3 2 27 -1.17 -0.04
 5 2 27 0.84 -0.02
 7 2 27 1.87 0.05
 9 2 27 -0.67 0.03
 11 2 27 0.01 0.01
 13 2 27 2.88 -0.03
 -14 3 27 -3.32 0.01
 -12 3 27 -3.63 0.01
 -10 3 27 2.95 -0.01
 -8 3 27 -0.04 -0.01
 -6 3 27 6.78 0.01
 -4 3 27 -0.07 0.01
 -2 3 27 -1.58 0.02
 0 3 27 0.87 0.01
 2 3 27 1.14 -0.02
 4 3 27 2.89 -0.01
 6 3 27 -1.58 0.01
 8 3 27 -3.91 0.03
 10 3 27 -0.37 0.01
 12 3 27 0.89 0.00
 -13 4 27 -1.68 0.02
 -11 4 27 -3.63 0.02
 -9 4 27 -7.19 0.03
 -7 4 27 -2.64 0.02
 -5 4 27 -2.90 -0.02
 -3 4 27 -0.32 -0.05
 -1 4 27 -8.74 -0.02
 1 4 27 -2.68 0.02
 3 4 27 4.88 0.02
 5 4 27 1.66 0.01
 7 4 27 -3.66 -0.06
 9 4 27 -4.14 -0.05
 11 4 27 -0.44 -0.01
 -14 5 27 6.78 0.02
 -12 5 27 1.26 -0.02
 -10 5 27 -1.37 -0.02
 -8 5 27 -2.55 0.01
 -6 5 27 3.27 0.02
 -4 5 27 6.09 0.02
 -2 5 27 3.72 0.01
 0 5 27 -0.17 -0.01
 2 5 27 1.70 -0.04
 4 5 27 0.56 -0.01
 6 5 27 0.25 0.02
 8 5 27 3.34 0.04
 10 5 27 0.97 0.02
 12 5 27 0.37 -0.02
 -13 6 27 3.04 0.00
 -11 6 27 1.53 -0.02
 -9 6 27 -3.43 -0.03
 -7 6 27 4.51 -0.02
 -5 6 27 0.11 0.02
 -3 6 27 -7.12 0.02
 -1 6 27 0.33 0.02
 1 6 27 4.05 0.00
 3 6 27 -1.74 -0.02
 5 6 27 -0.75 -0.03
 7 6 27 3.30 0.02
 9 6 27 1.86 0.03
 11 6 27 -1.10 0.01
 -12 7 27 0.72 0.03
 -10 7 27 -8.05 0.04
 -8 7 27 -1.73 0.01
 -6 7 27 0.94 -0.01
 -4 7 27 8.64 -0.05
 -2 7 27 -1.89 -0.02
 0 7 27 0.56 0.02
 2 7 27 2.46 0.03
 4 7 27 -0.31 0.02
 6 7 27 -3.31 -0.01
 8 7 27 -0.52 -0.04
 10 7 27 1.65 -0.03
 -13 8 27 1.79 0.03
 -11 8 27 -2.63 0.01
 -9 8 27 0.85 0.00
 -7 8 27 1.58 0.02
 -5 8 27 2.88 0.00
 -3 8 27 -0.95 0.01
 -1 8 27 2.82 -0.02
 1 8 27 2.75 -0.01
 3 8 27 2.29 0.00
 5 8 27 -5.21 0.03
 7 8 27 -4.43 0.00
 9 8 27 0.72 -0.01
 11 8 27 6.76 0.00
 -12 9 27 -2.52 -0.03
 -10 9 27 -0.15 -0.07
 -8 9 27 -2.48 -0.03
 -6 9 27 3.73 0.01
 -4 9 27 -8.16 0.05
 -2 9 27 -3.82 0.04
 0 9 27 0.64 -0.01
 2 9 27 1.71 -0.02
 4 9 27 -4.30 -0.02
 6 9 27 -0.25 0.00
 8 9 27 0.94 0.04
 10 9 27 -4.32 0.01
 -11 10 27 -0.48 0.20
 -9 10 27 -1.68 0.04
 -7 10 27 1.16 0.00
 -5 10 27 2.02 0.00
 -3 10 27 10.03 -0.04
 -1 10 27 4.98 -0.01
 1 10 27 0.39 0.01
 3 10 27 -0.24 0.03
 5 10 27 2.21 0.01
 7 10 27 2.39 -0.02
 9 10 27 3.10 -0.03
 -10 11 27 -3.00 0.00
 -8 11 27 3.96 0.00
 -6 11 27 -2.92 0.00
 -4 11 27 -2.15 0.00
 -2 11 27 3.87 -0.01
 0 11 27 -2.26 -0.01
 2 11 27 -2.98 0.01
 4 11 27 -0.44 0.01
 6 11 27 3.96 0.00
 8 11 27 -0.86 -0.07
 -9 12 27 2.15 -0.03
 -7 12 27 -1.91 0.01
 -5 12 27 0.70 0.01
 -3 12 27 0.14 0.03
 -1 12 27 0.51 0.02
 1 12 27 -1.25 -0.02
 3 12 27 -4.93 -0.05
 5 12 27 -0.27 -0.02
 7 12 27 -0.88 0.01
 -8 13 27 0.50 0.03
 -6 13 27 -1.73 0.00
 -4 13 27 0.56 -0.04
 -2 13 27 3.18 0.00
 0 13 27 7.33 0.00
 2 13 27 -4.83 0.01
 4 13 27 0.55 0.02
 6 13 27 -4.21 -0.02
 -5 14 27 -0.01 -0.03
 -3 14 27 -1.44 -0.01
 -1 14 27 -4.25 0.01
 1 14 27 0.91 0.00
 3 14 27 1.37 0.01
 -14 0 28 0.31 -0.05
 -12 0 28 -1.83 0.01
 -10 0 28 -2.59 0.03
 -8 0 28 10.89 0.02
 -6 0 28 -0.97 0.00
 -4 0 28 -3.92 -0.02
 -2 0 28 0.70 -0.03
 0 0 28 4.94 -0.05
 2 0 28 -0.23 0.03
 4 0 28 1.38 0.05
 6 0 28 5.18 0.03
 8 0 28 -1.13 -0.03
 10 0 28 -2.63 -0.04
 12 0 28 1.02 -0.02
 -15 1 28 -1.40 0.00
 -13 1 28 1.46 0.00
 -11 1 28 -0.85 0.00
 -9 1 28 1.10 -0.01
 -7 1 28 4.81 -0.01
 -5 1 28 -2.84 0.00
 -3 1 28 -4.04 0.01
 -1 1 28 5.91 0.00
 1 1 28 1.77 -0.02
 3 1 28 -0.38 -0.01
 5 1 28 0.92 -0.02
 7 1 28 1.20 0.01
 9 1 28 0.04 0.01
 11 1 28 1.05 0.02
 13 1 28 1.23 -0.01
 -14 2 28 -1.43 0.04
 -12 2 28 -0.79 0.00
 -10 2 28 1.97 -0.03
 -8 2 28 -5.38 -0.02
 -6 2 28 4.94 0.00
 -4 2 28 2.14 0.01
 -2 2 28 -0.26 0.03
 0 2 28 1.77 0.01
 2 2 28 1.50 -0.03
 4 2 28 1.48 -0.02
 6 2 28 -3.75 -0.01
 8 2 28 -1.96 0.03
 10 2 28 1.24 0.04
 12 2 28 -0.11 0.02
 -13 3 28 -1.11 0.00
 -11 3 28 -2.19 0.00
 -9 3 28 -6.96 0.04
 -7 3 28 -2.68 0.04
 -5 3 28 -0.89 -0.01
 -3 3 28 0.05 -0.03
 -1 3 28 -8.85 -0.05
 1 3 28 0.08 -0.01
 3 3 28 3.74 0.03
 5 3 28 0.04 0.04
 7 3 28 -3.24 -0.05
 9 3 28 -1.11 -0.05
 11 3 28 -0.60 -0.03
 -14 4 28 5.50 0.02
 -12 4 28 3.21 -0.02
 -10 4 28 -5.74 -0.01
 -8 4 28 -1.96 0.02
 -6 4 28 -1.04 0.00
 -4 4 28 3.74 0.00
 -2 4 28 4.80 0.00
 0 4 28 0.04 -0.02
 2 4 28 0.89 -0.01
 4 4 28 -0.91 0.01
 6 4 28 -0.46 0.00
 8 4 28 5.31 0.01
 10 4 28 4.10 0.01
 12 4 28 -0.95 -0.01
 -13 5 28 4.08 0.02
 -11 5 28 2.83 0.00
 -9 5 28 1.08 -0.03
 -7 5 28 4.05 -0.03
 -5 5 28 2.33 0.00
 -3 5 28 -4.56 0.03
 -1 5 28 5.15 0.04
 1 5 28 3.65 0.00
 3 5 28 -3.36 0.00
 5 5 28 -1.92 -0.04
 7 5 28 3.34 0.02
 9 5 28 1.72 0.03
 11 5 28 1.32 0.04
 -12 6 28 -0.90 -0.01
 -10 6 28 -4.06 0.00
 -8 6 28 -1.01 0.02
 -6 6 28 -0.92 0.00
 -4 6 28 -0.06 -0.02
 -2 6 28 -2.39 -0.02
 0 6 28 0.96 -0.02
 2 6 28 0.27 0.02
 4 6 28 -2.75 0.03
 6 6 28 1.62 0.00
 8 6 28 -1.14 -0.04
 10 6 28 -0.82 -0.04
 -13 7 28 0.01 0.01
 -11 7 28 -1.17 0.02
 -9 7 28 2.51 0.01
 -7 7 28 -2.78 0.04
 -5 7 28 0.53 0.00
 -3 7 28 5.65 0.00
 -1 7 28 5.27 -0.04
 1 7 28 -0.98 -0.02
 3 7 28 -0.76 0.00
 5 7 28 -2.20 0.06
 7 7 28 -5.03 0.00
 9 7 28 1.82 -0.02
 11 7 28 5.09 -0.01
 -12 8 28 -1.14 -0.01
 -10 8 28 4.24 -0.06
 -8 8 28 1.37 -0.03
 -6 8 28 0.25 0.00
 -4 8 28 -10.48 0.03
 -2 8 28 -1.91 0.03
 0 8 28 0.34 0.00
 2 8 28 -2.90 -0.01
 4 8 28 -1.00 -0.02
 6 8 28 1.64 -0.02
 8 8 28 -1.12 0.00
 10 8 28 -2.90 0.03
 -11 9 28 -0.23 0.03
 -9 9 28 -0.97 0.03
 -7 9 28 -2.73 0.02
 -5 9 28 0.91 0.00
 -3 9 28 9.13 -0.02
 -1 9 28 1.01 0.00
 1 9 28 -1.97 -0.01
 3 9 28 -1.90 0.02
 5 9 28 6.53 0.00
 7 9 28 4.94 0.00
 9 9 28 -1.29 -0.01
 -10 10 28 -0.67 0.04
 -8 10 28 2.92 0.05
 -6 10 28 -2.15 0.00
 -4 10 28 2.02 -0.02
 -2 10 28 2.31 -0.03
 0 10 28 -3.71 -0.03
 2 10 28 -3.51 0.01
 4 10 28 1.10 0.02
 6 10 28 1.71 0.02
 8 10 28 -3.06 -0.04
 -9 11 28 0.96 -0.05
 -7 11 28 -1.30 -0.02
 -5 11 28 -0.40 -0.03
 -3 11 28 -4.48 0.04
 -1 11 28 -2.18 0.04
 1 11 28 -2.82 0.00
 3 11 28 -1.91 -0.04
 5 11 28 -0.57 -0.03
 7 11 28 -1.35 0.00
 -8 12 28 -1.04 0.04
 -6 12 28 0.34 0.01
 -4 12 28 1.49 -0.02
 -2 12 28 -0.07 0.00
 0 12 28 6.95 0.00
 2 12 28 -3.03 -0.02
 4 12 28 1.21 0.01
 6 12 28 -1.73 -0.01
 -7 13 28 0.80 0.01
 -5 13 28 2.35 -0.02
 -3 13 28 -4.94 -0.03
 -1 13 28 -5.94 -0.02
 1 13 28 1.84 -0.01
 3 13 28 1.61 0.03
 5 13 28 0.57 0.02
 -4 14 28 0.51 0.03
 -2 14 28 -2.51 0.02
 0 14 28 -6.39 0.01
 2 14 28 6.04 -0.02
 -14 1 29 -0.33 0.04
 -12 1 29 0.98 0.02
 -10 1 29 0.63 -0.01
 -8 1 29 -7.43 -0.02
 -6 1 29 3.06 -0.01
 -4 1 29 3.37 -0.01
 -2 1 29 -1.51 0.02
 0 1 29 -0.56 0.05
 2 1 29 -0.41 0.00
 4 1 29 -0.72 -0.03
 6 1 29 -4.77 -0.04
 8 1 29 1.70 0.00
 10 1 29 1.63 0.03
 12 1 29 -1.16 0.04
 -13 2 29 -1.27 -0.01
 -11 2 29 -1.18 -0.02
 -9 2 29 -3.25 0.02
 -7 2 29 -3.88 0.03
 -5 2 29 2.52 0.01
 -3 2 29 2.12 0.00
 -1 2 29 -10.27 -0.03
 1 2 29 0.81 -0.01
 3 2 29 1.77 0.01
 5 2 29 -1.31 0.03
 7 2 29 -2.50 -0.01
 9 2 29 0.03 -0.01
 11 2 29 -2.15 -0.03
 -14 3 29 2.43 -0.01
 -12 3 29 2.51 -0.02
 -10 3 29 -3.89 0.00
 -8 3 29 0.97 0.02
 -6 3 29 -2.85 0.01
 -4 3 29 -0.36 0.01
 -2 3 29 3.21 -0.01
 0 3 29 -1.79 -0.02
 2 3 29 -0.34 0.00
 4 3 29 -1.74 0.02
 6 3 29 1.39 0.01
 8 3 29 4.86 -0.01
 10 3 29 3.89 -0.01
 12 3 29 -1.85 -0.02
 -13 4 29 3.67 0.03
 -11 4 29 4.84 0.03
 -9 4 29 5.35 -0.02
 -7 4 29 -0.63 -0.05
 -5 4 29 0.09 -0.02
 -3 4 29 0.16 0.02
 -1 4 29 8.21 0.05
 1 4 29 -1.27 0.04
 3 4 29 -3.98 0.03
 5 4 29 -1.20 -0.04
 7 4 29 3.30 0.01
 9 4 29 0.74 0.03
 11 4 29 1.20 0.05
 -12 5 29 -1.58 -0.01
 -10 5 29 4.45 -0.01
 -8 5 29 -0.05 0.00
 -6 5 29 -2.61 0.01
 -4 5 29 -3.41 0.00
 -2 5 29 -3.63 -0.02
 0 5 29 -0.63 -0.01
 2 5 29 -1.53 0.02
 4 5 29 -2.57 0.01
 6 5 29 3.73 0.00
 8 5 29 -2.70 -0.02
 10 5 29 -4.65 -0.03
 -13 6 29 -2.70 -0.02
 -11 6 29 0.84 -0.01
 -9 6 29 1.81 0.01
 -7 6 29 -7.20 0.04
 -5 6 29 -2.70 0.02
 -3 6 29 7.74 -0.01
 -1 6 29 2.84 -0.04
 1 6 29 -2.77 -0.02
 3 6 29 -1.14 -0.02
 5 6 29 1.00 0.06
 7 6 29 -5.25 0.01
 9 6 29 3.17 0.00
 11 6 29 1.37 -0.02
 -12 7 29 2.19 0.03
 -10 7 29 7.34 0.01
 -8 7 29 2.43 -0.03
 -6 7 29 -2.12 -0.02
 -4 7 29 -6.12 0.00
 -2 7 29 -0.99 0.02
 0 7 29 -1.92 0.03
 2 7 29 -3.68 0.03
 4 7 29 3.22 -0.02
 6 7 29 -2.39 -0.04
 8 7 29 -2.66 -0.01
 10 7 29 -1.08 0.04
 -11 8 29 -0.08 -0.03
 -9 8 29 -0.35 0.01
 -7 8 29 -2.80 -0.01
 -5 8 29 -0.33 0.00
 -3 8 29 3.43 -0.01
 -1 8 29 -3.28 0.01
 1 8 29 -1.43 0.00
 3 8 29 1.73 0.01
 5 8 29 5.74 -0.04
 7 8 29 7.38 0.00
 9 8 29 -2.83 0.01
 -10 9 29 -0.02 0.05
 -8 9 29 -0.20 0.04
 -6 9 29 -1.72 0.01
 -4 9 29 5.45 0.00
 -2 9 29 0.83 -0.03
 0 9 29 -3.43 -0.03
 2 9 29 0.30 -0.01
 4 9 29 0.12 0.02
 6 9 29 -1.01 0.04
 8 9 29 -1.37 0.02
 -9 10 29 -0.02 -0.04
 -7 10 29 1.85 -0.05
 -5 10 29 -1.21 -0.04
 -3 10 29 -8.80 0.02
 -1 10 29 -2.63 0.03
 1 10 29 -1.24 0.02
 3 10 29 1.40 -0.01
 5 10 29 -3.51 -0.02
 7 10 29 -4.34 -0.01
 -8 11 29 -2.06 0.00
 -6 11 29 -0.64 0.00
 -4 11 29 -0.49 0.00
 -2 11 29 0.60 0.01
 0 11 29 7.58 0.03
 2 11 29 0.35 -0.01
 4 11 29 2.67 0.00
 6 11 29 0.03 -0.01
 -7 12 29 0.76 0.03
 -5 12 29 2.36 0.03
 -3 12 29 -3.62 -0.03
 -1 12 29 -4.70 -0.05
 1 12 29 2.86 -0.02
 3 12 29 1.06 0.03
 5 12 29 0.41 0.04
 -6 13 29 1.10 -0.02
 -4 13 29 1.06 0.01
 -2 13 29 -1.56 0.01
 0 13 29 -7.98 0.02
 2 13 29 7.22 0.02
 4 13 29 0.37 -0.02
 -3 14 29 3.41 0.01
 -1 14 29 6.01 0.01
 1 14 29 -2.64 0.02
 -14 0 30 -0.40 0.01
 -12 0 30 0.10 0.02
 -10 0 30 -1.00 0.03
 -8 0 30 -5.37 0.00
 -6 0 30 3.79 -0.01
 -4 0 30 4.04 -0.02
 -2 0 30 -4.07 0.00
 0 0 30 -1.12 0.05
 2 0 30 -1.67 0.04
 4 0 30 -2.04 -0.02
 6 0 30 -4.60 -0.04
 8 0 30 3.97 -0.02
 10 0 30 0.82 0.00
 12 0 30 -1.45 0.04
 -13 1 30 -1.00 -0.01
 -11 1 30 -0.74 -0.01
 -9 1 30 -0.23 0.00
 -7 1 30 -2.86 0.01
 -5 1 30 2.85 0.01
 -3 1 30 1.73 0.01
 -1 1 30 -8.82 0.00
 1 1 30 -0.02 0.00
 3 1 30 0.52 -0.01
 5 1 30 -1.04 0.01
 7 1 30 -1.55 0.01
 9 1 30 -0.35 0.01
 11 1 30 -2.23 -0.01
 -14 2 30 0.24 -0.02
 -12 2 30 0.35 -0.03
 -10 2 30 -0.42 -0.01
 -8 2 30 2.60 0.00
 -6 2 30 -1.23 0.02
 -4 2 30 -1.47 0.03
 -2 2 30 1.03 0.00
 0 2 30 -3.27 -0.02
 2 2 30 0.32 -0.03
 4 2 30 -0.31 0.01
 6 2 30 3.18 0.03
 8 2 30 0.47 0.01
 10 2 30 1.55 -0.01
 12 2 30 -0.22 -0.03
 -13 3 30 2.40 0.03
 -11 3 30 4.74 0.05
 -9 3 30 4.36 0.00
 -7 3 30 -2.25 -0.04
 -5 3 30 -1.99 -0.03
 -3 3 30 1.68 -0.01
 -1 3 30 9.58 0.04
 1 3 30 -4.91 0.05
 3 3 30 -2.42 0.03
 5 3 30 0.83 -0.03
 7 3 30 2.86 0.00
 9 3 30 -0.86 0.00
 11 3 30 2.13 0.03
 -12 4 30 -1.55 0.01
 -10 4 30 7.01 0.00
 -8 4 30 -0.38 -0.02
 -6 4 30 -2.26 0.01
 -4 4 30 -0.77 0.01
 -2 4 30 -3.88 -0.01
 0 4 30 -2.14 0.01
 2 4 30 -1.38 0.02
 4 4 30 -0.70 -0.02
 6 4 30 1.74 0.00
 8 4 30 -4.37 0.00
 10 4 30 -7.26 -0.02
 -13 5 30 -4.59 -0.04
 -11 5 30 -1.27 -0.04
 -9 5 30 -2.10 -0.01
 -7 5 30 -3.70 0.03
 -5 5 30 -0.18 0.04
 -3 5 30 3.50 0.01
 -1 5 30 -2.38 -0.03
 1 5 30 1.15 -0.04
 3 5 30 0.68 -0.08
 5 5 30 1.60 0.04
 7 5 30 -4.83 0.03
 9 5 30 3.33 0.01
 11 5 30 -0.02 -0.03
 -12 6 30 2.75 0.04
 -10 6 30 2.83 0.06
 -8 6 30 2.02 -0.02
 -6 6 30 -0.28 -0.03
 -4 6 30 -0.61 -0.02
 -2 6 30 -0.46 0.00
 0 6 30 -1.85 0.04
 2 6 30 -1.08 0.03
 4 6 30 4.79 -0.01
 6 6 30 -6.24 -0.02
 8 6 30 -2.37 0.00
 10 6 30 1.63 0.02
 -11 7 30 -2.55 0.00
 -9 7 30 -0.16 0.01
 -7 7 30 3.27 -0.03
 -5 7 30 1.16 -0.01
 -3 7 30 -2.41 0.00
 -1 7 30 -5.14 0.02
 1 7 30 0.81 0.01
 3 7 30 5.01 0.02
 5 7 30 0.92 -0.06
 7 7 30 8.83 -0.01
 9 7 30 -4.36 -0.01
 -10 8 30 -3.71 -0.01
 -8 8 30 -1.46 0.01
 -6 8 30 0.16 0.02
 -4 8 30 5.11 0.03
 -2 8 30 0.78 0.00
 0 8 30 0.36 -0.03
 2 8 30 4.53 -0.05
 4 8 30 -3.44 0.00
 6 8 30 0.39 0.04
 8 8 30 2.91 0.05
 -11 9 30 3.03 0.03
 -9 9 30 -0.93 -0.02
 -7 9 30 5.20 -0.04
 -5 9 30 -0.23 -0.01
 -3 9 30 -8.36 0.00
 -1 9 30 -0.80 0.00
 1 9 30 0.60 0.02
 3 9 30 -0.38 0.01
 5 9 30 -6.18 0.01
 7 9 30 -7.68 -0.01
 9 9 30 2.18 -0.01
 -10 10 30 -0.53 -0.01
 -8 10 30 -1.06 -0.03
 -6 10 30 -1.32 -0.01
 -4 10 30 -2.61 -0.01
 -2 10 30 3.18 0.01
 0 10 30 8.03 0.04
 2 10 30 1.42 0.01
 4 10 30 3.26 -0.01
 6 10 30 1.80 -0.03
 8 10 30 4.25 -0.02
 -9 11 30 0.81 0.00
 -7 11 30 -0.84 0.04
 -5 11 30 1.10 0.07
 -3 11 30 1.54 0.00
 -1 11 30 -1.49 -0.04
 1 11 30 2.61 -0.02
 3 11 30 -1.46 0.00
 5 11 30 -0.22 0.03
 -6 12 30 -0.18 0.00
 -4 12 30 2.47 0.00
 -2 12 30 -0.49 -0.01
 0 12 30 -8.76 0.00
 2 12 30 5.44 0.02
 4 12 30 -2.11 -0.01
 -5 13 30 -5.09 0.00
 -3 13 30 5.84 0.01
 -1 13 30 7.59 0.03
 1 13 30 -2.19 0.03
 3 13 30 0.36 0.01
 -12 1 31 0.62 -0.01
 -10 1 31 1.91 -0.04
 -8 1 31 1.56 -0.02
 -6 1 31 -1.68 0.00
 -4 1 31 -2.25 0.03
 -2 1 31 2.86 0.02
 0 1 31 -2.37 -0.01
 2 1 31 1.45 -0.05
 4 1 31 1.95 -0.01
 6 1 31 3.42 0.03
 8 1 31 -3.91 0.03
 10 1 31 0.67 0.02
 -13 2 31 1.60 0.00
 -11 2 31 2.75 0.03
 -9 2 31 0.12 0.02
 -7 2 31 -0.61 0.00
 -5 2 31 -2.16 -0.02
 -3 2 31 1.05 -0.03
 -1 2 31 10.90 0.00
 1 2 31 -3.45 0.01
 3 2 31 -0.30 0.03
 5 2 31 1.94 0.00
 7 2 31 2.42 -0.01
 9 2 31 -1.11 -0.03
 11 2 31 3.63 0.00
 -12 3 31 -0.47 0.02
 -10 3 31 3.22 0.01
 -8 3 31 -0.01 0.00
 -6 3 31 -2.39 -0.01
 -4 3 31 0.25 -0.02
 -2 3 31 -1.13 -0.01
 0 3 31 -0.01 0.00
 2 3 31 -1.24 0.03
 4 3 31 0.10 0.00
 6 3 31 -1.03 -0.01
 8 3 31 -2.70 -0.01
 10 3 31 -5.66 -0.01
 -13 4 31 -4.42 -0.02
 -11 4 31 -5.01 -0.06
 -9 4 31 -4.04 -0.02
 -7 4 31 3.56 0.02
 -5 4 31 3.41 0.04
 -3 4 31 -1.91 0.03
 -1 4 31 -5.54 0.00
 1 4 31 7.13 -0.05
 3 4 31 1.43 -0.10
 5 4 31 -0.13 0.01
 7 4 31 -4.12 0.03
 9 4 31 3.09 0.02
 11 4 31 -0.17 -0.01
 -12 5 31 0.65 0.02
 -10 5 31 -3.79 0.04
 -8 5 31 2.50 0.01
 -6 5 31 2.93 -0.02
 -4 5 31 0.36 -0.03
 -2 5 31 0.27 0.00
 0 5 31 2.02 0.01
 2 5 31 1.13 0.00
 4 5 31 3.65 0.01
 6 5 31 -4.62 0.00
 8 5 31 -0.33 0.00
 10 5 31 5.29 0.00
 -11 6 31 -3.87 0.03
 -9 6 31 1.61 0.02
 -7 6 31 7.50 -0.02
 -5 6 31 0.39 -0.02
 -3 6 31 -3.73 -0.02
 -1 6 31 -2.62 0.01
 1 6 31 -0.38 0.01
 3 6 31 4.32 0.07
 5 6 31 -1.92 -0.03
 7 6 31 8.43 -0.02
 9 6 31 -5.90 -0.03
 -12 7 31 -4.15 -0.03
 -10 7 31 -6.53 -0.08
 -8 7 31 -0.69 0.00
 -6 7 31 1.81 0.02
 -4 7 31 1.94 0.03
 -2 7 31 1.40 0.03
 0 7 31 3.69 -0.02
 2 7 31 4.82 -0.06
 4 7 31 -5.63 -0.02
 6 7 31 5.05 0.03
 8 7 31 5.21 0.04
 -11 8 31 3.37 0.03
 -9 8 31 -1.56 -0.01
 -7 8 31 4.27 0.00
 -5 8 31 1.13 0.00
 -3 8 31 -4.56 0.00
 -1 8 31 1.49 -0.01
 1 8 31 -0.08 0.00
 3 8 31 -5.17 0.01
 5 8 31 -3.36 0.04
 7 8 31 -10.12 0.00
 9 8 31 2.42 -0.01
 -10 9 31 -0.45 0.02
 -8 9 31 -0.24 0.00
 -6 9 31 -0.01 0.00
 -4 9 31 -2.35 -0.03
 -2 9 31 3.62 -0.02
 0 9 31 4.74 0.03
 2 9 31 -1.56 0.03
 4 9 31 4.65 0.02
 6 9 31 2.40 -0.03
 8 9 31 1.29 -0.05
 -9 10 31 2.15 -0.01
 -7 10 31 -3.13 0.04
 -5 10 31 0.47 0.04
 -3 10 31 4.93 0.03
 -1 10 31 0.25 0.00
 1 10 31 1.04 -0.01
 3 10 31 -2.17 -0.03
 5 10 31 2.24 0.00
 7 10 31 5.46 0.02
 -8 11 31 0.61 0.00
 -6 11 31 1.83 0.00
 -4 11 31 3.93 0.01
 -2 11 31 -2.61 0.00
 0 11 31 -9.58 -0.03
 2 11 31 1.20 0.00
 4 11 31 -4.99 -0.01
 6 11 31 -2.91 0.01
 -5 12 31 -3.69 -0.04
 -3 12 31 3.90 -0.02
 -1 12 31 5.86 0.03
 1 12 31 -1.41 0.02
 3 12 31 1.63 0.03
 -4 13 31 -2.72 0.02
 -2 13 31 0.54 0.01
 0 13 31 6.15 -0.01
 -12 0 32 2.14 0.02
 -10 0 32 2.73 -0.04
 -8 0 32 -0.63 -0.04
 -6 0 32 -2.48 -0.03
 -4 0 32 -2.49 0.01
 -2 0 32 5.31 0.02
 0 0 32 -1.93 0.01
 2 0 32 1.25 -0.05
 4 0 32 2.87 -0.03
 6 0 32 2.29 0.00
 8 0 32 -5.69 0.03
 10 0 32 1.64 0.05
 -13 1 32 1.24 -0.01
 -11 1 32 0.84 0.00
 -9 1 32 -2.20 0.02
 -7 1 32 -0.20 0.01
 -5 1 32 -1.22 0.00
 -3 1 32 1.25 -0.01
 -1 1 32 8.23 -0.01
 1 1 32 -0.57 -0.02
 3 1 32 0.66 0.02
 5 1 32 1.42 0.01
 7 1 32 1.81 -0.01
 9 1 32 -0.56 -0.02
 11 1 32 2.64 -0.01
 -12 2 32 -0.04 0.00
 -10 2 32 -0.82 0.03
 -8 2 32 1.42 0.03
 -6 2 32 -2.52 0.00
 -4 2 32 -0.79 -0.02
 -2 2 32 0.91 -0.03
 0 2 32 3.47 -0.03
 2 2 32 -1.85 0.04
 4 2 32 -1.33 0.03
 6 2 32 -1.87 0.00
 8 2 32 1.99 -0.02
 10 2 32 -2.73 -0.02
 -13 3 32 -3.09 0.01
 -11 3 32 -5.18 -0.04
 -9 3 32 -0.79 -0.02
 -7 3 32 6.08 -0.01
 -5 3 32 2.39 0.01
 -3 3 32 -4.05 0.04
 -1 3 32 -6.17 0.01
 1 3 32 8.25 -0.01
 3 3 32 -0.13 -0.06
 5 3 32 -2.23 -0.02
 7 3 32 -3.64 0.00
 9 3 32 3.12 0.03
 -12 4 32 -0.92 -0.01
 -10 4 32 -4.61 0.01
 -8 4 32 1.92 0.02
 -6 4 32 3.41 -0.01
 -4 4 32 -0.11 -0.01
 -2 4 32 0.21 0.00
 0 4 32 4.41 0.00
 2 4 32 1.85 -0.02
 4 4 32 1.66 0.01
 6 4 32 -0.27 0.00
 8 4 32 1.35 0.00
 10 4 32 6.34 0.01
 -11 5 32 -0.26 0.03
 -9 5 32 4.00 0.04
 -7 5 32 2.90 0.01
 -5 5 32 -3.91 -0.02
 -3 5 32 -0.25 -0.03
 -1 5 32 1.72 -0.03
 1 5 32 -5.77 0.00
 3 5 32 1.51 0.12
 5 5 32 -0.80 0.01
 7 5 32 6.90 -0.02
 9 5 32 -5.52 -0.03
 -12 6 32 -2.34 -0.02
 -10 6 32 -3.68 -0.08
 -8 6 32 -1.68 0.00
 -6 6 32 0.07 0.01
 -4 6 32 -0.52 0.03
 -2 6 32 2.21 0.03
 0 6 32 2.01 0.00
 2 6 32 2.20 -0.03
 4 6 32 -4.92 -0.03
 6 6 32 5.86 -0.01
 8 6 32 4.21 0.01
 -11 7 32 4.67 -0.01
 -9 7 32 -2.63 -0.01
 -7 7 32 -1.76 0.01
 -5 7 32 1.87 -0.01
 -3 7 32 -0.60 0.01
 -1 7 32 2.10 0.01
 1 7 32 -0.95 0.00
 3 7 32 -7.33 -0.03
 5 7 32 1.59 0.04
 7 7 32 -10.61 0.00
 9 7 32 3.67 0.02
 -10 8 32 3.15 0.07
 -8 8 32 -1.72 0.05
 -6 8 32 0.20 0.01
 -4 8 32 -0.53 -0.03
 -2 8 32 2.10 -0.04
 0 8 32 -0.76 -0.01
 2 8 32 -4.76 0.04
 4 8 32 6.35 0.05
 6 8 32 -0.84 -0.01
 8 8 32 -3.15 -0.05
 -9 9 32 2.48 0.00
 -7 9 32 -5.43 0.02
 -5 9 32 -1.15 0.00
 -3 9 32 4.92 0.02
 -1 9 32 0.11 0.02
 1 9 32 0.27 0.00
 3 9 32 1.37 -0.03
 5 9 32 3.71 -0.02
 7 9 32 7.63 0.00
 -8 10 32 1.46 0.00
 -6 10 32 2.78 -0.02
 -4 10 32 3.03 0.02
 -2 10 32 -5.32 0.03
 0 10 32 -8.20 -0.02
 2 10 32 -0.83 -0.01
 4 10 32 -5.84 -0.02
 6 10 32 -3.84 0.01
 -7 11 32 1.20 0.00
 -5 11 32 -1.62 -0.04
 -3 11 32 0.02 -0.03
 -1 11 32 2.90 -0.01
 1 11 32 -0.81 -0.01
 3 11 32 3.42 0.04
 5 11 32 1.92 0.01
 -4 12 32 -4.42 0.01
 -2 12 32 -0.53 0.02
 0 12 32 6.94 0.01
 2 12 32 -5.26 -0.02
 -12 1 33 -1.54 -0.04
 -10 1 33 -1.92 0.02
 -8 1 33 2.40 0.04
 -6 1 33 -0.47 0.03
 -4 1 33 -0.31 0.01
 -2 1 33 -1.97 -0.02
 0 1 33 3.73 -0.05
 2 1 33 -1.47 0.02
 4 1 33 -2.63 0.04
 6 1 33 -0.77 0.02
 8 1 33 5.65 -0.01
 10 1 33 -2.45 -0.04
 -13 2 33 -2.45 0.03
 -11 2 33 -2.38 0.00
 -9 2 33 3.77 -0.02
 -7 2 33 4.49 -0.03
 -5 2 33 0.21 -0.01
 -3 2 33 -4.40 0.02
 -1 2 33 -6.66 0.02
 1 2 33 4.12 0.04
 3 2 33 -1.89 -0.02
 5 2 33 -2.82 -0.03
 7 2 33 -3.67 -0.01
 9 2 33 2.47 0.03
 -12 3 33 -0.96 0.00
 -10 3 33 -1.08 -0.02
 -8 3 33 -0.69 -0.01
 -6 3 33 2.70 -0.01
 -4 3 33 1.93 0.01
 -2 3 33 -2.14 0.01
 0 3 33 0.67 0.03
 2 3 33 2.42 -0.01
 4 3 33 1.22 -0.02
 6 3 33 1.84 -0.01
 8 3 33 -0.15 0.00
 10 3 33 3.64 0.01
 -11 4 33 4.03 0.02
 -9 4 33 2.65 0.03
 -7 4 33 -4.97 0.03
 -5 4 33 -4.65 0.00
 -3 4 33 3.82 -0.03
 -1 4 33 2.65 -0.04
 1 4 33 -9.68 -0.01
 3 4 33 0.35 0.09
 5 4 33 1.72 0.04
 7 4 33 5.71 0.01
 9 4 33 -4.14 -0.02
 -12 5 33 1.33 0.00
 -10 5 33 0.49 -0.04
 -8 5 33 -4.05 -0.01
 -6 5 33 -1.19 0.00
 -4 5 33 -0.83 0.02
 -2 5 33 1.64 0.02
 0 5 33 -3.14 0.01
 2 5 33 0.01 0.01
 4 5 33 -2.78 -0.01
 6 5 33 1.26 -0.02
 8 5 33 1.51 0.00
 -11 6 33 4.48 -0.01
 -9 6 33 -4.71 -0.03
 -7 6 33 -5.41 -0.02
 -5 6 33 3.85 -0.01
 -3 6 33 0.88 0.01
 -1 6 33 -0.26 0.03
 1 6 33 1.45 0.03
 3 6 33 -5.30 -0.07
 5 6 33 2.20 -0.01
 7 6 33 -8.87 -0.01
 9 6 33 4.97 0.02
 -10 7 33 5.86 0.08
 -8 7 33 -2.72 0.03
 -6 7 33 -0.35 0.01
 -4 7 33 1.82 -0.01
 -2 7 33 0.01 -0.04
 0 7 33 -3.21 -0.02
 2 7 33 -4.86 0.02
 4 7 33 5.78 0.05
 6 7 33 -4.27 0.02
 8 7 33 -4.18 -0.01
 -9 8 33 2.79 0.00
 -7 8 33 -5.15 0.00
 -5 8 33 -3.69 0.01
 -3 8 33 3.07 0.00
 -1 8 33 -0.35 0.01
 1 8 33 1.22 0.01
 3 8 33 5.58 -0.02
 5 8 33 0.27 -0.04
 7 8 33 8.49 0.01
 -8 9 33 2.70 -0.05
 -6 9 33 0.47 -0.04
 -4 9 33 0.90 0.01
 -2 9 33 -5.11 0.04
 0 9 33 -3.70 0.02
 2 9 33 1.00 0.00
 4 9 33 -6.46 -0.04
 6 9 33 -2.66 0.00
 -7 10 33 1.99 0.00
 -5 10 33 -0.59 0.00
 -3 10 33 -1.98 -0.02
 -1 10 33 1.74 -0.04
 1 10 33 -0.18 -0.03
 3 10 33 2.94 0.04
 5 10 33 -0.56 0.02
 -6 11 33 -1.25 0.00
 -4 11 33 -4.01 -0.01
 -2 11 33 1.54 -0.01
 0 11 33 6.30 0.01
 2 11 33 -0.63 0.00
 4 11 33 4.66 0.01
 -3 12 33 -2.46 0.02
 -1 12 33 -3.01 0.02
 1 12 33 -0.51 0.02
 -12 0 34 -2.45 -0.07
 -10 0 34 -0.46 -0.01
 -8 0 34 2.46 0.03
 -6 0 34 0.72 0.05
 -4 0 34 -0.39 0.04
 -2 0 34 -4.40 0.00
 0 0 34 2.50 -0.04
 2 0 34 -0.77 -0.01
 4 0 34 -2.48 0.02
 6 0 34 0.81 0.04
 8 0 34 7.16 0.01
 10 0 34 -3.63 -0.04
 -11 1 34 -0.26 0.02
 -9 1 34 4.15 0.00
 -7 1 34 2.59 -0.01
 -5 1 34 -0.02 -0.01
 -3 1 34 -3.83 0.00
 -1 1 34 -4.91 0.01
 1 1 34 0.77 0.04
 3 1 34 -1.65 0.00
 5 1 34 -1.77 -0.01
 7 1 34 -2.97 -0.01
 9 1 34 1.09 0.00
 -12 2 34 0.01 0.03
 -10 2 34 0.71 -0.01
 -8 2 34 -2.44 -0.02
 -6 2 34 2.26 -0.02
 -4 2 34 3.65 -0.01
 -2 2 34 -3.19 0.01
 0 2 34 -4.18 0.05
 2 2 34 2.63 0.01
 4 2 34 2.08 -0.03
 6 2 34 0.78 -0.02
 8 2 34 -3.88 -0.01
 -11 3 34 3.95 -0.02
 -9 3 34 -2.34 -0.01
 -7 3 34 -7.67 0.04
 -5 3 34 -0.89 0.03
 -3 3 34 5.45 -0.01
 -1 3 34 1.00 -0.02
 1 3 34 -7.74 -0.05
 3 3 34 1.67 0.02
 5 3 34 3.12 0.03
 7 3 34 5.43 0.03
 9 3 34 -3.01 -0.01
 -12 4 34 2.02 0.01
 -10 4 34 0.63 0.00
 -8 4 34 -3.62 0.00
 -6 4 34 1.03 0.00
 -4 4 34 -1.61 0.01
 -2 4 34 0.67 0.00
 0 4 34 -4.22 -0.01
 2 4 34 -0.98 0.01
 4 4 34 -1.19 0.01
 6 4 34 -2.87 0.00
 8 4 34 -0.26 0.00
 -11 5 34 0.77 0.01
 -9 5 34 -4.95 -0.02
 -7 5 34 -0.76 -0.03
 -5 5 34 5.40 -0.02
 -3 5 34 -1.12 0.00
 -1 5 34 -2.48 0.04
 1 5 34 5.54 0.05
 3 5 34 -1.97 -0.07
 5 5 34 -0.87 -0.04
 7 5 34 -6.65 -0.02
 9 5 34 4.08 0.00
 -10 6 34 4.27 0.04
 -8 6 34 0.42 -0.01
 -6 6 34 -0.72 0.02
 -4 6 34 3.16 0.01
 -2 6 34 -1.04 -0.02
 0 6 34 -0.25 -0.03
 2 6 34 -2.99 -0.03
 4 6 34 3.11 0.02
 6 6 34 -2.46 0.04
 8 6 34 -1.93 0.02
 -9 7 34 4.46 0.00
 -7 7 34 -1.00 0.01
 -5 7 34 -4.83 0.03
 -3 7 34 0.15 0.00
 -1 7 34 0.10 -0.02
 1 7 34 1.69 -0.02
 3 7 34 6.51 0.01
 5 7 34 -2.62 -0.02
 7 7 34 7.57 0.02
 -8 8 34 5.01 -0.06
 -6 8 34 -1.49 -0.03
 -4 8 34 -1.36 -0.02
 -2 8 34 -2.92 0.02
 0 8 34 0.56 0.04
 2 8 34 3.43 0.03
 4 8 34 -6.81 -0.04
 6 8 34 0.92 -0.02
 -7 9 34 3.92 0.00
 -5 9 34 1.95 0.01
 -3 9 34 -2.08 0.00
 -1 9 34 1.37 -0.03
 1 9 34 -0.06 -0.04
 3 9 34 -0.39 0.02
 5 9 34 -1.30 0.02
 -6 10 34 -2.59 0.04
 -4 10 34 -2.09 0.00
 -2 10 34 3.87 -0.03
 0 10 34 3.80 -0.01
 2 10 34 1.34 -0.02
 4 10 34 4.83 0.01
 -5 11 34 1.63 -0.01
 -3 11 34 0.56 0.00
 -1 11 34 -2.30 0.03
 1 11 34 -0.06 0.05
 3 11 34 -3.66 -0.02
 -12 1 35 1.31 0.05
 -10 1 35 -1.24 0.03
 -8 1 35 -1.98 0.00
 -6 1 35 0.71 -0.03
 -4 1 35 3.08 -0.04
 -2 1 35 0.44 -0.02
 0 1 35 -3.65 0.03
 2 1 35 1.77 0.04
 4 1 35 1.98 0.00
 6 1 35 -1.09 -0.03
 8 1 35 -6.86 -0.03
 -11 2 35 1.11 -0.04
 -9 2 35 -5.63 -0.02
 -7 2 35 -5.69 0.02
 -5 2 35 0.87 0.03
 -3 2 35 5.78 0.02
 -1 2 35 1.29 0.01
 1 2 35 -3.33 -0.05
 3 2 35 2.48 -0.02
 5 2 35 2.71 0.01
 7 2 35 5.34 0.03
 9 2 35 -1.49 0.01
 -10 3 35 -0.79 0.01
 -8 3 35 -0.83 0.00
 -6 3 35 2.01 0.01
 -4 3 35 -3.80 0.01
 -2 3 35 2.15 0.01
 0 3 35 1.20 -0.03
 2 3 35 -1.74 -0.03
 4 3 35 -1.03 0.01
 6 3 35 -2.68 0.02
 8 3 35 0.83 0.01
 -11 4 35 -2.64 0.03
 -9 4 35 -1.13 0.02
 -7 4 35 5.96 -0.03
 -5 4 35 3.04 -0.03
 -3 4 35 -3.44 -0.01
 -1 4 35 -0.32 0.01
 1 4 35 6.54 0.05
 3 4 35 -0.84 -0.02
 5 4 35 -3.07 -0.02
 7 4 35 -5.51 -0.04
 -10 5 35 2.09 0.00
 -8 5 35 4.78 -0.02
 -6 5 35 -3.85 0.01
 -4 5 35 2.49 0.01
 -2 5 35 0.87 0.00
 0 5 35 3.85 -0.01
 2 5 35 -1.64 -0.03
 4 5 35 0.65 -0.01
 6 5 35 2.22 0.02
 8 5 35 0.64 0.02
 -9 6 35 6.07 0.00
 -7 6 35 0.98 0.01
 -5 6 35 -4.46 0.03
 -3 6 35 -1.28 0.02
 -1 6 35 1.86 -0.02
 1 6 35 0.14 -0.05
 3 6 35 4.22 0.02
 5 6 35 -0.15 0.00
 7 6 35 5.28 0.03
 -8 7 35 5.26 0.00
 -6 7 35 -0.74 -0.02
 -4 7 35 -3.97 -0.04
 -2 7 35 -1.13 -0.01
 0 7 35 0.96 0.03
 2 7 35 3.89 0.05
 4 7 35 -4.79 -0.01
 6 7 35 2.52 -0.03
 -7 8 35 5.17 0.00
 -5 8 35 4.46 -0.02
 -3 8 35 -0.76 0.01
 -1 8 35 0.74 0.00
 1 8 35 -0.73 -0.02
 3 8 35 -3.37 0.01
 5 8 35 1.25 0.02
 -6 9 35 0.54 0.05
 -4 9 35 -0.62 0.03
 -2 9 35 3.06 0.00
 0 9 35 0.73 -0.03
 2 9 35 -0.31 -0.05
 4 9 35 5.54 0.01
 -5 10 35 0.56 -0.03
 -3 10 35 1.85 -0.02
 -1 10 35 -2.43 0.02
 1 10 35 -0.31 0.05
 3 10 35 -3.10 0.00
 -2 11 35 -0.65 0.01
 0 11 35 -0.43 0.00
 -10 0 36 -4.19 0.05
 -8 0 36 -0.81 0.02
 -6 0 36 -0.61 -0.02
 -4 0 36 3.13 -0.05
 -2 0 36 2.98 -0.05
 0 0 36 -1.26 -0.03
 2 0 36 1.53 0.04
 4 0 36 1.00 0.03
 6 0 36 -1.47 -0.02
 8 0 36 -7.87 -0.04
 -11 1 36 -0.61 -0.02
 -9 1 36 -4.12 -0.01
 -7 1 36 -2.77 -0.01
 -5 1 36 -0.06 0.00
 -3 1 36 4.47 0.02
 -1 1 36 2.01 0.01
 1 1 36 -1.13 -0.03
 3 1 36 1.19 -0.02
 5 1 36 1.19 -0.01
 7 1 36 3.51 0.00
 -10 2 36 0.80 -0.02
 -8 2 36 0.51 -0.01
 -6 2 36 0.34 0.00
 -4 2 36 -4.85 0.02
 -2 2 36 3.13 0.03
 0 2 36 5.10 -0.01
 2 2 36 -2.28 -0.04
 4 2 36 -1.09 -0.01
 6 2 36 -0.37 0.01
 8 2 36 3.79 0.02
 -11 3 36 -2.08 0.04
 -9 3 36 3.45 0.05
 -7 3 36 6.73 0.00
 -5 3 36 -0.29 -0.03
 -3 3 36 -3.57 -0.03
 -1 3 36 2.88 -0.03
 1 3 36 3.95 0.03
 3 3 36 -1.66 0.04
 5 3 36 -2.86 0.01
 7 3 36 -5.14 -0.03
 -10 4 36 2.08 -0.01
 -8 4 36 5.13 -0.01
 -6 4 36 -7.59 0.00
 -4 4 36 1.97 0.00
 -2 4 36 2.97 0.00
 0 4 36 2.43 0.00
 2 4 36 -1.19 0.01
 4 4 36 -0.39 -0.01
 6 4 36 3.74 -0.01
 8 4 36 1.53 0.00
 -9 5 36 4.34 -0.02
 -7 5 36 -3.09 0.00
 -5 5 36 -3.15 0.02
 -3 5 36 0.11 0.03
 -1 5 36 2.04 0.01
 1 5 36 -1.45 -0.04
 3 5 36 1.62 0.00
 5 5 36 3.77 -0.01
 7 5 36 3.27 0.02
 -8 6 36 0.80 0.05
 -6 6 36 3.06 -0.01
 -4 6 36 -4.31 -0.03
 -2 6 36 -1.65 -0.02
 0 6 36 -2.08 0.01
 2 6 36 3.05 0.06
 4 6 36 -1.39 0.03
 6 6 36 -0.03 -0.03
 -9 7 36 -4.81 0.02
 -7 7 36 3.90 0.00
 -5 7 36 3.44 -0.03
 -3 7 36 1.50 0.00
 -1 7 36 -0.03 0.00
 1 7 36 -1.32 0.01
 3 7 36 -3.74 0.02
 5 7 36 1.02 0.02
 -8 8 36 -5.57 0.01
 -6 8 36 3.04 0.02
 -4 8 36 1.67 0.05
 -2 8 36 1.30 0.05
 0 8 36 -0.66 -0.01
 2 8 36 -2.55 -0.07
 4 8 36 6.07 0.00
 -5 9 36 -2.04 -0.01
 -3 9 36 1.27 -0.03
 -1 9 36 -1.52 0.00
 1 9 36 -1.20 0.03
 3 9 36 -0.83 0.01
 -4 10 36 0.71 -0.02
 -2 10 36 -1.96 0.00
 0 10 36 1.20 0.01
 2 10 36 -0.73 0.03
 -10 1 37 4.54 -0.03
 -8 1 37 -0.02 -0.04
 -6 1 37 0.40 -0.02
 -4 1 37 -4.31 0.03
 -2 1 37 -0.03 0.05
 0 1 37 2.52 0.05
 2 1 37 -2.35 -0.03
 4 1 37 -0.15 -0.03
 6 1 37 0.37 -0.01
 8 1 37 6.00 0.02
 -9 2 37 4.73 0.04
 -7 2 37 3.56 0.02
 -5 2 37 -0.36 0.00
 -3 2 37 -3.41 -0.03
 -1 2 37 1.42 -0.04
 1 2 37 1.89 0.01
 3 2 37 -1.32 0.03
 5 2 37 -1.34 0.02
 7 2 37 -4.08 0.00
 -10 3 37 1.26 0.00
 -8 3 37 2.37 0.01
 -6 3 37 -5.86 0.01
 -4 3 37 2.98 -0.01
 -2 3 37 1.10 -0.02
 0 3 37 -3.08 0.00
 2 3 37 -0.28 0.03
 4 3 37 -0.57 0.01
 6 3 37 1.59 0.00
 -9 4 37 0.03 -0.05
 -7 4 37 -6.16 -0.03
 -5 4 37 -1.07 0.00
 -3 4 37 0.30 0.03
 -1 4 37 -1.76 0.04
 1 4 37 -0.93 0.00
 3 4 37 1.00 -0.03
 5 4 37 4.36 -0.04
 7 4 37 2.29 0.01
 -8 5 37 -4.23 0.05
 -6 5 37 8.53 0.00
 -4 5 37 -1.42 -0.01
 -2 5 37 -4.93 -0.02
 0 5 37 -3.76 0.00
 2 5 37 2.79 0.02
 4 5 37 0.75 0.03
 6 5 37 -2.45 0.00
 -7 6 37 4.00 0.01
 -5 6 37 1.02 -0.01
 -3 6 37 1.89 -0.02
 -1 6 37 -1.08 -0.02
 1 6 37 -1.44 0.02
 3 6 37 -2.30 0.02
 5 6 37 -3.52 0.03
 -8 7 37 -5.63 -0.05
 -6 7 37 0.66 -0.01
 -4 7 37 4.10 0.04
 -2 7 37 1.24 0.06
 0 7 37 0.41 0.02
 2 7 37 -3.11 -0.06
 4 7 37 3.97 -0.03
 -7 8 37 -4.13 0.01
 -5 8 37 -2.27 0.02
 -3 8 37 -0.25 -0.01
 -1 8 37 -0.38 0.00
 1 8 37 -1.46 0.01
 3 8 37 0.84 -0.01
 -4 9 37 0.54 -0.03
 -2 9 37 -0.50 -0.05
 0 9 37 1.56 -0.01
 2 9 37 1.43 0.05
 -10 0 38 6.24 -0.02
 -8 0 38 -0.65 -0.04
 -6 0 38 1.81 -0.04
 -4 0 38 -3.91 0.00
 -2 0 38 -2.56 0.04
 0 0 38 -0.44 0.10
 2 0 38 -2.58 0.00
 4 0 38 1.09 -0.03
 6 0 38 -0.91 -0.02
 -9 1 38 2.80 0.01
 -7 1 38 1.24 0.02
 -5 1 38 0.61 0.01
 -3 1 38 -2.80 -0.01
 -1 1 38 -1.41 -0.02
 1 1 38 1.37 0.00
 3 1 38 0.09 0.01
 5 1 38 -0.04 0.02
 7 1 38 -1.66 0.01
 -10 2 38 -1.95 0.00
 -8 2 38 0.55 0.03
 -6 2 38 -1.61 0.03
 -4 2 38 3.70 0.00
 -2 2 38 -1.16 -0.03
 0 2 38 -4.48 -0.05
 2 2 38 1.42 0.01
 4 2 38 -1.01 0.02
 6 2 38 0.08 0.03
 -9 3 38 -2.80 -0.03
 -7 3 38 -3.28 -0.04
 -5 3 38 0.11 -0.01
 -3 3 38 -1.68 0.01
 -1 3 38 -4.35 0.05
 1 3 38 0.05 0.03
 3 3 38 1.15 -0.03
 5 3 38 2.32 -0.04
 -8 4 38 -4.23 0.02
 -6 4 38 10.02 0.00
 -4 4 38 0.28 0.00
 -2 4 38 -6.75 0.00
 0 4 38 -0.72 0.00
 2 4 38 2.97 -0.01
 4 4 38 1.38 0.00
 6 4 38 -1.21 0.00
 -7 5 38 6.00 0.04
 -5 5 38 0.36 0.03
 -3 5 38 1.21 -0.01
 -1 5 38 -0.19 -0.05
 1 5 38 -1.79 -0.02
 3 5 38 -1.21 0.01
 5 5 38 -6.52 0.05
 -8 6 38 -1.65 -0.07
 -6 6 38 -4.92 -0.01
 -4 6 38 2.38 0.01
 -2 6 38 3.08 0.04
 0 6 38 2.20 0.02
 2 6 38 -2.65 -0.03
 4 6 38 0.96 -0.04
 -7 7 38 -5.44 -0.01
 -5 7 38 1.00 0.01
 -3 7 38 -1.28 -0.01
 -1 7 38 0.11 0.01
 1 7 38 -0.52 0.01
 3 7 38 0.92 -0.02
 -4 8 38 -1.51 -0.03
 -2 8 38 0.02 -0.07
 0 8 38 1.06 -0.03
 2 8 38 3.10 0.03
 -3 9 38 -0.77 0.02
 -1 9 38 -0.89 0.02
 -8 1 39 0.45 0.02
 -6 1 39 -1.41 0.04
 -4 1 39 3.22 0.03
 -2 1 39 0.88 -0.02
 0 1 39 -0.74 -0.09
 2 1 39 2.59 -0.03
 4 1 39 -1.98 0.01
 6 1 39 1.41 0.03
 -9 2 39 -2.91 0.00
 -7 2 39 -0.16 -0.03
 -5 2 39 -0.39 -0.03
 -3 2 39 -1.33 0.00
 -1 2 39 -1.03 0.02
 1 2 39 -0.61 0.03
 3 2 39 0.05 0.00
 5 2 39 0.27 -0.02
 -8 3 39 -0.86 0.00
 -6 3 39 5.23 -0.02
 -4 3 39 -0.88 -0.01
 -2 3 39 -3.66 0.01
 0 3 39 3.00 0.02
 2 3 39 1.59 0.00
 4 3 39 1.71 -0.01
 6 3 39 1.14 -0.02
 -7 4 39 3.97 0.05
 -5 4 39 0.48 0.04
 -3 4 39 3.84 0.02
 -1 4 39 3.38 -0.05
 1 4 39 -2.32 -0.06
 3 4 39 -1.20 0.00
 5 4 39 -5.12 0.05
 -6 5 39 -8.72 -0.01
 -4 5 39 -1.62 -0.01
 -2 5 39 5.96 0.02
 0 5 39 1.79 0.00
 2 5 39 -3.01 0.00
 4 5 39 -0.38 -0.01
 -5 6 39 2.44 -0.03
 -3 6 39 -0.81 -0.02
 -1 6 39 0.37 0.03
 1 6 39 0.96 0.02
 3 6 39 0.59 0.00
 -4 7 39 -2.46 0.00
 -2 7 39 -1.21 -0.04
 0 7 39 0.50 -0.04
 2 7 39 2.84 0.00
 -3 8 39 0.20 0.01
 -1 8 39 -1.99 0.00
 -8 0 40 0.53 -0.01
 -6 0 40 -2.85 0.04
 -4 0 40 2.15 0.05
 -2 0 40 3.18 0.01
 0 0 40 1.52 -0.08
 2 0 40 2.63 -0.05
 4 0 40 -2.84 -0.02
 -7 1 40 -0.30 -0.01
 -5 1 40 -0.71 -0.02
 -3 1 40 0.56 -0.01
 -1 1 40 2.34 0.00
 1 1 40 -1.20 0.01
 3 1 40 -0.85 0.01
 5 1 40 -0.42 0.00
 -8 2 40 0.89 0.00
 -6 2 40 0.97 -0.03
 -4 2 40 -1.51 -0.03
 -2 2 40 -0.39 0.00
 0 2 40 2.24 0.04
 2 2 40 -1.06 0.03
 4 2 40 2.21 0.01
 -7 3 40 -0.86 0.03
 -5 3 40 0.35 0.03
 -3 3 40 6.95 0.04
 -1 3 40 3.99 -0.01
 1 3 40 -1.74 -0.05
 3 3 40 -0.84 -0.02
 -6 4 40 -7.07 0.00
 -4 4 40 -1.87 -0.01
 -2 4 40 6.62 0.01
 0 4 40 -0.77 -0.01
 2 4 40 -3.35 0.01
 4 4 40 -0.64 0.00
 -5 5 40 0.70 -0.05
 -3 5 40 -1.82 -0.04
 -1 5 40 -1.14 0.02
 1 5 40 1.91 0.04
 3 5 40 0.83 0.03
 -4 6 40 0.70 0.02
 -2 6 40 -2.33 0.00
 0 6 40 0.60 -0.02
 2 6 40 2.24 -0.01
 -3 7 40 -0.18 0.02
 -1 7 40 -1.71 -0.01
 -6 1 41 1.60 -0.01
 -4 1 41 -0.57 -0.04
 -2 1 41 -1.79 -0.03
 0 1 41 -0.64 0.03
 2 1 41 -2.15 0.05
 4 1 41 2.79 0.03
 -7 2 41 -1.16 0.00
 -5 2 41 0.59 0.01
 -3 2 41 4.46 0.03
 -1 2 41 -0.57 0.02
 1 2 41 -0.02 -0.02
 3 2 41 0.39 -0.03
 -6 3 41 -2.32 0.00
 -4 3 41 0.06 0.01
 -2 3 41 3.15 0.01
 0 3 41 -1.78 0.00
 2 3 41 -1.44 -0.01
 -5 4 41 -0.35 -0.02
 -3 4 41 -6.31 -0.06
 -1 4 41 -3.78 0.00
 1 4 41 2.03 0.04
 -4 5 41 2.84 0.02
 -2 5 41 -3.52 0.01
 0 5 41 1.55 0.01
 -1 6 41 -0.87 0.00
 -4 0 42 0.61 -0.02
 -2 0 42 -3.70 -0.04
 0 0 42 -1.32 0.00
 2 0 42 -1.44 0.04
 -5 1 42 0.80 0.00
 -3 1 42 0.07 0.01
 -1 1 42 -3.13 0.02
 1 1 42 0.79 0.00
 -4 2 42 -0.40 0.01
 -2 2 42 0.27 0.02
 0 2 42 -0.21 0.01
 2 2 42 1.09 -0.03
 -3 3 42 -8.30 -0.05
 -1 3 42 -2.65 -0.04
 1 3 42 1.43 0.01
 -2 4 42 -3.48 0.00
 0 4 42 2.06 0.01
 -2 1 43 1.76 0.03
 0 1 43 0.70 0.03
 0 0 0 0.00 0.00
# SQUEEZE RESULTS (APPEND TO CIF)
# Note: Data are Listed for all Voids in the P1 Unit Cell
# i.e. Centre of Gravity, Solvent Accessible Volume,
# Recovered number of Electrons in the Void and
# Details about the Squeezed Material
;
_olex2_submission_special_instructions 'No special instructions were received'
loop_
_space_group_symop_operation_xyz
'x, y, z'
'-x, y, -z+1/2'
'x+1/2, y+1/2, z+1/2'
'-x+1/2, y+1/2, -z+1'
'-x, -y, -z'
'x, -y, z-1/2'
'-x+1/2, -y+1/2, -z+1/2'
'x+1/2, -y+1/2, z'
loop_
_atom_site_label
_atom_site_type_symbol
_atom_site_fract_x
_atom_site_fract_y
_atom_site_fract_z
_atom_site_U_iso_or_equiv
_atom_site_adp_type
_atom_site_occupancy
_atom_site_site_symmetry_order
_atom_site_calc_flag
_atom_site_refinement_flags_posn
_atom_site_refinement_flags_adp
Eu1 Eu 0.02196(2) 0.59236(3) 0.03791(2) 0.01703(14) Uani 1 1 d . .
O2 O -0.1325(3) 0.5834(4) 0.01724(16) 0.0230(13) Uani 1 1 d . .
N2 N -0.0437(4) 0.6863(5) 0.08849(19) 0.0226(16) Uani 1 1 d . .
N1 N 0.1090(4) 0.5923(5) 0.10521(19) 0.0245(17) Uani 1 1 d . .
O8 O -0.0190(4) 0.4337(4) 0.02819(16) 0.0222(13) Uani 1 1 d . .
O7 O -0.0334(4) 0.4883(4) 0.08492(18) 0.0354(16) Uani 1 1 d . .
C30 C -0.0810(6) 0.3449(6) 0.0751(3) 0.032(2) Uani 1 1 d . .
C29 C -0.0424(5) 0.4266(6) 0.0625(2) 0.023(2) Uani 1 1 d . .
C12 C 0.1810(5) 0.5460(6) 0.1139(2) 0.029(2) Uani 1 1 d . .
H12 H 0.2099 0.5223 0.0940 0.035 Uiso 1 1 calc R .
O9 O -0.3358(4) 0.2723(5) 0.0333(2) 0.0499(19) Uani 1 1 d . .
C31 C -0.1676(6) 0.3199(7) 0.0601(3) 0.036(2) Uani 1 1 d . .
H31 H -0.1977 0.3510 0.0403 0.043 Uiso 1 1 calc R .
C13 C -0.1800(5) 0.5403(6) -0.0068(2) 0.0209(19) Uani 1 1 d . .
C32 C -0.2072(6) 0.2479(6) 0.0753(3) 0.039(2) Uani 1 1 d . .
C1 C -0.1162(6) 0.7324(6) 0.0807(3) 0.030(2) Uani 1 1 d . .
H1 H -0.1382 0.7380 0.0552 0.036 Uiso 1 1 calc R .
O10 O -0.3380(5) 0.1613(5) 0.0750(2) 0.062(2) Uani 1 1 d . .
C33 C -0.2996(7) 0.2241(7) 0.0617(3) 0.041(3) Uani 1 1 d . .
C9 C 0.1006(7) 0.6167(7) 0.1729(3) 0.040(3) Uani 1 1 d . .
C2 C -0.1619(6) 0.7731(7) 0.1083(3) 0.041(3) Uani 1 1 d . .
H2 H -0.2132 0.8048 0.1014 0.049 Uiso 1 1 calc R .
C5 C -0.0105(6) 0.6772(6) 0.1256(3) 0.035(2) Uani 1 1 d . .
C11 C 0.2166(6) 0.5304(8) 0.1513(3) 0.046(3) Uani 1 1 d . .
H11 H 0.2669 0.4960 0.1560 0.055 Uiso 1 1 calc R .
C34 C -0.1596(7) 0.2031(8) 0.1033(3) 0.055(3) Uani 1 1 d . .
H34 H -0.1864 0.1557 0.1137 0.066 Uiso 1 1 calc R .
C4 C -0.0538(7) 0.7155(7) 0.1559(3) 0.046(3) Uani 1 1 d . .
C8 C 0.0552(9) 0.6527(8) 0.2026(3) 0.061(3) Uani 1 1 d . .
H8 H 0.0754 0.6422 0.2280 0.073 Uiso 1 1 calc R .
C35 C -0.0749(8) 0.2238(8) 0.1171(4) 0.068(4) Uani 1 1 d . .
C3 C -0.1308(7) 0.7662(7) 0.1454(3) 0.047(3) Uani 1 1 d . .
H3 H -0.1596 0.7946 0.1641 0.056 Uiso 1 1 calc R .
C6 C 0.0686(6) 0.6276(6) 0.1346(3) 0.028(2) Uani 1 1 d . .
C7 C -0.0151(9) 0.7007(8) 0.1945(3) 0.058(3) Uani 1 1 d . .
H7 H -0.0415 0.7267 0.2146 0.070 Uiso 1 1 calc R .
C10 C 0.1773(7) 0.5659(8) 0.1806(3) 0.054(3) Uani 1 1 d . .
H10 H 0.2006 0.5568 0.2057 0.064 Uiso 1 1 calc R .
O1 O -0.1552(3) 0.4795(4) -0.02712(16) 0.0255(14) Uani 1 1 d . .
C18 C -0.4576(5) 0.6041(5) -0.0240(2) 0.0180(18) Uani 1 1 d . .
H18 H -0.5171 0.6199 -0.0291 0.022 Uiso 1 1 calc R .
C20 C -0.4280(5) 0.5286(5) -0.0389(2) 0.0200(18) Uani 1 1 d . .
C16 C -0.4003(5) 0.6571(5) -0.0013(2) 0.0158(17) Uani 1 1 d . .
C15 C -0.3108(5) 0.6337(6) 0.0053(2) 0.0206(19) Uani 1 1 d . .
H15 H -0.2720 0.6679 0.0209 0.025 Uiso 1 1 calc R .
C19 C -0.3379(5) 0.5076(6) -0.0330(2) 0.0218(19) Uani 1 1 d . .
H19 H -0.3170 0.4580 -0.0440 0.026 Uiso 1 1 calc R .
C14 C -0.2790(5) 0.5597(5) -0.0110(2) 0.0146(17) Uani 1 1 d . .
O4 O -0.3759(3) 0.7862(4) 0.03467(16) 0.0247(14) Uani 1 1 d . .
O3 O -0.5119(3) 0.7640(4) 0.00742(16) 0.0230(13) Uani 1 1 d . .
C17 C -0.4314(5) 0.7407(5) 0.0143(2) 0.0205(19) Uani 1 1 d . .
O5 O -0.4647(4) 0.4741(5) -0.10145(18) 0.0431(19) Uani 1 1 d . .
C21 C -0.4903(5) 0.4712(6) -0.0632(2) 0.027(2) Uani 1 1 d . .
H21A H -0.4863 0.4128 -0.0536 0.032 Uiso 1 1 calc R .
H21B H -0.5513 0.4908 -0.0626 0.032 Uiso 1 1 calc R .
C36 C -0.0373(7) 0.2990(8) 0.1036(4) 0.063(4) Uani 1 1 d . .
H36 H 0.0180 0.3176 0.1144 0.075 Uiso 1 1 calc R .
C25 C -0.5935(6) 0.3859(7) -0.1227(3) 0.044(3) Uani 1 1 d . .
H25 H -0.6088 0.3767 -0.0979 0.053 Uiso 1 1 calc R .
C23 C -0.4959(8) 0.4435(10) -0.1660(3) 0.073(4) Uani 1 1 d . .
H23 H -0.4441 0.4734 -0.1701 0.087 Uiso 1 1 calc R .
C22 C -0.5189(7) 0.4330(7) -0.1297(3) 0.041(3) Uani 1 1 d . .
C24 C -0.5481(8) 0.4106(10) -0.1969(3) 0.079(5) Uani 1 1 d . .
H24 H -0.5330 0.4202 -0.2217 0.095 Uiso 1 1 calc R .
C26 C -0.6449(7) 0.3527(9) -0.1540(3) 0.060(4) Uani 1 1 d . .
H26 H -0.6963 0.3222 -0.1499 0.072 Uiso 1 1 calc R .
C27 C -0.6229(7) 0.3632(9) -0.1904(3) 0.052(3) Uani 1 1 d . .
O6 O -0.6660(6) 0.3326(8) -0.2562(2) 0.091(4) Uani 1 1 d . .
C28 C -0.6803(8) 0.3261(11) -0.2230(3) 0.079(5) Uani 1 1 d . .
H28 H -0.7307 0.2957 -0.2173 0.095 Uiso 1 1 calc R .
O11 O 0.0654(9) 0.1380(9) 0.1210(4) 0.146(4) Uani 1 1 d . U
C37 C -0.0183(11) 0.1695(13) 0.1460(5) 0.126(5) Uani 1 1 d . U
H37A H -0.0517 0.1208 0.1544 0.151 Uiso 1 1 calc R .
H37B H 0.0034 0.2032 0.1681 0.151 Uiso 1 1 calc R .
C42 C 0.2879(14) 0.0444(15) 0.1396(6) 0.151(5) Uani 1 1 d D U
H42 H 0.3337 0.0239 0.1259 0.182 Uiso 1 1 calc R .
C38 C 0.1447(15) 0.1039(16) 0.1424(6) 0.149(4) Uani 1 1 d D U
C43 C 0.2112(13) 0.0813(14) 0.1211(6) 0.145(5) Uani 1 1 d D U
H43 H 0.2063 0.0901 0.0947 0.173 Uiso 1 1 calc R .
O12 O 0.3829(13) -0.0107(14) 0.2292(5) 0.235(7) Uani 1 1 d . U
C44 C 0.3813(18) 0.0153(18) 0.1901(8) 0.181(6) Uani 1 1 d . U
H44 H 0.4297 0.0160 0.1752 0.217 Uiso 1 1 calc R .
C41 C 0.2928(16) 0.0398(17) 0.1780(6) 0.158(5) Uani 1 1 d D U
C39 C 0.1490(14) 0.0901(15) 0.1812(6) 0.157(5) Uani 1 1 d D U
H39 H 0.0995 0.1022 0.1945 0.188 Uiso 1 1 calc R .
C40 C 0.2261(14) 0.0583(15) 0.2009(7) 0.162(5) Uani 1 1 d D U
H40 H 0.2319 0.0503 0.2272 0.195 Uiso 1 1 calc R .
loop_
_atom_site_aniso_label
_atom_site_aniso_U_11
_atom_site_aniso_U_22
_atom_site_aniso_U_33
_atom_site_aniso_U_23
_atom_site_aniso_U_13
_atom_site_aniso_U_12
Eu1 0.0146(2) 0.0157(2) 0.0207(2) -0.0015(2) 0.00101(15) -0.00067(19)
O2 0.014(3) 0.023(3) 0.031(3) -0.010(3) -0.001(2) -0.002(3)
N2 0.023(4) 0.021(4) 0.023(4) -0.005(4) 0.002(3) -0.005(3)
N1 0.025(4) 0.026(4) 0.023(4) 0.009(4) 0.003(3) -0.005(3)
O8 0.028(3) 0.019(3) 0.020(3) -0.002(3) 0.002(2) 0.002(3)
O7 0.051(4) 0.024(3) 0.032(4) -0.006(4) 0.009(3) -0.014(3)
C30 0.035(5) 0.030(5) 0.031(5) 0.000(5) 0.002(4) 0.004(5)
C29 0.020(4) 0.023(5) 0.024(5) 0.002(5) -0.002(4) 0.000(4)
C12 0.026(5) 0.033(5) 0.026(5) 0.003(5) -0.005(4) 0.000(4)
O9 0.040(4) 0.044(4) 0.065(5) 0.003(5) 0.001(4) -0.004(4)
C31 0.036(5) 0.036(6) 0.034(5) -0.004(6) -0.003(4) -0.002(5)
C13 0.018(4) 0.025(5) 0.021(4) -0.001(4) 0.007(3) 0.000(4)
C32 0.039(5) 0.029(5) 0.047(6) 0.004(6) 0.002(5) -0.010(5)
C1 0.033(5) 0.026(5) 0.033(5) -0.001(5) 0.012(4) 0.000(5)
O10 0.045(4) 0.058(5) 0.085(6) 0.004(5) 0.018(4) -0.020(4)
C33 0.048(6) 0.027(5) 0.048(7) -0.012(6) 0.015(5) -0.008(5)
C9 0.062(7) 0.042(6) 0.014(5) 0.007(5) -0.006(4) 0.004(6)
C2 0.036(5) 0.037(6) 0.052(7) -0.002(6) 0.013(5) 0.000(5)
C5 0.040(5) 0.026(5) 0.040(6) -0.007(5) 0.013(5) -0.005(5)
C11 0.037(6) 0.050(7) 0.047(6) 0.016(7) -0.014(5) 0.005(5)
C34 0.061(7) 0.051(7) 0.050(7) 0.021(7) -0.013(6) -0.023(6)
C4 0.056(7) 0.045(7) 0.040(6) -0.008(6) 0.011(5) 0.002(6)
C8 0.099(10) 0.056(8) 0.025(6) 0.000(7) 0.000(6) 0.010(8)
C35 0.074(8) 0.051(7) 0.071(8) 0.026(8) -0.034(7) -0.037(7)
C3 0.054(7) 0.047(7) 0.041(6) -0.013(6) 0.021(5) 0.003(6)
C6 0.035(5) 0.024(5) 0.027(5) 0.006(5) 0.008(4) -0.001(4)
C7 0.099(9) 0.056(8) 0.023(6) 0.008(7) 0.018(6) 0.006(8)
C10 0.073(8) 0.058(8) 0.026(6) 0.011(6) -0.016(5) 0.011(7)
O1 0.019(3) 0.031(3) 0.027(3) -0.010(3) 0.002(2) 0.009(3)
C18 0.009(4) 0.023(5) 0.022(4) 0.001(4) 0.001(3) 0.008(4)
C20 0.020(4) 0.018(4) 0.024(4) -0.008(4) 0.010(3) -0.002(4)
C16 0.011(4) 0.019(4) 0.019(4) 0.001(4) 0.007(3) -0.002(3)
C15 0.018(4) 0.021(5) 0.022(4) -0.003(4) -0.004(3) -0.008(4)
C19 0.021(4) 0.022(5) 0.022(4) -0.006(4) 0.000(3) 0.002(4)
C14 0.020(4) 0.010(4) 0.015(4) -0.002(4) 0.006(3) 0.006(3)
O4 0.023(3) 0.020(3) 0.031(3) -0.008(3) 0.001(2) 0.005(3)
O3 0.012(3) 0.025(3) 0.033(3) -0.004(3) 0.006(2) 0.005(3)
C17 0.022(4) 0.020(4) 0.019(4) 0.000(4) 0.000(3) -0.002(4)
O5 0.035(4) 0.062(5) 0.031(4) -0.012(4) -0.001(3) -0.027(4)
C21 0.021(4) 0.034(5) 0.025(5) -0.004(5) -0.002(4) -0.010(4)
C36 0.056(7) 0.048(7) 0.078(9) 0.019(8) -0.034(6) -0.009(6)
C25 0.033(5) 0.062(8) 0.035(6) 0.001(6) -0.007(4) -0.014(5)
C23 0.063(8) 0.116(13) 0.039(7) -0.023(9) 0.007(6) -0.047(8)
C22 0.051(6) 0.048(7) 0.022(5) 0.000(6) -0.013(4) -0.011(6)
C24 0.082(9) 0.131(14) 0.026(6) -0.013(9) 0.009(6) -0.041(10)
C26 0.040(6) 0.091(11) 0.048(7) -0.017(8) -0.003(5) -0.025(7)
C27 0.044(6) 0.078(9) 0.033(6) -0.018(7) -0.009(5) -0.013(6)
O6 0.082(6) 0.147(11) 0.042(5) -0.030(7) -0.013(4) -0.018(7)
C28 0.053(7) 0.135(15) 0.046(7) -0.035(10) -0.012(6) 0.002(9)
O11 0.139(7) 0.142(7) 0.153(7) 0.003(7) -0.004(6) 0.015(7)
C37 0.115(8) 0.122(8) 0.136(8) 0.012(7) -0.004(7) 0.000(7)
C42 0.150(7) 0.152(7) 0.152(7) 0.011(7) 0.015(6) -0.003(6)
C38 0.145(6) 0.150(6) 0.150(6) 0.005(6) 0.006(6) 0.012(6)
C43 0.137(7) 0.149(7) 0.149(7) 0.009(6) 0.022(6) 0.003(6)
O12 0.274(15) 0.250(16) 0.186(13) 0.050(15) 0.052(13) 0.095(13)
C44 0.181(10) 0.187(11) 0.177(10) 0.026(10) 0.028(10) 0.030(10)
C41 0.154(7) 0.162(7) 0.160(7) 0.012(6) 0.019(6) 0.009(6)
C39 0.154(7) 0.160(7) 0.156(7) 0.009(6) 0.006(6) 0.010(6)
C40 0.155(7) 0.165(7) 0.166(7) 0.008(6) 0.013(6) 0.009(6)
loop_
_atom_type_symbol
_atom_type_description
_atom_type_scat_dispersion_real
_atom_type_scat_dispersion_imag
_atom_type_scat_source
C C 0.0033 0.0016 'International Tables Vol C Tables 4.2.6.8 and 6.1.1.4'
H H 0.0000 0.0000 'International Tables Vol C Tables 4.2.6.8 and 6.1.1.4'
Eu Eu -0.1578 3.6682 'International Tables Vol C Tables 4.2.6.8 and 6.1.1.4'
N N 0.0061 0.0033 'International Tables Vol C Tables 4.2.6.8 and 6.1.1.4'
O O 0.0106 0.0060 'International Tables Vol C Tables 4.2.6.8 and 6.1.1.4'
loop_
_geom_angle_atom_site_label_1
_geom_angle_atom_site_label_2
_geom_angle_atom_site_label_3
_geom_angle
_geom_angle_site_symmetry_1
_geom_angle_site_symmetry_3
O2 Eu1 Eu1 69.43(13) . 5_565
O2 Eu1 N2 79.61(19) . .
O2 Eu1 N1 132.8(2) . .
O2 Eu1 O8 71.70(18) . .
O2 Eu1 O7 77.9(2) . .
O2 Eu1 C29 72.4(2) . .
O2 Eu1 O4 129.21(19) . 8_565
O2 Eu1 O3 76.44(18) . 8_565
O2 Eu1 C17 103.0(2) . 8_565
N2 Eu1 Eu1 146.43(14) . 5_565
N2 Eu1 N1 64.3(2) . .
N2 Eu1 O8 122.7(2) . .
N2 Eu1 C29 98.3(2) . .
N2 Eu1 C17 78.4(2) . 8_565
N1 Eu1 Eu1 130.94(17) . 5_565
N1 Eu1 C29 83.4(2) . .
N1 Eu1 C17 98.5(2) . 8_565
O8 Eu1 Eu1 38.69(14) 5_565 5_565
O8 Eu1 Eu1 34.96(12) . 5_565
O8 Eu1 O2 75.76(19) 5_565 .
O8 Eu1 N2 143.7(2) 5_565 .
O8 Eu1 N1 149.4(2) 5_565 .
O8 Eu1 N1 102.5(2) . .
O8 Eu1 O8 73.6(2) 5_565 .
O8 Eu1 O7 123.9(2) 5_565 .
O8 Eu1 C29 26.2(2) . .
O8 Eu1 C29 99.2(2) 5_565 .
O8 Eu1 O1 72.76(19) 5_565 5_565
O8 Eu1 O4 92.66(19) 5_565 8_565
O8 Eu1 O3 75.41(19) 5_565 8_565
O8 Eu1 C17 155.2(2) . 8_565
O8 Eu1 C17 81.6(2) 5_565 8_565
O7 Eu1 Eu1 85.72(14) . 5_565
O7 Eu1 N2 75.2(2) . .
O7 Eu1 N1 64.7(2) . .
O7 Eu1 O8 51.23(19) . .
O7 Eu1 C29 25.1(2) . .
O7 Eu1 O3 142.14(19) . 8_565
O7 Eu1 C17 152.9(2) . 8_565
C29 Eu1 Eu1 60.72(17) . 5_565
O1 Eu1 Eu1 68.86(14) 5_565 5_565
O1 Eu1 O2 138.27(19) 5_565 .
O1 Eu1 N2 140.1(2) 5_565 .
O1 Eu1 N1 77.1(2) 5_565 .
O1 Eu1 O8 73.62(19) 5_565 .
O1 Eu1 O7 97.7(2) 5_565 .
O1 Eu1 C29 86.3(2) 5_565 .
O1 Eu1 O4 79.26(19) 5_565 8_565
O1 Eu1 O3 119.94(19) 5_565 8_565
O1 Eu1 C17 98.8(2) 5_565 8_565
O4 Eu1 Eu1 127.15(13) 8_565 5_565
O4 Eu1 N2 82.6(2) 8_565 .
O4 Eu1 N1 76.9(2) 8_565 .
O4 Eu1 O8 152.18(18) 8_565 .
O4 Eu1 O7 140.98(19) 8_565 .
O4 Eu1 C29 157.7(2) 8_565 .
O4 Eu1 O3 52.87(17) 8_565 8_565
O4 Eu1 C17 26.48(18) 8_565 8_565
O3 Eu1 Eu1 110.35(13) 8_565 5_565
O3 Eu1 N2 73.1(2) 8_565 .
O3 Eu1 N1 117.0(2) 8_565 .
O3 Eu1 O8 139.88(17) 8_565 .
O3 Eu1 C29 148.73(19) 8_565 .
O3 Eu1 C17 26.52(18) 8_565 8_565
C17 Eu1 Eu1 120.29(16) 8_565 5_565
C17 Eu1 C29 174.8(2) 8_565 .
C13 O2 Eu1 136.2(5) . .
C1 N2 Eu1 122.0(6) . .
C1 N2 C5 119.1(8) . .
C5 N2 Eu1 118.1(6) . .
C12 N1 Eu1 123.5(6) . .
C12 N1 C6 117.4(7) . .
C6 N1 Eu1 117.7(5) . .
Eu1 O8 Eu1 106.4(2) 5_565 .
C29 O8 Eu1 92.3(5) . .
C29 O8 Eu1 157.5(5) . 5_565
C29 O7 Eu1 96.3(5) . .
C31 C30 C29 119.8(8) . .
C36 C30 C29 119.7(9) . .
C36 C30 C31 120.1(10) . .
O8 C29 Eu1 61.5(4) . .
O8 C29 C30 119.9(8) . .
O7 C29 Eu1 58.7(4) . .
O7 C29 O8 120.1(8) . .
O7 C29 C30 120.1(8) . .
C30 C29 Eu1 176.2(6) . .
N1 C12 C11 123.7(9) . .
C32 C31 C30 119.2(9) . .
O2 C13 O1 127.2(7) . .
O2 C13 C14 117.3(7) . .
O1 C13 C14 115.4(7) . .
C31 C32 C33 120.0(9) . .
C34 C32 C31 118.2(9) . .
C34 C32 C33 121.7(9) . .
N2 C1 C2 123.7(9) . .
O9 C33 C32 114.4(9) . .
O10 C33 O9 123.4(10) . .
O10 C33 C32 122.1(10) . .
C6 C9 C8 120.9(10) . .
C6 C9 C10 117.6(10) . .
C10 C9 C8 121.5(9) . .
C3 C2 C1 119.0(10) . .
N2 C5 C4 121.2(9) . .
N2 C5 C6 119.8(8) . .
C4 C5 C6 119.0(9) . .
C10 C11 C12 119.2(9) . .
C32 C34 C35 123.5(10) . .
C5 C4 C7 117.4(10) . .
C3 C4 C5 116.9(9) . .
C3 C4 C7 125.8(10) . .
C7 C8 C9 120.2(10) . .
C34 C35 C36 118.2(11) . .
C34 C35 C37 123.8(12) . .
C36 C35 C37 118.0(11) . .
C2 C3 C4 120.2(10) . .
N1 C6 C9 122.7(9) . .
N1 C6 C5 118.0(8) . .
C9 C6 C5 119.3(9) . .
C8 C7 C4 123.1(11) . .
C11 C10 C9 119.3(9) . .
C13 O1 Eu1 138.1(5) . 5_565
C20 C18 C16 121.2(7) . .
C18 C20 C19 119.1(7) . .
C18 C20 C21 121.2(7) . .
C19 C20 C21 119.6(7) . .
C18 C16 C15 118.9(7) . .
C18 C16 C17 121.6(7) . .
C15 C16 C17 119.4(7) . .
C14 C15 C16 120.5(7) . .
C14 C19 C20 120.8(8) . .
C15 C14 C13 119.6(7) . .
C19 C14 C13 120.9(7) . .
C19 C14 C15 119.3(7) . .
C17 O4 Eu1 94.2(5) . 8_465
C17 O3 Eu1 91.1(5) . 8_465
C16 C17 Eu1 173.6(6) . 8_465
O4 C17 Eu1 59.3(4) . 8_465
O4 C17 C16 118.6(7) . .
O3 C17 Eu1 62.4(4) . 8_465
O3 C17 C16 120.2(7) . .
O3 C17 O4 121.2(8) . .
C22 O5 C21 117.8(7) . .
O5 C21 C20 107.9(7) . .
C30 C36 C35 120.4(10) . .
C22 C25 C26 117.7(10) . .
C22 C23 C24 121.2(11) . .
C25 C22 O5 123.9(9) . .
C23 C22 O5 115.6(9) . .
C23 C22 C25 120.4(9) . .
C23 C24 C27 119.1(11) . .
C27 C26 C25 122.4(10) . .
C24 C27 C28 120.6(11) . .
C26 C27 C24 119.1(10) . .
C26 C27 C28 120.2(11) . .
O6 C28 C27 124.6(13) . .
C38 O11 C37 117.2(14) . .
C35 C37 O11 102.5(13) . .
C41 C42 C43 117(2) . .
C43 C38 O11 115.0(19) . .
C43 C38 C39 122(2) . .
C39 C38 O11 122(2) . .
C38 C43 C42 118(2) . .
C41 C44 O12 107(2) . .
C42 C41 C44 106(2) . .
C42 C41 C40 127(2) . .
C40 C41 C44 127(2) . .
C38 C39 C40 121(2) . .
C41 C40 C39 114(2) . .
loop_
_geom_bond_atom_site_label_1
_geom_bond_atom_site_label_2
_geom_bond_distance
_geom_bond_site_symmetry_2
Eu1 Eu1 3.9341(8) 5_565
Eu1 O2 2.377(5) .
Eu1 N2 2.561(7) .
Eu1 N1 2.598(7) .
Eu1 O8 2.563(6) .
Eu1 O8 2.349(5) 5_565
Eu1 O7 2.504(6) .
Eu1 C29 2.914(9) .
Eu1 O1 2.355(5) 5_565
Eu1 O4 2.445(5) 8_565
Eu1 O3 2.512(6) 8_565
Eu1 C17 2.835(9) 8_565
O2 C13 1.251(9) .
N2 C1 1.315(10) .
N2 C5 1.359(11) .
N1 C12 1.314(10) .
N1 C6 1.357(11) .
O8 Eu1 2.349(5) 5_565
O8 C29 1.287(10) .
O7 C29 1.242(10) .
C30 C29 1.482(13) .
C30 C31 1.415(12) .
C30 C36 1.353(13) .
C12 C11 1.394(12) .
O9 C33 1.326(12) .
C31 C32 1.396(13) .
C13 O1 1.261(9) .
C13 C14 1.514(10) .
C32 C33 1.476(13) .
C32 C34 1.359(13) .
C1 C2 1.390(12) .
O10 C33 1.246(12) .
C9 C8 1.410(14) .
C9 C6 1.395(12) .
C9 C10 1.406(14) .
C2 C3 1.346(13) .
C5 C4 1.424(13) .
C5 C6 1.432(13) .
C11 C10 1.347(14) .
C34 C35 1.362(13) .
C4 C3 1.423(14) .
C4 C7 1.446(14) .
C8 C7 1.305(15) .
C35 C36 1.400(15) .
C35 C37 1.523(19) .
O1 Eu1 2.355(5) 5_565
C18 C20 1.377(11) .
C18 C16 1.391(10) .
C20 C19 1.392(10) .
C20 C21 1.505(11) .
C16 C15 1.395(10) .
C16 C17 1.503(11) .
C15 C14 1.391(11) .
C19 C14 1.386(10) .
O4 Eu1 2.445(5) 8_465
O4 C17 1.268(9) .
O3 Eu1 2.512(6) 8_465
O3 C17 1.266(9) .
C17 Eu1 2.835(9) 8_465
O5 C21 1.426(10) .
O5 C22 1.384(10) .
C25 C22 1.380(13) .
C25 C26 1.385(13) .
C23 C22 1.357(14) .
C23 C24 1.379(14) .
C24 C27 1.381(15) .
C26 C27 1.355(15) .
C27 C28 1.487(14) .
O6 C28 1.208(14) .
O11 C37 1.670(19) .
O11 C38 1.45(2) .
C42 C43 1.398(16) .
C42 C41 1.344(13) .
C38 C43 1.347(16) .
C38 C39 1.373(13) .
O12 C44 1.43(3) .
C44 C41 1.41(3) .
C41 C40 1.367(13) .
C39 C40 1.388(13) .
loop_
_platon_squeeze_void_nr
_platon_squeeze_void_average_x
_platon_squeeze_void_average_y
_platon_squeeze_void_average_z
_platon_squeeze_void_volume
_platon_squeeze_void_count_electrons
_platon_squeeze_void_content
1 -0.004 0.250 0.250 542 80 ' '
2 -0.004 0.750 0.750 542 80 ' '
