#------------------------------------------------------------------------------
#$Date: 2019-11-17 11:22:29 +0200 (Sun, 17 Nov 2019) $
#$Revision: 229562 $
#$URL: file:///home/coder/svn-repositories/cod/cif/1/54/82/1548244.cif $
#------------------------------------------------------------------------------
#
# This file is available in the Crystallography Open Database (COD),
# http://www.crystallography.net/
#
# All data on this site have been placed in the public domain by the
# contributors.
#
data_1548244
loop_
_publ_author_name
'Wang, Jun'
'Zhang, Qiang-Sheng'
'Dou, Wei'
'Kirillov, Alexander M.'
'Liu, Wei-Sheng'
'Xu, Cong'
'Xu, Cai-Ling'
'Fang, Ran'
'Yang, Li-Zi'
_publ_section_title
;
 Novel double layer lanthanide metal-organic networks for sensing
 applications.
;
_journal_issue                   2
_journal_name_full
'Dalton transactions (Cambridge, England : 2003)'
_journal_page_first              465
_journal_page_last               474
_journal_paper_doi               10.1039/c7dt03604c
_journal_volume                  47
_journal_year                    2018
_chemical_formula_moiety         'C44 H28 N2 O12 Tb'
_chemical_formula_sum            'C44 H28 N2 O12 Tb'
_chemical_formula_weight         935.60
_space_group_crystal_system      monoclinic
_space_group_IT_number           15
_space_group_name_Hall           '-I 2yc'
_space_group_name_H-M_alt        'I 1 2/c 1'
_symmetry_space_group_name_Hall  '-I 2yc'
_symmetry_space_group_name_H-M   'I 1 2/c 1'
_atom_sites_solution_hydrogens   geom
_atom_sites_solution_primary     iterative
_audit_creation_date             2017-11-03
_audit_creation_method
;
Olex2 1.2
(compiled 2017.08.10 svn.r3458 for OlexSys, GUI svn.r5381)
;
_audit_update_record
;
2017-11-06 deposited with the CCDC.
2017-11-28 downloaded from the CCDC.
;
_cell_angle_alpha                90
_cell_angle_beta                 94.405(4)
_cell_angle_gamma                90
_cell_formula_units_Z            8
_cell_length_a                   14.9948(5)
_cell_length_b                   15.5788(5)
_cell_length_c                   35.0105(12)
_cell_measurement_reflns_used    3117
_cell_measurement_temperature    293.33(10)
_cell_measurement_theta_max      22.4660
_cell_measurement_theta_min      3.4940
_cell_volume                     8154.3(5)
_computing_cell_refinement
;
CrysAlisPro, Agilent Technologies,
Version 1.171.37.33 (release 27-03-2014 CrysAlis171 .NET)
(compiled Mar 27 2014,17:12:48)
;
_computing_data_collection
;
CrysAlisPro, Agilent Technologies,
Version 1.171.37.33 (release 27-03-2014 CrysAlis171 .NET)
(compiled Mar 27 2014,17:12:48)
;
_computing_data_reduction
;
CrysAlisPro, Agilent Technologies,
Version 1.171.37.33 (release 27-03-2014 CrysAlis171 .NET)
(compiled Mar 27 2014,17:12:48)
;
_computing_molecular_graphics    'Olex2 (Dolomanov et al., 2009)'
_computing_publication_material  'Olex2 (Dolomanov et al., 2009)'
_computing_structure_refinement  'XL (Sheldrick, 2008)'
_computing_structure_solution
;
Superflip (Palatinus & Chapuis, 2007;Palatinus & van der Lee, 2008;
Palatinus et al., 2012)
;
_diffrn_ambient_environment      air
_diffrn_ambient_temperature      293.33(10)
_diffrn_detector                 'CCD plate'
_diffrn_detector_area_resol_mean 16.0733
_diffrn_detector_type            Eos
_diffrn_measured_fraction_theta_full 0.994
_diffrn_measured_fraction_theta_max 0.994
_diffrn_measurement_details
;
#__ type_ start__ end____ width___ exp.time_
  1 omega   10.00   89.00   1.0000   16.0000
omega____ theta____ kappa____ phi______ frames
    -       20.4291   57.0000    0.0000 79

#__ type_ start__ end____ width___ exp.time_
  2 omega  -48.00   77.00   1.0000   16.0000
omega____ theta____ kappa____ phi______ frames
    -       20.4291    0.0000 -180.0000 125

#__ type_ start__ end____ width___ exp.time_
  3 omega   -2.00   50.00   1.0000   16.0000
omega____ theta____ kappa____ phi______ frames
    -       20.4291  -77.0000 -120.0000 52
;
_diffrn_measurement_device       'four-circle diffractometer'
_diffrn_measurement_device_type  'SuperNova, Dual, Cu at zero, Eos'
_diffrn_measurement_method       '\w scans'
_diffrn_orient_matrix_UB_11      0.0348278000
_diffrn_orient_matrix_UB_12      0.0054707000
_diffrn_orient_matrix_UB_13      -0.0123787000
_diffrn_orient_matrix_UB_21      0.0305460000
_diffrn_orient_matrix_UB_22      0.0085186000
_diffrn_orient_matrix_UB_23      0.0160341000
_diffrn_orient_matrix_UB_31      0.0102217000
_diffrn_orient_matrix_UB_32      -0.0444043000
_diffrn_orient_matrix_UB_33      0.0015532000
_diffrn_radiation_monochromator  mirror
_diffrn_radiation_probe          x-ray
_diffrn_radiation_type           MoK\a
_diffrn_radiation_wavelength     0.710
_diffrn_reflns_av_R_equivalents  0.0650
_diffrn_reflns_av_unetI/netI     0.0950
_diffrn_reflns_Laue_measured_fraction_full 0.994
_diffrn_reflns_Laue_measured_fraction_max 0.994
_diffrn_reflns_limit_h_max       8
_diffrn_reflns_limit_h_min       -17
_diffrn_reflns_limit_k_max       18
_diffrn_reflns_limit_k_min       -18
_diffrn_reflns_limit_l_max       41
_diffrn_reflns_limit_l_min       -41
_diffrn_reflns_number            17359
_diffrn_reflns_point_group_measured_fraction_full 0.994
_diffrn_reflns_point_group_measured_fraction_max 0.994
_diffrn_reflns_theta_full        25.010
_diffrn_reflns_theta_max         25.010
_diffrn_reflns_theta_min         3.446
_diffrn_source                   'SuperNova (Mo) X-ray Source'
_exptl_absorpt_coefficient_mu    1.801
_exptl_absorpt_correction_T_max  1.00000
_exptl_absorpt_correction_T_min  0.97886
_exptl_absorpt_correction_type   multi-scan
_exptl_absorpt_process_details
;
CrysAlisPro, Agilent Technologies,
Version 1.171.37.33 (release 27-03-2014 CrysAlis171 .NET)
(compiled Mar 27 2014,17:12:48)
Empirical absorption correction using spherical harmonics,
 implemented in SCALE3 ABSPACK scaling algorithm.
;
_exptl_crystal_colour            'clear light colourless'
_exptl_crystal_colour_lustre     clear
_exptl_crystal_colour_modifier   light
_exptl_crystal_colour_primary    colourless
_exptl_crystal_density_diffrn    1.524
_exptl_crystal_description       block
_exptl_crystal_F_000             3736
_exptl_crystal_size_max          0.26
_exptl_crystal_size_mid          0.25
_exptl_crystal_size_min          0.21
_refine_diff_density_max         1.089
_refine_diff_density_min         -0.552
_refine_diff_density_rms         0.115
_refine_ls_extinction_method     none
_refine_ls_goodness_of_fit_ref   1.010
_refine_ls_hydrogen_treatment    constr
_refine_ls_matrix_type           full
_refine_ls_number_parameters     532
_refine_ls_number_reflns         7172
_refine_ls_number_restraints     103
_refine_ls_restrained_S_all      1.009
_refine_ls_R_factor_all          0.0940
_refine_ls_R_factor_gt           0.0587
_refine_ls_shift/su_max          0.002
_refine_ls_shift/su_mean         0.000
_refine_ls_structure_factor_coef Fsqd
_refine_ls_weighting_details
'w=1/[\s^2^(Fo^2^)+(0.0716P)^2^] where P=(Fo^2^+2Fc^2^)/3'
_refine_ls_weighting_scheme      calc
_refine_ls_wR_factor_gt          0.1380
_refine_ls_wR_factor_ref         0.1677
_reflns_Friedel_coverage         0.000
_reflns_number_gt                4659
_reflns_number_total             7172
_reflns_threshold_expression     'I > 2\s(I)'
_iucr_refine_instructions_details
;

    wangj_tb.res created by SHELXL-2014/7

TITL wangj_Tb in Ia
CELL 0.71 14.994758 15.578794 35.010483 90 94.4054 90
ZERR 8 0.000531 0.00046 0.001197 0 0.0036 0
LATT 2
SYMM -X,+Y,0.5-Z
SFAC C H N O Tb
UNIT 352 224 16 96 8
DFIX 1.5 C37 O11
SIMU 0.02 0.04 1.7 C40 C41 C42 C43 C38 C39 O11 C44 O12
ISOR 0.005 0.01 C43 C38 C39 C42 C41 C40 O12 C44 C43 C38 C39 C38 C42 C43 C40 =
 C39 C42 C41 C41 C40 C44 C41 O12 C44
 
L.S. 20 0 0
PLAN  20
MORE -1
BOND $H
CONF
ABIN
fmap 2 53
acta
OMIT -3 50.02
OMIT 1 2 3
OMIT 2 2 0
OMIT -2 3 1
OMIT -1 2 5
OMIT 0 2 4
OMIT 0 3 1
OMIT 0 5 7
OMIT 2 5 11
OMIT 1 3 6
OMIT 2 0 4
OMIT -1 1 6
OMIT 0 4 8
OMIT -1 3 4
OMIT 1 3 8
OMIT -1 2 3
OMIT 3 3 6
OMIT 0 5 1
OMIT 3 4 11
OMIT 3 3 2
OMIT 2 5 1
OMIT -2 3 3
OMIT -2 1 3
OMIT 4 1 1
REM <olex2.extras>
REM <HklSrc "%.\\wangj_Tb.hkl">
REM </olex2.extras>
 
WGHT    0.071600
FVAR       0.26059
TB1   5    1.021953    0.408433    0.537650    11.00000    0.04517    0.04593 =
         0.05516    0.00127    0.00258    0.00050
O9    4    0.663231    0.728762    0.533002    11.00000    0.06469    0.07064 =
         0.09262    0.00550   -0.00405    0.00351
O1    4    0.869243    0.415928    0.517729    11.00000    0.04643    0.04793 =
         0.06529    0.00293    0.00195   -0.00058
O6    4    0.335342    0.665751    0.245898    11.00000    0.11645    0.15928 =
         0.08866    0.02825   -0.01449    0.01970
O3    4    0.624142    0.210602    0.534023    11.00000    0.05068    0.05389 =
         0.06167    0.00137    0.00221   -0.00250
O10   4    0.660581    0.838632    0.575010    11.00000    0.07185    0.07505 =
         0.12325   -0.00028    0.01099    0.02426
O4    4    0.489872    0.233156    0.506825    11.00000    0.04276    0.05359 =
         0.06751    0.00437    0.00238   -0.00049
O7    4    0.965831    0.510803    0.584284    11.00000    0.07724    0.05579 =
         0.06143    0.00370    0.01520    0.01799
C2    1    0.838107    0.226488    0.607919    11.00000    0.06929    0.06283 =
         0.08868    0.00921    0.01724   -0.00373
AFIX  43
H2    2    0.787218    0.194209    0.601041    11.00000   -1.20000
AFIX   0
C10   1    1.177256    0.434192    0.678762    11.00000    0.10517    0.08459 =
         0.06214   -0.00531   -0.01124    0.00221
AFIX  43
H10   2    1.202305    0.441070    0.703707    11.00000   -1.20000
AFIX   0
O5    4    0.536693    0.525327    0.398702    11.00000    0.07630    0.07772 =
         0.06322    0.00696    0.00351    0.02319
C14   1    0.722221    0.438929    0.489744    11.00000    0.04341    0.04511 =
         0.06918   -0.00462   -0.00205    0.00182
N2    3    1.109383    0.409219    0.604426    11.00000    0.05523    0.05827 =
         0.05591   -0.00275    0.01088    0.00746
C15   1    0.689350    0.365137    0.505587    11.00000    0.05170    0.04802 =
         0.05982   -0.00879   -0.00902    0.00405
AFIX  43
H15   2    0.727550    0.330933    0.521261    11.00000   -1.20000
AFIX   0
C3    1    0.868954    0.234658    0.645227    11.00000    0.07679    0.08200 =
         0.06966    0.01270    0.01856    0.00154
AFIX  43
H3    2    0.839997    0.206915    0.664282    11.00000   -1.20000
AFIX   0
C12   1    1.180835    0.457192    0.612344    11.00000    0.05970    0.05573 =
         0.06837    0.00451   -0.00356    0.00273
AFIX  43
H12   2    1.208115    0.482308    0.592146    11.00000   -1.20000
AFIX   0
C20   1    0.573995    0.470335    0.461376    11.00000    0.05131    0.04663 =
         0.06189    0.00075    0.00427    0.00175
C9    1    1.097885    0.384279    0.672257    11.00000    0.09162    0.06739 =
         0.06254   -0.01263   -0.00525   -0.00974
C19   1    0.661763    0.491754    0.468535    11.00000    0.05477    0.04676 =
         0.05502    0.00431    0.00812    0.00290
AFIX  43
H19   2    0.682061    0.543286    0.458971    11.00000   -1.20000
AFIX   0
C36   1    0.959440    0.699812    0.604374    11.00000    0.07963    0.07925 =
         0.08752   -0.01144   -0.01752    0.00615
AFIX  43
H36   2    1.014147    0.680837    0.615585    11.00000   -1.20000
AFIX   0
C16   1    0.600835    0.341279    0.498566    11.00000    0.05387    0.04625 =
         0.05144   -0.00188    0.00376    0.00464
C31   1    0.832632    0.680441    0.560248    11.00000    0.05980    0.06310 =
         0.06672    0.00221   -0.00268   -0.00063
AFIX  43
H31   2    0.803648    0.650134    0.540045    11.00000   -1.20000
AFIX   0
C18   1    0.543407    0.394706    0.476216    11.00000    0.04577    0.05364 =
         0.05611   -0.00150    0.00136   -0.00588
AFIX  43
H18   2    0.483751    0.379203    0.471243    11.00000   -1.20000
AFIX   0
C32   1    0.791497    0.750674    0.574972    11.00000    0.06534    0.06113 =
         0.06484    0.00999    0.01356    0.01097
C21   1    0.511798    0.527433    0.437540    11.00000    0.05491    0.06192 =
         0.06300    0.01185   -0.00262    0.00105
AFIX  23
H21A  2    0.450666    0.507705    0.438545    11.00000   -1.20000
H21B  2    0.515680    0.585690    0.447306    11.00000   -1.20000
AFIX   0
C11   1    1.217452    0.472054    0.649595    11.00000    0.06962    0.07557 =
         0.06400   -0.00544   -0.00201   -0.00563
AFIX  43
H11   2    1.267623    0.506665    0.654316    11.00000   -1.20000
AFIX   0
C24   1    0.452612    0.588623    0.303976    11.00000    0.10663    0.12154 =
         0.07105    0.01719   -0.01501    0.03380
AFIX  43
H24   2    0.467830    0.579091    0.279072    11.00000   -1.20000
AFIX   0
C1    1    0.884582    0.267681    0.580141    11.00000    0.05830    0.04686 =
         0.07554    0.00283    0.00151   -0.00503
AFIX  43
H1    2    0.863673    0.261189    0.554603    11.00000   -1.20000
AFIX   0
C34   1    0.836284    0.796794    0.603278    11.00000    0.08451    0.05928 =
         0.07528   -0.00411   -0.00611    0.01465
AFIX  43
H34   2    0.808703    0.844406    0.613235    11.00000   -1.20000
AFIX   0
C33   1    0.698812    0.778348    0.561637    11.00000    0.05870    0.08251 =
         0.08325    0.03019    0.01381    0.00175
C13   1    0.819888    0.460657    0.494210    11.00000    0.05166    0.03776 =
         0.05962    0.00489    0.00829    0.00338
N1    3    0.956958    0.315642    0.588027    11.00000    0.06062    0.04743 =
         0.06180    0.00292    0.00674   -0.00137
C6    1    1.068612    0.372260    0.634071    11.00000    0.07157    0.05639 =
         0.05733   -0.00491    0.00296    0.01003
C28   1    0.319322    0.676121    0.280495    11.00000    0.09788    0.13752 =
         0.10031    0.04278   -0.02817   -0.01487
AFIX  43
H28   2    0.271157    0.709338    0.286917    11.00000   -1.20000
AFIX   0
C35   1    0.921428    0.774992    0.617643    11.00000    0.10854    0.06958 =
         0.09686   -0.03100   -0.02659    0.02440
C30   1    0.917061    0.653976    0.575127    11.00000    0.05350    0.05274 =
         0.05909    0.00761    0.00356    0.00221
C27   1    0.378402    0.634588    0.310299    11.00000    0.08341    0.10658 =
         0.07081    0.01682   -0.00239    0.01666
C4    1    0.944297    0.284890    0.654785    11.00000    0.07656    0.06650 =
         0.06627    0.00467    0.02169   -0.00648
C26   1    0.356823    0.646745    0.348280    11.00000    0.07143    0.10549 =
         0.09546    0.01830   -0.00559    0.02316
AFIX  43
H26   2    0.306822    0.679442    0.352802    11.00000   -1.20000
AFIX   0
C17   1    0.570058    0.256999    0.513939    11.00000    0.05573    0.05145 =
         0.05058   -0.00260    0.00346   -0.00008
C23   1    0.505447    0.556056    0.334523    11.00000    0.09121    0.11849 =
         0.08171    0.00253    0.00771    0.04238
AFIX  43
H23   2    0.557758    0.526899    0.330055    11.00000   -1.20000
AFIX   0
C7    1    0.980312    0.298961    0.693851    11.00000    0.12666    0.08942 =
         0.06017    0.00539    0.01880   -0.01250
AFIX  43
H7    2    0.951732    0.274259    0.713788    11.00000   -1.20000
AFIX   0
C25   1    0.406847    0.612125    0.378909    11.00000    0.07058    0.07762 =
         0.07283    0.00794   -0.00122    0.00927
AFIX  43
H25   2    0.390550    0.619550    0.403795    11.00000   -1.20000
AFIX   0
C5    1    0.987555    0.321955    0.625276    11.00000    0.05963    0.04923 =
         0.07621    0.00468    0.00426    0.00772
C8    1    1.053833    0.346691    0.702077    11.00000    0.12495    0.08034 =
         0.05504    0.00920    0.00294   -0.00199
AFIX  43
H8    2    1.075534    0.354853    0.727419    11.00000   -1.20000
AFIX   0
C29   1    0.956817    0.572163    0.561593    11.00000    0.04630    0.05797 =
         0.06233   -0.00483   -0.00452    0.00876
C22   1    0.482090    0.565953    0.371605    11.00000    0.08148    0.07843 =
         0.06386    0.00620   -0.00657    0.00882
O2    4    0.846263    0.520451    0.473733    11.00000    0.04400    0.05893 =
         0.06517    0.00489   -0.00010    0.00002
O8    4    0.980063    0.565110    0.528032    11.00000    0.04804    0.04831 =
         0.05753   -0.00334    0.00384   -0.00814
O11   4    1.059953    0.861410    0.621356    11.00000    0.16158    0.17849 =
         0.18960    0.00996   -0.02754   -0.00931
C37   1    0.979392    0.829941    0.645826    11.00000    0.13269    0.09363 =
         0.15342   -0.01483   -0.05203   -0.00628
AFIX  23
H37A  2    1.001855    0.796444    0.667859    11.00000   -1.20000
H37B  2    0.945905    0.878477    0.654558    11.00000   -1.20000
AFIX   0
C43   1    1.208687    0.924133    0.619625    11.00000    0.16266    0.16589 =
         0.16652   -0.00532    0.01344   -0.00009
AFIX  43
H43   2    1.202916    0.919978    0.593051    11.00000   -1.20000
AFIX   0
C38   1    1.143630    0.896930    0.641430    11.00000    0.16096    0.16311 =
         0.16066   -0.00111    0.00903   -0.00534
C39   1    1.143795    0.903775    0.681969    11.00000    0.18377    0.18557 =
         0.18451   -0.00224    0.01249   -0.00320
AFIX  43
H39   2    1.095480    0.886535    0.695249    11.00000   -1.20000
AFIX   0
C42   1    1.287515    0.959944    0.639827    11.00000    0.17614    0.17815 =
         0.17729   -0.00310    0.01438    0.00319
AFIX  43
H42   2    1.333419    0.981047    0.626066    11.00000   -1.20000
AFIX   0
C41   1    1.295112    0.963053    0.676767    11.00000    0.18208    0.18325 =
         0.18197   -0.00348    0.01126   -0.00266
C40   1    1.222869    0.938757    0.700703    11.00000    0.19407    0.19622 =
         0.19703   -0.00443    0.01249   -0.00299
AFIX  43
H40   2    1.228743    0.946031    0.727142    11.00000   -1.20000
AFIX   0
O12   4    1.384103    1.004458    0.731686    11.00000    0.27884    0.28255 =
         0.26741   -0.02580    0.03372   -0.03163
C44   1    1.378844    0.990617    0.691063    11.00000    0.23144    0.23457 =
         0.23352    0.00014    0.01788   -0.00396
AFIX  43
H44   2    1.426491    0.999227    0.675989    11.00000   -1.20000
AFIX   0
HKLF 4
 
REM  wangj_Tb in Ia
REM R1 =  0.0587 for    4659 Fo > 4sig(Fo)  and  0.0940 for all    7172 data
REM    532 parameters refined using    103 restraints
 
END  
     
WGHT      0.0715      0.0000 

REM Highest difference peak  1.089,  deepest hole -0.552,  1-sigma level  0.115
Q1    1   0.4797  0.2757  0.4598  11.00000  0.05    1.02
Q2    1   0.9182  0.8678  0.6770  11.00000  0.05    0.87
Q3    1   0.2650  0.7322  0.2965  11.00000  0.05    0.78
Q4    1   1.3259  1.0590  0.7191  11.00000  0.05    0.62
Q5    1   1.0696  0.5924  0.6153  11.00000  0.05    0.61
Q6    1   1.3545  0.9820  0.6581  11.00000  0.05    0.57
Q7    1   1.0551  0.4428  0.5580  11.00000  0.05    0.52
Q8    1   1.2223  0.8472  0.6556  11.00000  0.05    0.51
Q9    1   0.9987  0.3668  0.5254  11.00000  0.05    0.50
Q10   1   0.9788  0.4396  0.5259  11.00000  0.05    0.50
Q11   1   0.9635  0.3812  0.5374  11.00000  0.05    0.48
Q12   1   1.2581  0.8745  0.6455  11.00000  0.05    0.48
Q13   1   1.2022  0.8264  0.6454  11.00000  0.05    0.47
Q14   1   0.5984  0.7426  0.5242  11.00000  0.05    0.46
Q15   1   1.1586  0.8756  0.7279  11.00000  0.05    0.43
Q16   1   1.0503  0.3699  0.5533  11.00000  0.05    0.41
Q17   1   0.8596  0.1388  0.5972  11.00000  0.05    0.36
Q18   1   1.2624  0.9842  0.5826  11.00000  0.05    0.36
Q19   1   0.8506  0.4003  0.5003  11.00000  0.05    0.35
Q20   1   0.7098  0.8373  0.5961  11.00000  0.05    0.34

  REM The information below was added by Olex2.
  REM
  REM R1 = 0.0587 for 4659 Fo > 4sig(Fo) and 0.0940 for all 21091 data
  REM n/a parameters refined using n/a restraints
  REM Highest difference peak 1.09, deepest hole -0.55
  REM Mean Shift 0, Max Shift -0.002.

  REM +++ Tabular Listing of Refinement Information +++
  REM R1_all = 0.0940
  REM R1_gt = 0.0587
  REM wR_ref = 0.1677
  REM GOOF = 1.010
  REM Shift_max = -0.002
  REM Shift_mean = 0
  REM Reflections_all = 21091
  REM Reflections_gt = 4659
  REM Parameters = n/a
  REM Hole = -0.55
  REM Peak = 1.09
  REM Flack = n/a

  
;
_cod_data_source_file            c7dt03604c2.cif
_cod_data_source_block           wangj_tb
_cod_depositor_comments
'Adding full bibliography for 1548244--1548245.cif.'
_cod_database_code               1548244
_shelx_shelxl_version_number     2014/7
_shelx_space_group_comment
;
The symmetry employed for this shelxl refinement is uniquely defined
by the following loop, which should always be used as a source of
symmetry information in preference to the above space-group names.
They are only intended as comments.
;
_reflns_odcompleteness_completeness 99.71
_reflns_odcompleteness_iscentric 1
_reflns_odcompleteness_theta     26.32
_olex2_refinement_description
;
1. Fixed Uiso
 At 1.2 times of:
  All C(H) groups, All C(H,H) groups
2. Restrained distances
 C37-O11
 1.5 with sigma of 0.02
3. Uiso/Uaniso restraints and constraints
C40 \\sim C41 \\sim C42 \\sim C43 \\sim C38 \\sim C39 \\sim O11 \\sim C44 \\sim
O12: within 1.7A with sigma of 0.02 and sigma for terminal atoms of 0.04
Uanis(C43) \\sim Ueq, Uanis(C38) \\sim Ueq, Uanis(C39) \\sim Ueq, Uanis(C42)
\\sim Ueq, Uanis(C41) \\sim Ueq, Uanis(C40) \\sim Ueq, Uanis(O12) \\sim Ueq,
Uanis(C44) \\sim Ueq, Uanis(C43) \\sim Ueq, Uanis(C38) \\sim Ueq, Uanis(C39)
\\sim Ueq, Uanis(C38) \\sim Ueq, Uanis(C42) \\sim Ueq, Uanis(C43) \\sim Ueq,
Uanis(C40) \\sim Ueq, Uanis(C39) \\sim Ueq, Uanis(C42) \\sim Ueq, Uanis(C41)
\\sim Ueq, Uanis(C41) \\sim Ueq, Uanis(C40) \\sim Ueq, Uanis(C44) \\sim Ueq,
Uanis(C41) \\sim Ueq, Uanis(O12) \\sim Ueq, Uanis(C44) \\sim Ueq: with sigma of
0.005 and sigma for terminal atoms of 0.01
4.a Secondary CH2 refined with riding coordinates:
 C21(H21A,H21B), C37(H37A,H37B)
4.b Aromatic/amide H refined with riding coordinates:
 C2(H2), C10(H10), C15(H15), C3(H3), C12(H12), C19(H19), C36(H36), C31(H31),
 C18(H18), C11(H11), C24(H24), C1(H1), C34(H34), C28(H28), C26(H26), C23(H23),
 C7(H7), C25(H25), C8(H8), C43(H43), C39(H39), C42(H42), C40(H40), C44(H44)
;
_shelx_fab_file
;
 -17 -1 -8 4.01 0.02
 -17 1 -8 4.05 -0.08
 -17 1 -6 -1.35 0.15
 -17 -1 -6 -1.36 -0.07
 -17 1 -4 -0.54 -0.05
 -17 -1 -4 -0.50 0.07
 -17 -1 -2 -0.15 -0.03
 -17 1 -2 -0.12 -0.07
 -17 1 0 2.02 0.05
 -17 -1 0 2.02 0.02
 -17 1 2 -2.97 0.07
 -17 -1 2 -2.96 -0.03
 -17 -1 4 2.41 0.05
 -17 1 4 2.41 -0.15
 -17 1 6 -1.21 0.14
 -17 -1 6 -1.20 -0.07
 -17 1 8 0.27 -0.10
 -17 -1 8 0.24 0.06
 -17 -1 10 0.15 -0.03
 -17 1 10 0.13 0.07
 -17 -1 12 -0.10 -0.01
 -17 1 12 -0.13 0.00
 -17 -1 14 0.04 0.00
 -17 1 14 0.08 -0.09
 -17 1 14 0.08 -0.09
 -17 2 -7 -2.79 0.12
 -17 -2 -7 2.79 0.00
 -17 -2 -5 0.19 -0.08
 -17 2 -5 -0.21 -0.13
 -17 2 -3 0.66 0.02
 -17 -2 -3 -0.64 0.18
 -17 -2 -1 -0.92 -0.21
 -17 2 -1 0.92 0.02
 -17 2 1 -2.10 0.07
 -17 -2 1 2.09 0.16
 -17 -2 3 -2.03 -0.08
 -17 2 3 2.03 -0.18
 -17 2 5 -1.29 0.17
 -17 -2 5 1.30 0.04
 -17 2 7 0.17 -0.09
 -17 -2 7 -0.17 -0.02
 -17 -2 9 -1.04 -0.03
 -17 2 9 1.04 0.01
 -17 -2 11 1.32 0.11
 -17 2 11 -1.32 0.07
 -17 -2 13 -0.25 -0.11
 -17 2 13 0.27 -0.16
 -17 2 13 0.27 -0.16
 -17 3 -6 0.18 -0.12
 -17 -3 -6 0.18 -0.04
 -17 3 -4 0.01 0.05
 -17 -3 -4 0.01 -0.11
 -17 -3 -2 0.60 0.24
 -17 3 -2 0.61 0.05
 -17 3 0 0.09 -0.04
 -17 -3 0 0.09 -0.20
 -17 -3 2 -1.37 0.06
 -17 3 2 -1.38 -0.06
 -17 -3 4 1.23 0.05
 -17 3 4 1.26 0.12
 -17 3 6 -0.51 -0.07
 -17 -3 6 -0.49 -0.07
 -17 3 8 1.33 -0.01
 -17 3 8 1.33 -0.01
 -17 -3 8 1.33 0.07
 -17 -3 10 -2.91 -0.14
 -17 3 10 -2.90 0.07
 -17 3 10 -2.90 0.07
 -17 -3 12 2.28 0.19
 -17 3 12 2.27 -0.12
 -17 3 12 2.27 -0.12
 -17 -4 -5 0.82 -0.04
 -17 4 -5 -0.83 0.10
 -17 -4 -3 -2.54 -0.11
 -17 4 -3 2.55 0.02
 -17 4 -1 -1.32 -0.08
 -17 -4 -1 1.31 0.15
 -17 -4 1 2.35 -0.03
 -17 4 1 -2.38 0.04
 -17 -4 3 -3.84 -0.11
 -17 4 3 3.89 0.04
 -17 -4 5 1.75 0.14
 -17 4 5 -1.80 -0.05
 -17 -4 7 -0.17 -0.07
 -17 4 7 0.19 0.01
 -17 4 7 0.19 0.01
 -17 4 9 -1.74 0.01
 -17 -4 9 1.76 0.07
 -17 4 9 -1.74 0.01
 -17 -4 11 -3.47 -0.14
 -17 4 11 3.44 -0.01
 -17 4 11 3.44 -0.01
 -17 5 -2 -4.05 -0.01
 -17 -5 -2 -4.05 -0.10
 -17 5 0 0.67 -0.01
 -17 -5 0 0.69 0.09
 -17 5 2 3.21 0.06
 -17 -5 2 3.16 0.03
 -17 5 4 -2.81 -0.06
 -17 -5 4 -2.76 -0.09
 -17 5 6 -0.38 0.03
 -17 -5 6 -0.42 0.02
 -17 5 6 -0.38 0.03
 -17 -5 8 1.30 0.06
 -17 5 8 1.29 -0.05
 -17 5 8 1.29 -0.05
 -16 0 -14 -0.55 -0.05
 -16 0 -12 -1.68 -0.07
 -16 0 -10 8.74 0.15
 -16 0 -8 -13.22 -0.10
 -16 0 -6 10.43 0.03
 -16 0 -4 -5.10 -0.07
 -16 0 -2 3.56 0.15
 -16 0 0 -4.46 -0.13
 -16 0 2 2.70 0.04
 -16 0 4 1.60 -0.01
 -16 0 6 -3.97 0.07
 -16 0 8 3.16 -0.10
 -16 0 10 -2.08 0.00
 -16 0 12 2.27 0.07
 -16 0 14 -1.76 0.03
 -16 0 14 -1.76 0.03
 -16 0 16 -1.07 -0.21
 -16 0 18 4.82 0.26
 -16 0 20 -6.77 -0.12
 -16 1 -15 1.33 -0.06
 -16 -1 -15 -1.32 0.08
 -16 1 -13 -0.50 0.06
 -16 -1 -13 0.49 0.04
 -16 1 -11 4.38 0.02
 -16 -1 -11 -4.38 -0.18
 -16 1 -9 -9.58 -0.10
 -16 -1 -9 9.58 0.10
 -16 1 -7 9.81 0.16
 -16 -1 -7 -9.80 0.13
 -16 1 -5 -5.49 -0.18
 -16 -1 -5 5.47 -0.22
 -16 1 -3 2.67 0.15
 -16 -1 -3 -2.65 0.04
 -16 1 -1 -3.22 -0.03
 -16 -1 -1 3.21 0.19
 -16 1 1 2.84 -0.12
 -16 -1 1 -2.85 -0.24
 -16 1 3 0.82 0.18
 -16 -1 3 -0.82 0.19
 -16 1 5 -4.42 -0.12
 -16 -1 5 4.44 -0.18
 -16 1 7 4.91 0.02
 -16 -1 7 -4.93 0.22
 -16 1 9 -3.85 0.01
 -16 -1 9 3.86 -0.15
 -16 1 11 3.62 0.04
 -16 -1 11 -3.62 -0.01
 -16 1 11 3.62 0.04
 -16 -1 13 3.34 0.06
 -16 1 13 -3.33 0.00
 -16 1 13 -3.33 0.00
 -16 1 15 1.05 -0.14
 -16 -1 17 -2.42 -0.19
 -16 1 17 2.44 0.27
 -16 -1 19 4.56 0.16
 -16 1 19 -4.56 -0.23
 -16 -1 21 -4.05 -0.04
 -16 1 21 4.06 0.09
 -16 -2 -14 -2.02 0.03
 -16 2 -14 -2.03 0.06
 -16 -2 -12 2.15 0.13
 -16 2 -12 2.15 -0.07
 -16 2 -10 -4.28 0.04
 -16 -2 -10 -4.30 -0.17
 -16 -2 -8 4.84 -0.04
 -16 2 -8 4.83 0.04
 -16 -2 -6 -2.17 0.27
 -16 2 -6 -2.18 -0.11
 -16 -2 -4 -0.21 -0.22
 -16 2 -4 -0.18 0.06
 -16 2 -2 -0.44 0.08
 -16 -2 -2 -0.43 -0.08
 -16 -2 0 1.36 0.30
 -16 2 0 1.34 -0.23
 -16 2 2 0.82 0.27
 -16 -2 2 0.79 -0.29
 -16 2 4 -4.47 -0.19
 -16 -2 4 -4.46 0.22
 -16 2 6 6.03 0.07
 -16 -2 6 6.04 -0.23
 -16 2 8 -5.46 0.00
 -16 2 8 -5.46 0.00
 -16 -2 10 4.97 -0.15
 -16 2 10 4.96 -0.01
 -16 2 10 4.96 -0.01
 -16 2 12 -4.40 0.00
 -16 2 12 -4.40 0.00
 -16 -2 12 -4.41 0.00
 -16 2 14 2.04 -0.03
 -16 2 14 2.04 -0.03
 -16 -2 14 2.07 0.03
 -16 2 16 1.37 0.09
 -16 2 18 -2.91 -0.12
 -16 2 20 1.53 0.10
 -16 -3 -13 -2.06 0.00
 -16 3 -13 2.07 0.01
 -16 -3 -11 2.16 0.12
 -16 3 -11 -2.14 0.02
 -16 3 -9 1.68 -0.02
 -16 -3 -9 -1.72 -0.10
 -16 -3 -7 -1.07 -0.08
 -16 3 -7 1.07 -0.03
 -16 -3 -5 4.27 0.20
 -16 3 -5 -4.24 0.05
 -16 -3 -3 -4.35 -0.07
 -16 3 -3 4.33 0.04
 -16 3 -1 -1.84 -0.18
 -16 -3 -1 1.83 -0.16
 -16 3 1 0.74 0.20
 -16 -3 1 -0.71 0.23
 -16 3 3 -2.51 -0.10
 -16 -3 3 2.49 -0.14
 -16 3 5 4.58 0.00
 -16 -3 5 -4.58 0.10
 -16 3 7 -4.73 0.02
 -16 -3 7 4.75 -0.19
 -16 3 7 -4.73 0.02
 -16 3 9 3.58 0.02
 -16 -3 9 -3.60 0.27
 -16 3 9 3.58 0.02
 -16 -3 11 2.13 -0.24
 -16 3 11 -2.11 -0.06
 -16 -3 13 0.05 0.13
 -16 3 13 -0.08 0.09
 -16 3 13 -0.08 0.09
 -16 -3 15 -2.71 -0.07
 -16 3 15 2.74 -0.13
 -16 3 17 -3.82 0.17
 -16 3 19 2.14 -0.17
 -16 4 -12 -1.31 -0.06
 -16 -4 -12 -1.33 0.05
 -16 -4 -10 1.63 0.04
 -16 4 -10 1.59 0.03
 -16 -4 -8 0.27 -0.03
 -16 4 -8 0.29 -0.06
 -16 4 -6 -4.79 0.16
 -16 -4 -6 -4.80 -0.11
 -16 4 -4 8.17 -0.19
 -16 -4 -4 8.19 0.19
 -16 -4 -2 -7.03 -0.10
 -16 4 -2 -7.04 0.11
 -16 -4 0 3.06 -0.01
 -16 4 0 3.10 -0.04
 -16 4 2 -0.94 0.07
 -16 -4 2 -0.91 -0.01
 -16 -4 4 2.18 0.09
 -16 4 4 2.17 -0.12
 -16 4 4 2.17 -0.12
 -16 4 6 -4.06 0.05
 -16 -4 6 -4.08 -0.02
 -16 4 6 -4.06 0.05
 -16 4 8 3.44 0.12
 -16 4 8 3.44 0.12
 -16 -4 8 3.46 -0.18
 -16 4 10 -0.27 -0.23
 -16 4 10 -0.27 -0.23
 -16 -4 10 -0.28 0.36
 -16 4 12 -3.13 0.24
 -16 -4 12 -3.10 -0.38
 -16 4 12 -3.13 0.24
 -16 4 14 4.66 -0.23
 -16 4 14 4.66 -0.23
 -16 -4 14 4.63 0.28
 -16 4 16 -3.89 0.28
 -16 -4 16 -3.87 -0.17
 -16 4 18 1.74 -0.36
 -16 5 -11 0.91 -0.01
 -16 -5 -11 -0.93 0.09
 -16 5 -9 -1.93 0.00
 -16 -5 -9 1.96 0.01
 -16 5 -7 -0.44 0.15
 -16 -5 -7 0.43 0.04
 -16 5 -5 5.54 -0.33
 -16 -5 -5 -5.54 -0.20
 -16 -5 -3 8.43 0.26
 -16 5 -3 -8.45 0.35
 -16 5 -1 5.96 -0.26
 -16 -5 -1 -5.92 -0.16
 -16 5 1 -1.15 0.20
 -16 -5 1 1.12 0.07
 -16 5 3 -0.20 -0.19
 -16 5 3 -0.20 -0.19
 -16 -5 3 0.19 -0.11
 -16 5 5 -2.99 0.08
 -16 5 5 -2.99 0.08
 -16 -5 5 3.02 0.15
 -16 5 7 5.58 0.17
 -16 5 7 5.58 0.17
 -16 -5 7 -5.60 -0.03
 -16 5 9 -3.03 -0.37
 -16 5 9 -3.03 -0.37
 -16 -5 9 3.02 -0.19
 -16 5 11 -2.72 0.37
 -16 5 11 -2.72 0.37
 -16 -5 11 2.72 0.35
 -16 -5 13 -5.84 -0.35
 -16 5 13 5.86 -0.25
 -16 5 13 5.86 -0.25
 -16 -5 15 3.87 0.26
 -16 5 15 -3.89 0.18
 -16 5 15 -3.89 0.18
 -16 5 17 -0.25 -0.23
 -16 -5 17 0.26 -0.16
 -16 -6 -8 2.80 0.01
 -16 6 -8 2.79 -0.01
 -16 -6 -6 -0.59 0.11
 -16 6 -6 -0.58 -0.20
 -16 6 -4 -3.59 0.32
 -16 -6 -4 -3.57 -0.23
 -16 -6 -2 4.81 0.17
 -16 6 -2 4.84 -0.25
 -16 -6 0 -1.30 0.02
 -16 6 0 -1.33 0.15
 -16 6 2 -2.41 -0.11
 -16 -6 2 -2.40 -0.10
 -16 6 2 -2.41 -0.11
 -16 6 4 0.92 0.04
 -16 6 4 0.92 0.04
 -16 -6 6 4.29 0.02
 -16 6 6 4.25 0.17
 -16 6 6 4.25 0.17
 -16 -6 8 -5.90 0.05
 -16 6 8 -5.91 -0.37
 -16 6 8 -5.91 -0.37
 -16 6 10 0.97 0.37
 -16 6 10 0.97 0.37
 -16 -6 10 0.94 -0.16
 -16 6 12 5.15 -0.21
 -16 -6 12 5.16 0.22
 -16 6 12 5.15 -0.21
 -16 6 14 -5.83 0.08
 -16 -6 14 -5.81 -0.19
 -16 6 14 -5.83 0.08
 -16 7 -5 0.40 0.20
 -16 -7 -5 -0.41 0.12
 -16 7 -3 2.39 -0.12
 -16 -7 -3 -2.38 -0.14
 -16 7 -1 -1.95 -0.02
 -16 -7 -1 1.95 -0.04
 -16 -7 1 2.05 0.23
 -16 7 1 -2.07 0.07
 -16 7 1 -2.07 0.07
 -16 7 3 4.52 -0.08
 -16 -7 3 -4.47 -0.28
 -16 7 3 4.52 -0.08
 -16 7 5 -1.51 0.20
 -16 -7 5 1.46 0.21
 -16 7 5 -1.51 0.20
 -16 -7 7 3.33 -0.15
 -16 7 7 -3.30 -0.34
 -16 7 7 -3.30 -0.34
 -16 7 9 3.30 0.30
 -16 7 9 3.30 0.30
 -16 -7 9 -3.30 0.15
 -16 -7 11 -1.77 -0.17
 -16 7 11 1.76 -0.10
 -16 7 11 1.76 -0.10
 -16 8 0 2.04 0.20
 -16 8 0 2.04 0.20
 -16 -8 2 3.07 0.24
 -16 8 2 3.10 -0.17
 -16 8 2 3.10 -0.17
 -16 8 4 -5.39 0.21
 -16 8 4 -5.39 0.21
 -16 8 6 2.32 -0.32
 -16 -8 6 2.29 0.27
 -15 1 -18 0.99 0.00
 -15 -1 -18 1.03 -0.05
 -15 1 -16 -1.07 -0.04
 -15 -1 -16 -1.11 0.05
 -15 -1 -14 1.33 -0.08
 -15 1 -14 1.30 0.12
 -15 -1 -12 -0.99 0.07
 -15 1 -12 -0.98 -0.10
 -15 1 -10 -0.28 -0.01
 -15 -1 -10 -0.25 0.03
 -15 -1 -8 1.34 -0.10
 -15 1 -8 1.36 0.02
 -15 1 -6 -1.24 0.11
 -15 -1 -6 -1.24 0.01
 -15 -1 -4 0.98 0.14
 -15 1 -4 0.95 -0.21
 -15 1 -2 -2.18 0.12
 -15 -1 -2 -2.19 -0.15
 -15 1 0 3.93 0.03
 -15 -1 0 3.92 0.01
 -15 1 2 -3.27 -0.02
 -15 -1 2 -3.23 0.06
 -15 -1 4 -0.35 0.04
 -15 1 4 -0.32 -0.12
 -15 -1 6 3.46 -0.16
 -15 1 6 3.44 0.14
 -15 -1 8 -2.90 0.16
 -15 1 8 -2.89 -0.05
 -15 1 8 -2.89 -0.05
 -15 -1 10 -0.38 -0.04
 -15 1 10 -0.38 0.01
 -15 1 10 -0.38 0.01
 -15 -1 12 2.57 -0.06
 -15 1 12 2.58 -0.08
 -15 1 12 2.58 -0.08
 -15 1 14 -1.31 0.12
 -15 -1 14 -1.30 0.05
 -15 -1 16 -2.25 0.05
 -15 1 16 -2.23 -0.06
 -15 -1 18 4.80 -0.11
 -15 1 18 4.76 -0.01
 -15 1 20 -3.94 0.02
 -15 -1 20 -3.95 0.04
 -15 -1 22 0.37 0.10
 -15 1 22 0.39 0.01
 -15 -1 24 2.79 -0.15
 -15 1 24 2.75 -0.02
 -15 2 -19 1.58 -0.03
 -15 -2 -19 -1.58 0.09
 -15 2 -17 -0.61 0.05
 -15 -2 -17 0.63 -0.03
 -15 -2 -15 0.31 0.03
 -15 2 -15 -0.31 0.05
 -15 2 -13 0.70 -0.17
 -15 -2 -13 -0.71 -0.14
 -15 2 -11 -1.42 0.15
 -15 -2 -11 1.42 0.20
 -15 -2 -9 -2.51 -0.09
 -15 2 -9 2.53 -0.05
 -15 2 -7 -2.83 0.02
 -15 -2 -7 2.81 -0.05
 -15 -2 -5 -2.69 0.04
 -15 2 -5 2.70 -0.10
 -15 2 -3 -4.44 0.12
 -15 -2 -3 4.44 0.09
 -15 -2 -1 -7.86 -0.15
 -15 2 -1 7.87 -0.06
 -15 2 1 -8.71 0.09
 -15 -2 1 8.69 0.10
 -15 -2 3 -4.24 -0.10
 -15 2 3 4.27 -0.23
 -15 2 5 1.71 0.28
 -15 -2 5 -1.74 0.21
 -15 2 7 -3.24 -0.13
 -15 -2 7 3.26 -0.27
 -15 2 7 -3.24 -0.13
 -15 -2 9 0.47 0.14
 -15 2 9 -0.47 -0.06
 -15 2 9 -0.47 -0.06
 -15 -2 11 -4.68 0.13
 -15 2 11 4.68 0.07
 -15 2 11 4.68 0.07
 -15 2 13 -5.12 0.04
 -15 -2 13 5.12 -0.28
 -15 2 15 1.85 -0.07
 -15 2 17 2.05 0.02
 -15 2 19 -3.38 -0.01
 -15 -2 19 3.40 -0.09
 -15 -2 21 -0.84 -0.02
 -15 2 21 0.84 0.08
 -15 2 23 3.59 -0.14
 -15 -2 23 -3.61 0.12
 -15 -3 -18 -0.84 0.04
 -15 3 -18 -0.82 0.06
 -15 3 -16 -1.94 -0.01
 -15 -3 -16 -1.93 0.05
 -15 -3 -14 3.73 0.02
 -15 3 -14 3.72 -0.12
 -15 -3 -12 -3.87 -0.21
 -15 3 -12 -3.87 0.17
 -15 -3 -10 3.56 0.24
 -15 3 -10 3.57 -0.06
 -15 3 -8 -3.15 -0.09
 -15 -3 -8 -3.13 -0.02
 -15 3 -6 2.68 0.13
 -15 -3 -6 2.64 -0.21
 -15 -3 -4 -3.90 0.18
 -15 3 -4 -3.94 -0.06
 -15 -3 -2 7.68 0.00
 -15 3 -2 7.71 -0.01
 -15 3 0 -10.18 0.10
 -15 -3 0 -10.17 -0.13
 -15 -3 2 7.08 0.17
 -15 3 2 7.09 -0.27
 -15 -3 4 -0.59 -0.24
 -15 3 4 -0.60 0.42
 -15 3 4 -0.60 0.42
 -15 3 6 -2.56 -0.34
 -15 3 6 -2.56 -0.34
 -15 -3 6 -2.58 0.36
 -15 -3 8 0.10 -0.35
 -15 3 8 0.07 0.10
 -15 3 8 0.07 0.10
 -15 -3 10 3.61 0.11
 -15 3 10 3.63 0.07
 -15 3 10 3.63 0.07
 -15 3 12 -4.32 -0.03
 -15 3 12 -4.32 -0.03
 -15 -3 12 -4.32 0.17
 -15 3 14 2.67 -0.08
 -15 3 16 -1.09 0.14
 -15 3 18 0.30 -0.14
 -15 3 20 -0.55 0.16
 -15 3 22 2.55 -0.15
 -15 -3 24 -5.18 0.07
 -15 3 24 -5.16 0.11
 -15 -4 -17 1.13 -0.07
 -15 4 -17 -1.16 0.01
 -15 4 -15 4.30 -0.11
 -15 -4 -15 -4.29 0.13
 -15 -4 -13 5.11 0.01
 -15 4 -13 -5.12 0.16
 -15 4 -11 4.56 -0.08
 -15 -4 -11 -4.56 -0.19
 -15 4 -9 -4.06 -0.07
 -15 -4 -9 4.04 0.13
 -15 4 -7 3.16 0.16
 -15 -4 -7 -3.13 0.14
 -15 -4 -5 2.30 -0.31
 -15 4 -5 -2.34 -0.14
 -15 -4 -3 -3.52 0.23
 -15 4 -3 3.55 0.08
 -15 4 -1 -5.83 -0.01
 -15 -4 -1 5.82 -0.04
 -15 -4 1 -4.91 -0.06
 -15 4 1 4.89 -0.12
 -15 4 3 0.01 0.27
 -15 -4 3 0.01 0.09
 -15 4 3 0.01 0.27
 -15 4 5 -3.52 -0.31
 -15 4 5 -3.52 -0.31
 -15 -4 5 3.53 -0.16
 -15 4 7 1.97 0.16
 -15 4 7 1.97 0.16
 -15 -4 7 -2.00 0.24
 -15 -4 9 -1.01 -0.19
 -15 4 9 1.05 0.01
 -15 4 9 1.05 0.01
 -15 -4 11 0.55 0.00
 -15 4 11 -0.58 -0.05
 -15 4 11 -0.58 -0.05
 -15 4 13 -2.11 -0.04
 -15 -4 13 2.12 0.12
 -15 4 13 -2.11 -0.04
 -15 4 15 2.62 0.14
 -15 4 17 -0.69 -0.21
 -15 4 19 -0.56 0.25
 -15 4 21 0.58 -0.20
 -15 4 23 -1.44 0.03
 -15 5 -16 2.89 -0.05
 -15 -5 -16 2.87 -0.13
 -15 5 -14 -4.04 0.11
 -15 -5 -14 -4.02 0.16
 -15 -5 -12 3.91 0.00
 -15 5 -12 3.91 -0.09
 -15 -5 -10 -5.05 -0.15
 -15 5 -10 -5.05 0.04
 -15 5 -8 6.41 -0.05
 -15 -5 -8 6.40 0.10
 -15 5 -6 -5.25 0.09
 -15 -5 -6 -5.22 0.09
 -15 5 -4 2.65 -0.07
 -15 -5 -4 2.62 -0.17
 -15 -5 -2 -1.77 0.10
 -15 5 -2 -1.77 -0.01
 -15 -5 0 1.97 0.00
 -15 5 0 1.93 0.06
 -15 5 2 -0.20 -0.04
 -15 5 2 -0.20 -0.04
 -15 -5 4 -2.32 -0.10
 -15 5 4 -2.33 0.02
 -15 5 4 -2.33 0.02
 -15 5 6 1.89 -0.08
 -15 5 6 1.89 -0.08
 -15 -5 6 1.91 0.14
 -15 5 8 0.80 0.13
 -15 -5 8 0.76 -0.13
 -15 5 8 0.80 0.13
 -15 5 10 -0.91 -0.07
 -15 5 10 -0.91 -0.07
 -15 -5 10 -0.88 0.13
 -15 -5 12 -2.52 -0.15
 -15 5 12 -2.52 -0.06
 -15 5 12 -2.52 -0.06
 -15 -5 14 4.76 0.10
 -15 5 14 4.76 0.12
 -15 5 16 -3.00 -0.14
 -15 5 18 0.25 0.20
 -15 5 20 0.06 -0.24
 -15 5 22 0.87 0.11
 -15 -6 -15 2.57 -0.15
 -15 6 -15 -2.59 -0.04
 -15 -6 -13 -1.44 0.15
 -15 6 -13 1.45 0.05
 -15 6 -11 -2.47 -0.04
 -15 -6 -11 2.48 0.01
 -15 6 -9 6.38 -0.12
 -15 -6 -9 -6.38 -0.18
 -15 6 -7 -8.35 0.32
 -15 -6 -7 8.33 0.17
 -15 -6 -5 -5.46 -0.04
 -15 6 -5 5.49 -0.36
 -15 6 -3 -1.54 0.19
 -15 -6 -3 1.52 -0.01
 -15 -6 -1 -0.78 -0.06
 -15 6 -1 0.75 0.03
 -15 6 1 -1.88 -0.15
 -15 6 1 -1.88 -0.15
 -15 -6 1 1.92 0.11
 -15 -6 3 -1.89 0.01
 -15 6 3 1.88 0.22
 -15 6 3 1.88 0.22
 -15 -6 5 1.33 -0.23
 -15 6 5 -1.36 -0.32
 -15 6 5 -1.36 -0.32
 -15 -6 7 -2.17 0.36
 -15 6 7 2.21 0.34
 -15 6 7 2.21 0.34
 -15 6 9 -3.12 -0.18
 -15 6 9 -3.12 -0.18
 -15 -6 9 3.11 -0.34
 -15 -6 11 -1.98 0.24
 -15 6 11 1.97 -0.08
 -15 6 13 -0.18 0.19
 -15 -6 13 0.19 -0.17
 -15 6 13 -0.18 0.19
 -15 -6 15 -0.60 0.09
 -15 6 15 0.59 -0.10
 -15 6 17 -2.57 0.03
 -15 6 19 2.98 -0.11
 -15 7 -12 1.43 -0.21
 -15 -7 -12 1.43 0.16
 -15 7 -10 0.99 0.08
 -15 -7 -10 1.01 0.02
 -15 7 -8 -4.72 0.21
 -15 -7 -8 -4.73 -0.16
 -15 7 -6 4.74 -0.40
 -15 -7 -6 4.73 0.11
 -15 7 -4 -1.38 0.32
 -15 -7 -4 -1.36 0.01
 -15 -7 -2 -0.38 0.03
 -15 7 -2 -0.39 -0.10
 -15 7 0 -1.41 -0.04
 -15 -7 0 -1.43 -0.19
 -15 7 0 -1.41 -0.04
 -15 7 2 3.50 0.10
 -15 7 2 3.50 0.10
 -15 7 4 -3.09 -0.19
 -15 7 4 -3.09 -0.19
 -15 -7 4 -3.05 0.00
 -15 -7 6 1.25 -0.28
 -15 7 6 1.30 0.29
 -15 7 6 1.30 0.29
 -15 7 8 -0.35 -0.22
 -15 7 8 -0.35 -0.22
 -15 -7 8 -0.34 0.35
 -15 7 10 0.73 -0.02
 -15 -7 10 0.75 -0.22
 -15 7 10 0.73 -0.02
 -15 7 12 -2.13 0.20
 -15 7 12 -2.13 0.20
 -15 -7 12 -2.14 0.10
 -15 -7 14 4.39 -0.08
 -15 7 14 4.41 -0.13
 -15 7 14 4.41 -0.13
 -15 -7 16 -6.50 0.09
 -15 7 16 -6.52 -0.06
 -15 7 18 6.60 0.10
 -15 8 -11 -2.09 0.20
 -15 -8 -11 2.09 0.15
 -15 -8 -9 -0.33 0.00
 -15 8 -9 0.36 -0.02
 -15 8 -7 0.68 -0.18
 -15 -8 -7 -0.71 -0.04
 -15 -8 -5 -0.38 -0.06
 -15 8 -5 0.38 0.20
 -15 -8 -3 1.36 0.11
 -15 8 -3 -1.35 -0.07
 -15 8 -1 0.12 0.00
 -15 8 -1 0.12 0.00
 -15 -8 -1 -0.10 0.06
 -15 8 1 1.87 -0.05
 -15 -8 1 -1.89 -0.24
 -15 8 1 1.87 -0.05
 -15 8 3 -1.64 0.08
 -15 8 3 -1.64 0.08
 -15 -8 3 1.63 0.16
 -15 -8 5 1.44 0.14
 -15 8 5 -1.41 -0.02
 -15 8 5 -1.41 -0.02
 -15 8 7 5.05 -0.02
 -15 -8 7 -5.05 -0.32
 -15 8 7 5.05 -0.02
 -15 8 9 -6.46 -0.05
 -15 8 9 -6.46 -0.05
 -15 -8 9 6.42 0.22
 -15 8 11 4.23 0.15
 -15 -8 11 -4.20 -0.03
 -15 8 11 4.23 0.15
 -15 -8 13 -0.64 -0.02
 -15 8 13 0.66 -0.13
 -15 8 13 0.66 -0.13
 -15 8 15 -5.16 0.00
 -15 -8 15 5.12 -0.04
 -15 8 15 -5.16 0.00
 -15 -9 -6 0.88 0.03
 -15 -9 -4 -0.81 -0.11
 -15 -9 -2 -0.30 0.07
 -15 9 0 1.33 -0.01
 -15 -9 0 1.34 0.10
 -15 -9 2 -0.81 -0.15
 -15 9 2 -0.81 0.13
 -15 9 4 -1.73 -0.18
 -15 -9 4 -1.73 -0.06
 -15 9 6 5.53 0.20
 -15 9 6 5.53 0.20
 -15 -9 8 -8.73 -0.32
 -15 9 8 -8.79 -0.23
 -15 9 8 -8.79 -0.23
 -15 9 10 9.01 0.21
 -15 -9 10 8.95 0.11
 -15 9 12 -5.21 -0.12
 -15 9 12 -5.21 -0.12
 -15 -9 12 -5.20 0.07
 -15 -10 1 0.83 0.09
 -15 -10 3 0.39 -0.04
 -15 10 3 -0.37 -0.09
 -15 10 5 1.78 0.14
 -15 -10 5 -1.78 -0.16
 -14 0 -22 10.70 -0.11
 -14 0 -20 -8.44 0.03
 -14 0 -18 2.37 0.06
 -14 0 -16 2.26 -0.05
 -14 0 -14 -4.24 -0.01
 -14 0 -12 4.82 -0.01
 -14 0 -10 -3.17 0.09
 -14 0 -8 -0.77 -0.06
 -14 0 -6 2.88 -0.09
 -14 0 -4 -0.37 0.17
 -14 0 -2 -2.30 -0.07
 -14 0 0 -0.36 -0.06
 -14 0 2 5.36 0.00
 -14 0 4 -4.87 0.20
 -14 0 6 -2.04 -0.25
 -14 0 8 7.80 0.08
 -14 0 10 -6.71 0.07
 -14 0 10 -6.71 0.07
 -14 0 12 1.14 -0.01
 -14 0 14 3.38 -0.11
 -14 0 16 -4.42 0.07
 -14 0 18 2.73 0.05
 -14 0 20 0.09 -0.02
 -14 0 22 -2.10 -0.13
 -14 0 24 1.55 0.16
 -14 0 26 1.30 0.03
 -14 0 28 -3.83 -0.17
 -14 -1 -23 -7.64 0.08
 -14 1 -23 7.67 -0.13
 -14 -1 -21 7.69 -0.05
 -14 1 -21 -7.73 0.11
 -14 -1 -19 -2.86 -0.05
 -14 1 -19 2.90 -0.01
 -14 1 -17 1.63 -0.05
 -14 -1 -17 -1.64 0.06
 -14 1 -15 -3.08 0.02
 -14 -1 -15 3.09 0.03
 -14 -1 -13 -3.61 -0.07
 -14 1 -13 3.60 0.01
 -14 -1 -11 4.19 -0.05
 -14 1 -11 -4.18 0.00
 -14 1 -9 2.73 -0.03
 -14 -1 -9 -2.73 0.12
 -14 -1 -7 -0.28 0.06
 -14 1 -7 0.27 0.04
 -14 -1 -5 0.86 -0.32
 -14 1 -5 -0.87 -0.04
 -14 1 -3 -1.40 0.05
 -14 -1 -3 1.41 0.32
 -14 1 -1 1.77 0.00
 -14 -1 -1 -1.79 -0.01
 -14 1 1 1.57 -0.16
 -14 -1 1 -1.56 -0.25
 -14 1 3 -3.62 0.36
 -14 -1 3 3.61 0.19
 -14 1 5 0.21 -0.41
 -14 -1 5 -0.20 0.01
 -14 1 7 5.33 0.27
 -14 -1 7 -5.35 -0.01
 -14 1 7 5.33 0.27
 -14 1 9 -7.09 -0.08
 -14 -1 9 7.12 -0.15
 -14 1 9 -7.09 -0.08
 -14 1 11 4.35 0.01
 -14 1 13 -0.81 -0.02
 -14 -1 13 0.83 0.03
 -14 -1 15 1.00 -0.19
 -14 1 15 -0.99 -0.05
 -14 -1 17 -1.16 0.14
 -14 1 17 1.13 0.20
 -14 1 19 0.01 -0.22
 -14 -1 19 0.02 -0.05
 -14 -1 21 1.92 0.09
 -14 1 21 -1.94 0.02
 -14 -1 23 -2.88 -0.13
 -14 1 23 2.89 0.19
 -14 -1 25 1.25 -0.02
 -14 1 25 -1.26 -0.20
 -14 1 27 -1.87 0.08
 -14 -1 27 1.88 0.22
 -14 -2 -22 -3.74 0.06
 -14 2 -22 -3.79 0.10
 -14 -2 -20 0.17 0.01
 -14 2 -20 0.21 -0.05
 -14 2 -18 2.94 0.01
 -14 -2 -18 2.95 -0.08
 -14 2 -16 -1.86 -0.02
 -14 -2 -16 -1.84 0.02
 -14 2 -14 -0.37 0.06
 -14 -2 -14 -0.37 0.09
 -14 -2 -12 -0.80 -0.06
 -14 2 -12 -0.79 -0.09
 -14 2 -10 3.63 0.08
 -14 -2 -10 3.63 -0.10
 -14 2 -8 -3.43 -0.04
 -14 -2 -8 -3.43 0.10
 -14 -2 -6 0.50 0.15
 -14 2 -6 0.50 -0.05
 -14 -2 -4 0.97 -0.39
 -14 2 -4 0.99 0.17
 -14 -2 -2 -0.03 0.30
 -14 2 -2 -0.06 -0.16
 -14 -2 0 -0.66 0.05
 -14 2 0 -0.66 -0.02
 -14 2 2 0.32 0.22
 -14 -2 2 0.31 -0.22
 -14 2 4 -0.67 -0.25
 -14 2 4 -0.67 -0.25
 -14 2 6 1.90 0.09
 -14 2 6 1.90 0.09
 -14 -2 6 1.90 0.12
 -14 2 8 -2.36 0.08
 -14 -2 8 -2.38 -0.08
 -14 2 8 -2.36 0.08
 -14 2 10 2.06 -0.12
 -14 2 10 2.06 -0.12
 -14 -2 10 2.09 -0.06
 -14 2 12 -2.60 0.07
 -14 2 14 3.75 -0.10
 -14 2 16 -3.53 0.21
 -14 -2 16 -3.52 -0.16
 -14 -2 18 1.87 0.08
 -14 2 18 1.91 -0.27
 -14 2 20 -1.33 0.14
 -14 -2 20 -1.29 -0.04
 -14 2 22 2.70 0.08
 -14 -2 22 2.69 0.08
 -14 2 24 -3.65 -0.20
 -14 -2 24 -3.66 -0.08
 -14 2 26 2.05 0.18
 -14 -2 26 2.06 -0.03
 -14 3 -21 -1.85 -0.04
 -14 -3 -21 1.88 0.00
 -14 3 -19 4.15 0.03
 -14 -3 -19 -4.16 0.06
 -14 -3 -17 1.52 -0.10
 -14 3 -17 -1.56 -0.07
 -14 3 -15 -3.68 0.10
 -14 -3 -15 3.71 0.02
 -14 -3 -13 -4.66 0.09
 -14 3 -13 4.66 -0.07
 -14 3 -11 -0.11 0.03
 -14 -3 -11 0.09 -0.05
 -14 -3 -9 3.42 -0.10
 -14 3 -9 -3.41 -0.05
 -14 -3 -7 -1.06 0.12
 -14 3 -7 1.05 0.05
 -14 -3 -5 -3.70 0.09
 -14 3 -5 3.73 0.06
 -14 -3 -3 4.88 -0.27
 -14 3 -3 -4.91 -0.19
 -14 -3 -1 -1.80 0.17
 -14 3 -1 1.81 0.13
 -14 -3 1 -1.57 0.08
 -14 3 1 1.59 0.06
 -14 -3 3 2.15 -0.13
 -14 3 3 -2.18 -0.13
 -14 3 3 -2.18 -0.13
 -14 -3 5 0.13 -0.07
 -14 3 5 -0.11 -0.06
 -14 3 5 -0.11 -0.06
 -14 3 7 3.48 0.30
 -14 3 7 3.48 0.30
 -14 -3 7 -3.49 0.24
 -14 3 9 -5.22 -0.33
 -14 -3 9 5.21 -0.20
 -14 3 9 -5.22 -0.33
 -14 -3 11 -3.21 0.07
 -14 3 11 3.24 0.15
 -14 3 13 1.24 -0.01
 -14 3 15 -3.98 0.04
 -14 3 17 2.47 -0.12
 -14 3 19 0.76 0.09
 -14 -3 19 -0.79 -0.01
 -14 3 21 -1.31 0.04
 -14 -3 21 1.32 -0.01
 -14 -3 23 1.46 0.07
 -14 3 23 -1.44 -0.14
 -14 3 25 3.96 0.14
 -14 -3 25 -3.99 -0.11
 -14 -3 27 3.56 0.12
 -14 3 27 -3.55 -0.14
 -14 4 -20 4.49 0.06
 -14 -4 -20 4.50 -0.04
 -14 -4 -18 -2.41 0.10
 -14 4 -18 -2.43 -0.10
 -14 -4 -16 -3.12 -0.12
 -14 4 -16 -3.08 0.11
 -14 4 -14 5.82 -0.01
 -14 -4 -14 5.84 -0.01
 -14 4 -12 -2.09 -0.15
 -14 -4 -12 -2.09 0.17
 -14 4 -10 -3.22 0.18
 -14 -4 -10 -3.23 -0.14
 -14 -4 -8 2.76 -0.06
 -14 4 -8 2.75 -0.05
 -14 -4 -6 3.13 0.14
 -14 4 -6 3.16 -0.02
 -14 -4 -4 -6.92 0.01
 -14 4 -4 -6.96 -0.08
 -14 4 -2 3.95 0.14
 -14 -4 -2 3.93 -0.12
 -14 -4 0 2.30 -0.03
 -14 4 0 2.32 0.04
 -14 4 2 -5.19 -0.26
 -14 -4 2 -5.17 0.29
 -14 4 2 -5.19 -0.26
 -14 4 4 2.33 0.18
 -14 4 4 2.33 0.18
 -14 -4 4 2.32 -0.31
 -14 4 6 3.25 0.15
 -14 -4 6 3.24 0.06
 -14 4 6 3.25 0.15
 -14 -4 8 -7.01 0.14
 -14 4 8 -7.01 -0.36
 -14 4 8 -7.01 -0.36
 -14 -4 10 6.53 -0.11
 -14 4 10 6.55 0.22
 -14 4 10 6.55 0.22
 -14 4 12 -2.73 0.05
 -14 -4 12 -2.70 -0.03
 -14 4 14 -0.97 -0.15
 -14 4 16 1.07 0.06
 -14 4 18 2.50 0.03
 -14 4 20 -5.71 0.00
 -14 4 22 4.51 -0.07
 -14 4 24 0.51 0.09
 -14 4 26 -4.73 -0.08
 -14 -4 26 -4.75 -0.09
 -14 5 -19 -3.10 -0.13
 -14 -5 -19 3.09 -0.03
 -14 5 -17 -0.62 0.15
 -14 -5 -17 0.64 0.11
 -14 5 -15 3.44 -0.04
 -14 -5 -15 -3.46 -0.09
 -14 -5 -13 1.44 -0.12
 -14 5 -13 -1.45 -0.21
 -14 5 -11 -3.60 0.38
 -14 -5 -11 3.60 0.31
 -14 -5 -9 -5.32 -0.23
 -14 5 -9 5.34 -0.29
 -14 5 -7 -0.97 0.11
 -14 -5 -7 0.97 0.00
 -14 -5 -5 4.33 0.04
 -14 5 -5 -4.35 -0.10
 -14 5 -3 3.66 0.20
 -14 -5 -3 -3.64 0.10
 -14 5 -1 2.93 -0.09
 -14 -5 -1 -2.93 -0.10
 -14 5 -1 2.93 -0.09
 -14 5 1 -8.37 -0.27
 -14 -5 1 8.36 -0.20
 -14 5 1 -8.37 -0.27
 -14 5 3 7.32 0.46
 -14 5 3 7.32 0.46
 -14 -5 3 -7.32 0.48
 -14 5 5 -1.88 -0.23
 -14 -5 5 1.91 -0.40
 -14 5 5 -1.88 -0.23
 -14 5 7 -2.04 -0.13
 -14 5 7 -2.04 -0.13
 -14 -5 7 2.03 0.08
 -14 5 9 1.76 0.22
 -14 -5 9 -1.76 0.09
 -14 5 9 1.76 0.22
 -14 -5 11 -0.70 0.00
 -14 5 11 0.70 -0.01
 -14 5 11 0.70 -0.01
 -14 -5 13 2.26 -0.13
 -14 5 13 -2.24 -0.18
 -14 5 15 1.38 0.13
 -14 5 17 1.86 0.04
 -14 5 19 -5.83 -0.14
 -14 5 21 7.20 0.11
 -14 5 23 -3.70 -0.02
 -14 5 25 -2.31 -0.03
 -14 6 -18 0.50 0.15
 -14 -6 -18 0.48 -0.02
 -14 6 -16 1.45 -0.10
 -14 -6 -16 1.47 0.12
 -14 -6 -14 -1.54 -0.05
 -14 6 -14 -1.54 -0.10
 -14 6 -12 -0.90 0.30
 -14 -6 -12 -0.91 -0.19
 -14 6 -10 3.52 -0.33
 -14 -6 -10 3.50 0.34
 -14 -6 -8 -2.96 -0.24
 -14 6 -8 -3.00 0.20
 -14 -6 -6 -0.58 0.12
 -14 6 -6 -0.56 -0.18
 -14 6 -4 2.60 0.33
 -14 -6 -4 2.60 -0.20
 -14 -6 -2 0.47 0.31
 -14 6 -2 0.47 -0.35
 -14 6 -2 0.47 -0.35
 -14 -6 0 -5.87 -0.15
 -14 6 0 -5.87 0.04
 -14 6 0 -5.87 0.04
 -14 6 2 7.42 0.34
 -14 6 2 7.42 0.34
 -14 -6 2 7.43 -0.19
 -14 6 4 -3.69 -0.37
 -14 -6 4 -3.71 0.31
 -14 6 4 -3.69 -0.37
 -14 -6 6 0.07 -0.09
 -14 6 6 0.07 0.07
 -14 6 6 0.07 0.07
 -14 6 8 -1.28 0.16
 -14 6 8 -1.28 0.16
 -14 -6 8 -1.25 -0.17
 -14 6 10 5.26 -0.12
 -14 6 10 5.26 -0.12
 -14 -6 10 5.22 0.16
 -14 -6 12 -6.75 -0.01
 -14 6 12 -6.76 -0.03
 -14 6 12 -6.76 -0.03
 -14 6 14 4.13 0.05
 -14 6 16 0.24 0.06
 -14 6 18 -3.87 -0.18
 -14 6 20 5.44 0.23
 -14 6 22 -3.71 -0.17
 -14 6 24 -0.94 0.04
 -14 7 -17 0.04 -0.09
 -14 -7 -17 -0.07 -0.08
 -14 7 -15 -0.90 -0.01
 -14 -7 -15 0.91 0.16
 -14 -7 -13 -1.83 -0.05
 -14 7 -13 1.84 0.14
 -14 7 -11 -1.30 -0.16
 -14 -7 -11 1.30 -0.18
 -14 -7 -9 0.74 0.29
 -14 7 -9 -0.77 0.08
 -14 -7 -7 -1.74 -0.25
 -14 7 -7 1.78 -0.11
 -14 7 -5 -0.21 0.31
 -14 -7 -5 0.19 0.24
 -14 -7 -3 1.38 -0.33
 -14 7 -3 -1.39 -0.46
 -14 7 -3 -1.39 -0.46
 -14 7 -1 0.27 0.30
 -14 -7 -1 -0.25 0.32
 -14 7 -1 0.27 0.30
 -14 7 1 1.47 0.04
 -14 7 1 1.47 0.04
 -14 -7 1 -1.49 -0.09
 -14 7 3 0.04 -0.18
 -14 -7 3 -0.03 -0.11
 -14 7 3 0.04 -0.18
 -14 7 5 -3.43 0.01
 -14 7 5 -3.43 0.01
 -14 -7 5 3.44 0.06
 -14 7 7 3.11 0.19
 -14 7 7 3.11 0.19
 -14 -7 7 -3.15 0.14
 -14 7 9 2.15 -0.21
 -14 -7 9 -2.10 -0.21
 -14 7 9 2.15 -0.21
 -14 7 11 -6.75 0.14
 -14 -7 11 6.72 0.09
 -14 7 11 -6.75 0.14
 -14 -7 13 -5.75 -0.02
 -14 7 13 5.73 -0.14
 -14 7 15 -0.69 0.17
 -14 7 17 -3.66 -0.15
 -14 7 19 4.93 0.13
 -14 7 21 -3.27 -0.13
 -14 7 23 -0.40 0.08
 -14 8 -16 1.31 0.00
 -14 -8 -16 1.28 -0.13
 -14 8 -14 0.55 0.08
 -14 -8 -14 0.56 0.17
 -14 -8 -12 -2.66 -0.02
 -14 8 -12 -2.67 -0.05
 -14 8 -10 1.60 -0.07
 -14 -8 -10 1.60 -0.21
 -14 -8 -8 2.17 0.29
 -14 8 -8 2.18 0.09
 -14 -8 -6 -3.94 -0.24
 -14 8 -6 -3.96 0.11
 -14 8 -4 1.51 -0.31
 -14 8 -4 1.51 -0.31
 -14 -8 -4 1.51 0.19
 -14 -8 -2 1.66 -0.18
 -14 8 -2 1.67 0.27
 -14 8 -2 1.67 0.27
 -14 8 0 -2.44 -0.05
 -14 8 0 -2.44 -0.05
 -14 -8 0 -2.42 0.07
 -14 8 2 2.81 -0.01
 -14 8 2 2.81 -0.01
 -14 8 4 -5.22 -0.19
 -14 -8 4 -5.20 -0.22
 -14 8 6 6.82 0.38
 -14 8 6 6.82 0.38
 -14 -8 6 6.84 0.15
 -14 8 8 -3.64 -0.33
 -14 8 8 -3.64 -0.33
 -14 -8 8 -3.67 -0.02
 -14 8 10 -2.34 0.20
 -14 -8 10 -2.32 -0.01
 -14 8 10 -2.34 0.20
 -14 8 12 5.01 -0.24
 -14 -8 12 5.03 0.00
 -14 8 12 5.01 -0.24
 -14 8 14 -2.19 0.33
 -14 -8 14 -2.23 -0.05
 -14 8 16 -2.58 -0.26
 -14 -8 16 -2.56 0.18
 -14 8 18 5.35 0.08
 -14 8 20 -5.11 0.01
 -14 -9 -13 1.14 0.06
 -14 -9 -11 -2.07 0.12
 -14 -9 -9 -0.49 -0.29
 -14 -9 -7 3.71 0.26
 -14 -9 -5 -3.36 -0.11
 -14 9 -5 3.35 -0.14
 -14 9 -3 -0.14 0.16
 -14 -9 -3 0.14 0.01
 -14 9 -1 -1.73 0.01
 -14 9 -1 -1.73 0.01
 -14 -9 -1 1.73 0.05
 -14 -9 1 -1.39 -0.18
 -14 9 1 1.40 -0.05
 -14 9 1 1.40 -0.05
 -14 -9 3 1.93 0.36
 -14 9 3 -1.96 -0.23
 -14 9 3 -1.96 -0.23
 -14 9 5 4.05 0.52
 -14 9 5 4.05 0.52
 -14 -9 5 -4.02 -0.44
 -14 9 7 -4.17 -0.45
 -14 -9 7 4.15 0.31
 -14 9 9 0.57 0.14
 -14 9 9 0.57 0.14
 -14 -9 9 -0.56 -0.08
 -14 -9 11 -3.49 -0.09
 -14 9 11 3.48 -0.01
 -14 9 11 3.48 -0.01
 -14 9 13 -4.21 0.16
 -14 -9 13 4.22 0.12
 -14 9 13 -4.21 0.16
 -14 9 15 1.71 -0.28
 -14 -9 15 -1.71 -0.11
 -14 9 17 1.60 0.17
 -14 -9 17 -1.60 0.14
 -14 -10 -10 -1.36 0.21
 -14 -10 -8 0.00 -0.24
 -14 -10 -6 -0.06 0.09
 -14 -10 -4 1.83 0.06
 -14 -10 -2 -2.47 -0.10
 -14 10 0 0.53 -0.11
 -14 -10 0 0.56 0.14
 -14 10 2 1.29 -0.09
 -14 -10 2 1.29 -0.30
 -14 10 4 -0.53 0.43
 -14 -10 4 -0.57 0.47
 -14 -10 6 -1.19 -0.44
 -14 10 6 -1.23 -0.47
 -14 10 8 1.04 0.10
 -14 -10 8 1.02 0.14
 -14 -10 10 1.18 0.22
 -14 10 10 1.19 0.28
 -14 -10 12 -3.37 -0.34
 -14 10 12 -3.40 -0.29
 -14 10 14 4.36 0.05
 -14 -10 14 4.31 0.21
 -14 -11 -5 -4.76 -0.07
 -14 -11 -3 5.20 0.11
 -14 -11 -1 -2.49 -0.10
 -14 -11 1 -1.09 0.16
 -14 11 3 -2.21 0.21
 -14 -11 3 2.22 -0.30
 -14 -11 5 -0.75 0.36
 -14 11 5 0.72 -0.35
 -14 -11 7 -0.93 -0.20
 -14 11 7 0.95 0.19
 -14 -11 9 1.35 -0.10
 -14 11 9 -1.36 0.15
 -13 -1 -26 5.83 0.13
 -13 1 -26 5.79 -0.08
 -13 -1 -24 -6.83 -0.18
 -13 1 -24 -6.80 0.07
 -13 1 -22 3.38 -0.02
 -13 -1 -22 3.37 0.12
 -13 1 -20 2.17 -0.03
 -13 -1 -20 2.21 0.00
 -13 -1 -18 -5.15 -0.05
 -13 1 -18 -5.14 0.01
 -13 -1 -16 3.21 -0.02
 -13 1 -16 3.23 0.04
 -13 1 -14 1.42 -0.06
 -13 -1 -14 1.43 0.09
 -13 1 -12 -4.52 0.03
 -13 -1 -12 -4.50 -0.05
 -13 1 -10 3.44 -0.04
 -13 -1 -10 3.43 -0.02
 -13 1 -8 0.51 0.10
 -13 -1 -8 0.51 -0.01
 -13 -1 -6 -3.26 0.11
 -13 1 -6 -3.28 -0.11
 -13 -1 -4 2.17 -0.11
 -13 1 -4 2.19 0.00
 -13 1 -2 0.94 0.09
 -13 -1 -2 0.96 0.01
 -13 -1 0 -2.12 0.03
 -13 1 0 -2.08 -0.01
 -13 1 2 0.17 -0.10
 -13 -1 2 0.20 0.02
 -13 1 4 1.92 0.04
 -13 -1 4 1.91 -0.05
 -13 1 6 -1.62 0.15
 -13 -1 6 -1.63 -0.03
 -13 1 6 -1.62 0.15
 -13 -1 8 -0.37 0.10
 -13 1 8 -0.36 -0.17
 -13 1 8 -0.36 -0.17
 -13 -1 10 2.18 -0.04
 -13 1 10 2.15 -0.07
 -13 1 12 -3.42 0.28
 -13 -1 12 -3.46 -0.08
 -13 1 14 4.63 -0.25
 -13 -1 14 4.64 0.12
 -13 -1 16 -5.12 -0.05
 -13 1 16 -5.13 0.11
 -13 -1 18 3.93 -0.02
 -13 1 18 3.92 -0.05
 -13 -1 20 -1.53 0.01
 -13 1 20 -1.51 0.02
 -13 1 22 -0.50 0.06
 -13 -1 22 -0.47 0.09
 -13 -1 24 1.17 -0.20
 -13 1 24 1.19 -0.11
 -13 -1 26 -0.89 0.21
 -13 1 26 -0.91 0.02
 -13 1 28 0.41 0.17
 -13 -1 28 0.40 -0.14
 -13 -1 30 -0.30 0.07
 -13 1 30 -0.30 -0.30
 -13 -2 -25 8.54 0.16
 -13 2 -25 -8.52 0.06
 -13 -2 -23 -6.00 -0.19
 -13 2 -23 6.00 -0.02
 -13 2 -21 1.62 -0.01
 -13 -2 -21 -1.65 0.09
 -13 -2 -19 8.11 0.04
 -13 2 -19 -8.08 -0.02
 -13 -2 -17 -8.32 -0.03
 -13 2 -17 8.30 0.10
 -13 -2 -15 3.18 -0.12
 -13 2 -15 -3.17 -0.15
 -13 -2 -13 2.37 0.19
 -13 2 -13 -2.39 0.14
 -13 -2 -11 -3.92 -0.10
 -13 2 -11 3.94 -0.11
 -13 -2 -9 0.73 0.06
 -13 2 -9 -0.73 0.19
 -13 2 -7 -3.64 -0.35
 -13 -2 -7 3.64 -0.26
 -13 -2 -5 -4.42 0.52
 -13 2 -5 4.41 0.38
 -13 2 -3 -1.00 -0.23
 -13 -2 -3 1.01 -0.50
 -13 -2 -1 2.04 0.19
 -13 2 -1 -2.03 0.04
 -13 2 1 0.94 0.02
 -13 -2 1 -0.96 0.06
 -13 2 3 2.21 -0.05
 -13 2 3 2.21 -0.05
 -13 -2 3 -2.19 -0.04
 -13 -2 5 3.12 -0.09
 -13 2 5 -3.11 0.14
 -13 2 5 -3.11 0.14
 -13 2 7 1.32 -0.18
 -13 -2 7 -1.32 0.12
 -13 2 7 1.32 -0.18
 -13 -2 9 -0.53 -0.02
 -13 2 9 0.51 0.05
 -13 2 9 0.51 0.05
 -13 2 11 -1.54 0.13
 -13 -2 13 -3.02 -0.01
 -13 2 13 3.01 -0.17
 -13 -2 15 4.55 0.07
 -13 2 15 -4.56 0.10
 -13 2 17 4.04 -0.11
 -13 -2 17 -4.03 -0.06
 -13 -2 19 1.39 0.01
 -13 2 19 -1.38 0.20
 -13 -2 21 0.72 -0.04
 -13 2 21 -0.74 -0.16
 -13 -2 23 -0.59 0.14
 -13 2 23 0.60 -0.04
 -13 -2 25 -0.67 -0.16
 -13 2 25 0.66 0.15
 -13 -2 27 1.33 0.03
 -13 2 27 -1.33 -0.03
 -13 -2 29 -1.12 0.12
 -13 2 29 1.13 -0.17
 -13 3 -24 5.40 0.03
 -13 -3 -24 5.41 0.10
 -13 -3 -22 0.10 -0.10
 -13 3 -22 0.10 -0.06
 -13 -3 -20 -6.20 -0.04
 -13 3 -20 -6.18 0.03
 -13 3 -18 7.97 0.06
 -13 -3 -18 7.99 0.14
 -13 3 -16 -5.59 -0.14
 -13 -3 -16 -5.61 -0.03
 -13 -3 -14 2.28 -0.16
 -13 3 -14 2.25 0.17
 -13 -3 -12 -0.26 0.17
 -13 3 -12 -0.23 -0.14
 -13 3 -10 0.25 0.16
 -13 -3 -10 0.26 -0.06
 -13 3 -8 -1.84 -0.30
 -13 -3 -8 -1.84 0.12
 -13 -3 -6 2.80 -0.43
 -13 3 -6 2.80 0.42
 -13 -3 -4 -1.14 0.59
 -13 3 -4 -1.13 -0.34
 -13 3 -2 -1.60 0.03
 -13 -3 -2 -1.60 -0.31
 -13 -3 0 1.88 -0.19
 -13 3 0 1.85 0.28
 -13 3 2 0.36 -0.41
 -13 3 2 0.36 -0.41
 -13 -3 2 0.33 0.39
 -13 -3 4 -1.44 -0.18
 -13 3 4 -1.46 0.40
 -13 3 4 -1.46 0.40
 -13 3 6 0.32 -0.32
 -13 -3 6 0.31 -0.08
 -13 3 6 0.32 -0.32
 -13 -3 8 0.27 0.09
 -13 3 8 0.25 0.17
 -13 3 8 0.25 0.17
 -13 -3 10 0.99 0.05
 -13 3 10 1.01 -0.01
 -13 3 12 -1.57 -0.02
 -13 3 14 0.18 -0.05
 -13 3 16 0.36 0.02
 -13 3 18 1.84 0.15
 -13 -3 18 1.85 0.04
 -13 3 20 -3.89 -0.26
 -13 -3 20 -3.88 -0.15
 -13 -3 22 2.30 0.12
 -13 3 22 2.30 0.15
 -13 -3 24 1.60 -0.02
 -13 3 24 1.61 0.03
 -13 -3 26 -3.94 0.04
 -13 3 26 -3.97 -0.05
 -13 -3 28 3.67 -0.18
 -13 3 28 3.70 -0.09
 -13 3 30 -2.64 0.21
 -13 -3 30 -2.63 0.24
 -13 4 -23 -1.05 -0.10
 -13 -4 -23 1.07 0.04
 -13 -4 -21 2.26 0.00
 -13 4 -21 -2.28 0.08
 -13 4 -19 3.03 -0.02
 -13 -4 -19 -3.02 -0.14
 -13 -4 -17 2.35 0.19
 -13 4 -17 -2.34 -0.04
 -13 4 -15 3.00 0.06
 -13 -4 -15 -3.02 -0.04
 -13 -4 -13 4.38 -0.11
 -13 4 -13 -4.35 -0.06
 -13 -4 -11 -3.93 0.07
 -13 4 -11 3.93 0.09
 -13 -4 -9 2.00 0.02
 -13 4 -9 -2.01 -0.16
 -13 4 -7 0.53 0.23
 -13 -4 -7 -0.52 0.08
 -13 -4 -5 -0.69 -0.29
 -13 4 -5 0.68 -0.21
 -13 -4 -3 2.50 0.25
 -13 4 -3 -2.49 0.03
 -13 4 -1 3.48 0.23
 -13 4 -1 3.48 0.23
 -13 -4 -1 -3.50 0.09
 -13 4 1 -2.48 -0.43
 -13 -4 1 2.51 -0.37
 -13 4 1 -2.48 -0.43
 -13 -4 3 -1.67 0.30
 -13 4 3 1.65 0.48
 -13 4 3 1.65 0.48
 -13 -4 5 2.89 -0.01
 -13 4 5 -2.87 -0.39
 -13 4 5 -2.87 -0.39
 -13 4 7 3.70 0.20
 -13 4 7 3.70 0.20
 -13 -4 7 -3.72 -0.13
 -13 4 9 -1.30 -0.01
 -13 4 9 -1.30 -0.01
 -13 -4 9 1.32 0.02
 -13 4 11 -2.05 -0.04
 -13 4 13 2.48 -0.08
 -13 4 15 -1.20 0.15
 -13 4 17 2.37 -0.03
 -13 4 19 -5.56 -0.17
 -13 4 21 5.90 0.20
 -13 4 23 -1.77 -0.09
 -13 -4 23 1.77 0.18
 -13 -4 25 2.67 -0.02
 -13 4 25 -2.68 0.05
 -13 -4 27 -3.78 0.01
 -13 4 27 3.81 -0.15
 -13 4 29 -2.88 0.26
 -13 -4 29 2.84 -0.09
 -13 5 -22 -0.27 0.05
 -13 -5 -22 -0.24 0.05
 -13 -5 -20 -0.26 0.00
 -13 5 -20 -0.23 0.00
 -13 -5 -18 0.99 -0.13
 -13 5 -18 0.98 -0.02
 -13 -5 -16 1.56 0.16
 -13 5 -16 1.55 -0.04
 -13 -5 -14 -6.19 -0.03
 -13 5 -14 -6.17 0.09
 -13 -5 -12 7.67 -0.05
 -13 5 -12 7.66 -0.04
 -13 5 -10 -4.53 -0.04
 -13 -5 -10 -4.52 -0.01
 -13 -5 -8 0.87 0.10
 -13 5 -8 0.89 0.05
 -13 -5 -6 0.52 -0.05
 -13 5 -6 0.49 0.01
 -13 5 -4 -1.32 -0.04
 -13 -5 -4 -1.35 -0.08
 -13 5 -2 2.78 -0.01
 -13 -5 -2 2.79 0.13
 -13 5 -2 2.78 -0.01
 -13 5 0 -3.18 0.05
 -13 5 0 -3.18 0.05
 -13 -5 0 -3.17 -0.13
 -13 5 2 2.34 0.01
 -13 -5 2 2.32 0.18
 -13 5 2 2.34 0.01
 -13 5 4 -2.84 -0.11
 -13 5 4 -2.84 -0.11
 -13 -5 4 -2.83 -0.29
 -13 5 6 4.74 0.10
 -13 5 6 4.74 0.10
 -13 -5 6 4.75 0.33
 -13 -5 8 -4.50 -0.21
 -13 5 8 -4.48 0.04
 -13 5 8 -4.48 0.04
 -13 -5 10 1.18 0.04
 -13 5 10 1.17 -0.12
 -13 5 12 1.14 0.00
 -13 5 14 -0.17 0.17
 -13 5 16 -0.64 -0.12
 -13 5 18 -2.02 -0.10
 -13 5 20 5.50 0.23
 -13 5 22 -5.27 -0.15
 -13 5 24 1.86 0.04
 -13 5 26 0.42 -0.09
 -13 5 28 -0.03 0.19
 -13 6 -21 -0.72 0.04
 -13 -6 -21 0.74 0.05
 -13 -6 -19 -1.63 -0.01
 -13 6 -19 1.62 -0.09
 -13 -6 -17 -0.43 -0.10
 -13 6 -17 0.44 0.01
 -13 6 -15 -5.49 0.14
 -13 -6 -15 5.48 0.11
 -13 -6 -13 -8.27 -0.01
 -13 6 -13 8.29 -0.17
 -13 6 -11 -5.38 0.07
 -13 -6 -11 5.37 -0.03
 -13 -6 -9 -0.55 -0.08
 -13 6 -9 0.56 -0.05
 -13 6 -7 0.86 0.20
 -13 -6 -7 -0.89 0.24
 -13 6 -5 0.41 -0.30
 -13 -6 -5 -0.37 -0.24
 -13 6 -3 -0.57 0.08
 -13 -6 -3 0.55 0.00
 -13 6 -3 -0.57 0.08
 -13 6 -1 -0.37 0.33
 -13 6 -1 -0.37 0.33
 -13 -6 -1 0.35 0.35
 -13 -6 1 -0.02 -0.58
 -13 6 1 0.08 -0.53
 -13 6 1 0.08 -0.53
 -13 6 3 0.57 0.36
 -13 -6 3 -0.62 0.62
 -13 6 3 0.57 0.36
 -13 6 5 0.82 -0.08
 -13 -6 5 -0.81 -0.51
 -13 6 5 0.82 -0.08
 -13 -6 7 2.93 0.32
 -13 6 7 -2.92 0.00
 -13 6 7 -2.92 0.00
 -13 6 9 2.46 -0.07
 -13 6 9 2.46 -0.07
 -13 -6 9 -2.46 -0.15
 -13 6 11 -0.13 0.03
 -13 -6 11 0.11 0.04
 -13 6 13 -0.58 0.15
 -13 6 15 -0.43 -0.18
 -13 6 17 -0.29 -0.06
 -13 6 19 3.59 0.31
 -13 6 21 -5.99 -0.28
 -13 6 23 4.99 0.05
 -13 6 25 -2.71 0.10
 -13 6 27 2.33 -0.07
 -13 7 -20 1.28 -0.10
 -13 -7 -20 1.28 0.04
 -13 7 -18 -0.34 0.09
 -13 -7 -18 -0.34 0.00
 -13 -7 -16 -2.93 -0.09
 -13 7 -16 -2.94 0.07
 -13 7 -14 5.51 -0.20
 -13 -7 -14 5.48 0.07
 -13 7 -12 -3.52 0.14
 -13 -7 -12 -3.48 0.02
 -13 -7 -10 -1.63 0.01
 -13 7 -10 -1.62 -0.06
 -13 -7 -8 4.32 -0.24
 -13 7 -8 4.33 0.19
 -13 7 -6 -2.55 -0.44
 -13 -7 -6 -2.57 0.46
 -13 7 -4 -0.22 0.40
 -13 7 -4 -0.22 0.40
 -13 -7 -4 -0.18 -0.39
 -13 7 -2 1.19 0.05
 -13 7 -2 1.19 0.05
 -13 -7 -2 1.17 0.01
 -13 7 0 -1.55 -0.50
 -13 7 0 -1.55 -0.50
 -13 -7 0 -1.57 0.38
 -13 -7 2 2.44 -0.51
 -13 7 2 2.40 0.51
 -13 7 2 2.40 0.51
 -13 7 4 -2.17 -0.16
 -13 7 4 -2.17 -0.16
 -13 -7 4 -2.18 0.39
 -13 -7 6 0.15 -0.23
 -13 7 6 0.17 -0.10
 -13 7 6 0.17 -0.10
 -13 7 8 1.26 0.08
 -13 7 8 1.26 0.08
 -13 -7 8 1.27 0.12
 -13 7 10 -0.30 -0.01
 -13 -7 10 -0.28 -0.02
 -13 7 10 -0.30 -0.01
 -13 -7 12 -1.67 -0.06
 -13 7 12 -1.65 0.09
 -13 7 14 2.86 -0.16
 -13 7 16 -4.01 -0.02
 -13 7 18 6.09 0.32
 -13 7 20 -7.68 -0.41
 -13 7 22 6.67 0.18
 -13 7 24 -3.75 0.11
 -13 7 26 1.96 -0.22
 -13 -8 -19 -0.06 0.09
 -13 8 -19 0.06 0.07
 -13 8 -17 -1.52 0.01
 -13 -8 -17 1.52 -0.03
 -13 -8 -15 -3.08 -0.05
 -13 8 -15 3.10 -0.16
 -13 -8 -13 2.52 0.02
 -13 8 -13 -2.57 0.16
 -13 -8 -11 0.88 0.03
 -13 8 -11 -0.84 -0.02
 -13 -8 -9 -4.54 0.08
 -13 8 -9 4.55 -0.01
 -13 -8 -7 5.57 -0.34
 -13 8 -7 -5.59 -0.19
 -13 8 -5 4.12 0.36
 -13 -8 -5 -4.13 0.50
 -13 8 -5 4.12 0.36
 -13 8 -3 -2.14 -0.21
 -13 -8 -3 2.18 -0.34
 -13 8 -3 -2.14 -0.21
 -13 8 -1 0.52 -0.13
 -13 8 -1 0.52 -0.13
 -13 -8 -1 -0.57 0.00
 -13 -8 1 -0.75 0.22
 -13 8 1 0.76 0.24
 -13 8 1 0.76 0.24
 -13 8 3 -1.16 -0.02
 -13 8 3 -1.16 -0.02
 -13 -8 3 1.17 -0.22
 -13 -8 5 -0.37 0.16
 -13 8 5 0.37 -0.21
 -13 8 5 0.37 -0.21
 -13 -8 7 -0.53 -0.13
 -13 8 7 0.54 0.20
 -13 8 7 0.54 0.20
 -13 8 9 -0.32 -0.06
 -13 -8 9 0.29 0.08
 -13 8 9 -0.32 -0.06
 -13 8 11 -0.95 0.02
 -13 8 11 -0.95 0.02
 -13 -8 11 0.99 0.05
 -13 8 13 2.73 -0.06
 -13 -8 13 -2.73 -0.13
 -13 8 15 -5.05 -0.03
 -13 8 17 7.55 0.25
 -13 8 19 -8.72 -0.37
 -13 8 21 7.23 0.25
 -13 8 23 -3.83 -0.01
 -13 -9 -16 2.49 -0.06
 -13 -9 -14 -3.07 -0.03
 -13 9 -12 2.64 -0.03
 -13 -9 -12 2.59 0.00
 -13 9 -10 -0.77 -0.13
 -13 -9 -10 -0.76 0.05
 -13 9 -8 -1.97 0.13
 -13 -9 -8 -1.93 0.03
 -13 -9 -6 4.41 -0.21
 -13 9 -6 4.45 0.00
 -13 9 -4 -5.39 -0.05
 -13 -9 -4 -5.41 0.28
 -13 -9 -2 4.28 -0.11
 -13 9 -2 4.23 -0.01
 -13 9 -2 4.23 -0.01
 -13 -9 0 -1.97 -0.12
 -13 9 0 -1.93 -0.02
 -13 9 0 -1.93 -0.02
 -13 9 2 0.27 0.17
 -13 9 2 0.27 0.17
 -13 -9 2 0.28 0.21
 -13 9 4 0.27 -0.22
 -13 -9 4 0.28 -0.17
 -13 9 4 0.27 -0.22
 -13 9 6 -0.68 0.06
 -13 -9 6 -0.70 0.13
 -13 9 6 -0.68 0.06
 -13 -9 8 1.41 -0.09
 -13 9 8 1.37 0.12
 -13 9 8 1.37 0.12
 -13 9 10 -1.40 -0.11
 -13 -9 10 -1.46 0.01
 -13 9 10 -1.40 -0.11
 -13 9 12 0.61 0.01
 -13 9 12 0.61 0.01
 -13 -9 12 0.64 0.09
 -13 9 14 -0.44 -0.03
 -13 -9 14 -0.40 -0.07
 -13 9 16 1.70 0.19
 -13 9 18 -3.16 -0.26
 -13 9 20 3.29 0.16
 -13 9 22 -2.18 -0.01
 -13 -10 -15 1.88 0.03
 -13 -10 -13 -2.91 -0.09
 -13 -10 -11 3.38 -0.02
 -13 -10 -9 -2.36 0.16
 -13 -10 -7 -0.68 -0.13
 -13 -10 -5 4.24 -0.02
 -13 -10 -3 -5.52 0.05
 -13 -10 -1 3.56 0.09
 -13 10 -1 -3.53 -0.03
 -13 -10 1 -0.39 -0.19
 -13 10 1 0.40 0.18
 -13 10 3 1.91 -0.04
 -13 -10 3 -1.91 0.03
 -13 -10 5 3.59 0.26
 -13 10 5 -3.63 -0.43
 -13 -10 7 -5.18 -0.44
 -13 10 7 5.23 0.81
 -13 10 9 -5.32 -0.70
 -13 -10 9 5.31 0.41
 -13 -10 11 -2.61 -0.25
 -13 10 11 2.58 0.25
 -13 -10 13 -1.61 0.07
 -13 10 13 1.61 0.02
 -13 10 15 -4.56 0.05
 -13 -10 15 4.59 0.07
 -13 -10 17 -5.16 -0.16
 -13 10 17 5.12 -0.16
 -13 10 19 -3.84 0.09
 -13 -11 -10 0.91 -0.13
 -13 -11 -8 0.02 0.30
 -13 -11 -6 -2.20 -0.20
 -13 -11 -4 4.14 0.00
 -13 -11 -2 -3.69 0.00
 -13 -11 0 0.94 0.08
 -13 -11 2 2.11 0.14
 -13 11 2 2.11 0.07
 -13 -11 4 -4.52 -0.75
 -13 11 4 -4.62 -0.81
 -13 -11 6 6.69 1.31
 -13 11 6 6.89 1.60
 -13 -11 8 -7.99 -1.36
 -13 11 8 -8.18 -1.68
 -13 11 10 6.63 0.97
 -13 -11 10 6.54 0.88
 -13 -11 12 -1.98 -0.28
 -13 11 12 -1.99 -0.18
 -13 -11 14 -3.45 -0.06
 -13 11 14 -3.45 -0.10
 -13 -11 16 6.97 0.11
 -13 11 16 6.96 0.00
 -13 -12 -7 1.60 0.29
 -13 -12 -5 -1.91 -0.08
 -13 -12 -3 2.12 -0.04
 -13 -12 -1 -1.36 -0.02
 -13 -12 1 -0.08 -0.08
 -13 -12 3 1.54 0.68
 -13 12 3 -1.62 -0.55
 -13 12 5 3.45 1.54
 -13 -12 5 -3.22 -1.52
 -13 -12 7 5.14 1.89
 -13 12 7 -5.45 -2.04
 -13 12 9 6.26 1.57
 -13 -12 9 -6.03 -1.45
 -13 12 11 -4.64 -0.59
 -13 -12 11 4.56 0.60
 -12 0 -28 -12.37 -0.02
 -12 0 -26 7.58 0.03
 -12 0 -24 2.15 0.04
 -12 0 -22 -6.43 -0.11
 -12 0 -20 2.71 0.09
 -12 0 -18 1.32 0.00
 -12 0 -16 0.45 -0.06
 -12 0 -14 -5.48 -0.01
 -12 0 -12 8.91 0.13
 -12 0 -10 -9.78 -0.17
 -12 0 -8 8.72 0.13
 -12 0 -6 -5.52 -0.10
 -12 0 -4 1.24 0.12
 -12 0 -2 1.59 -0.11
 -12 0 0 -2.48 0.01
 -12 0 2 2.75 0.09
 -12 0 4 -1.89 -0.05
 -12 0 6 -1.44 -0.10
 -12 0 6 -1.44 -0.10
 -12 0 8 4.85 0.17
 -12 0 10 -3.85 -0.07
 -12 0 12 -1.18 -0.06
 -12 0 14 4.32 0.03
 -12 0 16 -1.87 0.06
 -12 0 18 -3.12 -0.01
 -12 0 20 5.52 -0.15
 -12 0 22 -4.23 0.18
 -12 0 24 1.74 -0.03
 -12 0 26 0.10 -0.08
 -12 0 28 -1.29 0.01
 -12 0 30 1.79 0.07
 -12 0 32 -1.04 0.00
 -12 -1 -27 -8.17 -0.11
 -12 1 -27 8.17 -0.04
 -12 1 -25 -1.18 0.07
 -12 -1 -25 1.17 0.10
 -12 1 -23 -4.93 -0.13
 -12 -1 -23 4.94 0.01
 -12 -1 -21 -3.94 -0.08
 -12 1 -21 3.92 0.13
 -12 1 -19 0.38 -0.08
 -12 -1 -19 -0.37 0.00
 -12 1 -17 -0.86 0.04
 -12 -1 -17 0.86 0.14
 -12 -1 -15 2.64 -0.17
 -12 1 -15 -2.66 -0.06
 -12 1 -13 5.41 0.11
 -12 -1 -13 -5.40 0.04
 -12 -1 -11 5.87 0.10
 -12 1 -11 -5.86 -0.12
 -12 1 -9 5.78 0.09
 -12 -1 -9 -5.79 -0.10
 -12 1 -7 -5.14 -0.05
 -12 -1 -7 5.14 0.06
 -12 -1 -5 -2.65 -0.12
 -12 1 -5 2.66 0.01
 -12 -1 -3 -0.58 0.22
 -12 1 -3 0.56 0.07
 -12 -1 -1 2.50 -0.15
 -12 1 -1 -2.48 -0.14
 -12 1 1 3.09 0.11
 -12 -1 1 -3.10 -0.12
 -12 -1 3 2.79 0.34
 -12 1 3 -2.80 0.03
 -12 1 3 -2.80 0.03
 -12 1 5 0.46 -0.17
 -12 1 5 0.46 -0.17
 -12 -1 5 -0.43 -0.25
 -12 -1 7 -3.71 -0.02
 -12 1 7 3.67 0.16
 -12 1 7 3.67 0.16
 -12 1 9 -5.85 -0.03
 -12 -1 9 5.88 0.14
 -12 1 11 3.43 -0.10
 -12 -1 11 -3.43 -0.03
 -12 1 13 0.66 0.07
 -12 -1 13 -0.67 -0.04
 -12 -1 15 1.51 -0.06
 -12 1 15 -1.50 0.03
 -12 -1 17 1.21 0.16
 -12 1 17 -1.22 -0.04
 -12 -1 19 -3.55 -0.08
 -12 1 19 3.55 -0.10
 -12 1 21 -3.02 0.19
 -12 -1 21 3.02 -0.07
 -12 -1 23 -1.00 0.06
 -12 1 23 1.00 -0.10
 -12 1 25 0.38 -0.06
 -12 -1 25 -0.39 0.07
 -12 1 27 -0.87 0.07
 -12 -1 27 0.89 -0.10
 -12 1 29 1.05 0.01
 -12 -1 29 -1.07 0.01
 -12 -1 31 0.60 0.00
 -12 1 31 -0.60 0.02
 -12 -2 -28 3.54 0.03
 -12 2 -28 3.55 -0.01
 -12 -2 -26 -1.11 -0.10
 -12 2 -26 -1.11 0.00
 -12 2 -24 -2.27 -0.02
 -12 -2 -24 -2.27 0.04
 -12 2 -22 1.76 0.03
 -12 -2 -22 1.78 0.10
 -12 2 -20 1.37 -0.01
 -12 -2 -20 1.34 -0.14
 -12 -2 -18 -1.78 -0.01
 -12 2 -18 -1.78 0.01
 -12 -2 -16 -0.90 0.17
 -12 2 -16 -0.93 -0.03
 -12 2 -14 1.82 0.03
 -12 -2 -14 1.79 -0.14
 -12 -2 -12 0.71 -0.04
 -12 2 -12 0.70 0.05
 -12 -2 -10 -2.47 0.16
 -12 2 -10 -2.47 -0.15
 -12 2 -8 0.96 0.13
 -12 -2 -8 0.96 -0.11
 -12 2 -6 0.96 -0.01
 -12 -2 -6 0.94 0.03
 -12 -2 -4 -0.33 -0.05
 -12 2 -4 -0.35 -0.02
 -12 2 -2 -1.63 -0.11
 -12 -2 -2 -1.66 0.10
 -12 2 0 2.82 0.25
 -12 -2 0 2.86 0.01
 -12 2 2 -2.93 -0.21
 -12 -2 2 -2.95 -0.24
 -12 2 4 1.82 0.03
 -12 2 4 1.82 0.03
 -12 -2 4 1.81 0.34
 -12 2 6 1.19 0.06
 -12 2 6 1.19 0.06
 -12 -2 6 1.23 -0.18
 -12 -2 8 -4.99 -0.04
 -12 2 8 -4.95 0.02
 -12 2 10 6.60 -0.13
 -12 2 12 -5.31 0.11
 -12 -2 12 -5.28 0.01
 -12 -2 14 3.45 0.04
 -12 2 14 3.47 0.02
 -12 -2 16 -2.98 -0.19
 -12 2 16 -2.99 -0.09
 -12 -2 18 2.75 0.23
 -12 2 18 2.75 0.03
 -12 2 20 -1.05 0.06
 -12 -2 20 -1.04 -0.08
 -12 2 22 -1.45 -0.04
 -12 -2 22 -1.45 -0.04
 -12 2 24 2.64 -0.05
 -12 -2 24 2.64 -0.03
 -12 -2 26 -1.94 0.15
 -12 2 26 -1.93 0.07
 -12 -2 28 0.63 -0.17
 -12 2 28 0.60 -0.02
 -12 2 30 0.31 0.05
 -12 -2 30 0.29 0.15
 -12 2 32 -1.13 -0.20
 -12 -2 32 -1.14 -0.18
 -12 -3 -27 -0.27 0.04
 -12 3 -27 0.27 -0.04
 -12 -3 -25 0.96 -0.07
 -12 3 -25 -0.97 0.08
 -12 3 -23 -0.60 -0.10
 -12 -3 -23 0.61 -0.04
 -12 3 -21 3.47 0.10
 -12 -3 -21 -3.46 0.19
 -12 3 -19 -3.50 -0.09
 -12 -3 -19 3.50 -0.20
 -12 -3 -17 -0.13 0.04
 -12 3 -17 0.10 0.03
 -12 3 -15 1.47 0.00
 -12 -3 -15 -1.43 0.08
 -12 -3 -13 -2.23 0.00
 -12 3 -13 2.21 0.11
 -12 3 -11 -7.05 -0.30
 -12 -3 -11 7.05 -0.20
 -12 -3 -9 -7.28 0.22
 -12 3 -9 7.29 0.30
 -12 3 -7 -3.51 0.09
 -12 -3 -7 3.52 0.07
 -12 -3 -5 -0.57 -0.44
 -12 3 -5 0.57 -0.59
 -12 3 -3 -0.27 0.72
 -12 -3 -3 0.26 0.59
 -12 3 -1 0.67 -0.36
 -12 -3 -1 -0.68 -0.46
 -12 3 -1 0.67 -0.36
 -12 3 1 -0.70 -0.08
 -12 3 1 -0.70 -0.08
 -12 -3 1 0.73 0.28
 -12 3 3 0.99 0.22
 -12 -3 3 -1.02 -0.19
 -12 3 3 0.99 0.22
 -12 3 5 -1.15 -0.10
 -12 3 5 -1.15 -0.10
 -12 -3 5 1.14 0.14
 -12 3 7 -0.23 0.02
 -12 3 7 -0.23 0.02
 -12 -3 7 0.27 -0.06
 -12 3 9 2.89 -0.04
 -12 3 11 -4.84 0.03
 -12 3 13 5.22 0.05
 -12 -3 15 4.95 0.08
 -12 3 15 -4.96 -0.11
 -12 -3 17 -4.54 -0.13
 -12 3 17 4.53 0.09
 -12 3 19 -2.96 -0.03
 -12 -3 19 2.96 0.05
 -12 -3 21 0.17 0.06
 -12 3 21 -0.17 0.03
 -12 -3 23 -3.01 -0.06
 -12 3 23 3.02 -0.07
 -12 3 25 -3.28 0.04
 -12 -3 25 3.26 -0.08
 -12 3 27 1.14 0.06
 -12 -3 27 -1.14 0.22
 -12 -3 29 -0.76 -0.27
 -12 3 29 0.79 -0.09
 -12 3 31 -0.81 -0.05
 -12 -3 31 0.79 0.28
 -12 -4 -26 -0.99 0.14
 -12 -4 -26 -0.99 0.14
 -12 4 -24 -0.35 -0.07
 -12 -4 -24 -0.38 -0.13
 -12 4 -22 2.88 0.11
 -12 -4 -22 2.91 -0.01
 -12 4 -20 -3.59 -0.12
 -12 -4 -20 -3.59 0.16
 -12 -4 -18 0.89 -0.17
 -12 4 -18 0.87 0.07
 -12 -4 -16 1.91 0.04
 -12 4 -16 1.94 -0.01
 -12 4 -14 -0.45 0.04
 -12 -4 -14 -0.42 0.05
 -12 4 -12 -4.31 -0.23
 -12 -4 -12 -4.31 0.05
 -12 4 -10 6.95 0.32
 -12 -4 -10 6.95 -0.16
 -12 -4 -8 -5.09 -0.12
 -12 4 -8 -5.10 0.11
 -12 4 -6 1.64 -1.04
 -12 -4 -6 1.61 0.85
 -12 4 -4 0.41 1.79
 -12 -4 -4 0.49 -1.52
 -12 4 -2 -1.49 -1.70
 -12 -4 -2 -1.56 1.56
 -12 4 -2 -1.49 -1.70
 -12 4 0 2.53 0.89
 -12 4 0 2.53 0.89
 -12 -4 0 2.55 -1.00
 -12 4 2 -2.31 -0.12
 -12 -4 2 -2.29 0.39
 -12 4 2 -2.31 -0.12
 -12 4 4 -0.16 -0.14
 -12 -4 4 -0.17 -0.11
 -12 4 4 -0.16 -0.14
 -12 4 6 2.96 0.04
 -12 4 6 2.96 0.04
 -12 -4 6 2.93 0.10
 -12 -4 8 -3.32 -0.11
 -12 4 8 -3.35 0.09
 -12 4 8 -3.35 0.09
 -12 4 10 1.48 -0.15
 -12 4 12 0.38 0.19
 -12 4 14 -1.38 -0.20
 -12 4 16 2.62 0.12
 -12 4 18 -4.09 0.00
 -12 4 20 3.68 -0.03
 -12 -4 20 3.68 -0.13
 -12 -4 22 -0.65 0.11
 -12 4 22 -0.65 0.00
 -12 4 24 -1.99 -0.01
 -12 -4 24 -1.98 -0.02
 -12 -4 26 1.04 -0.09
 -12 4 26 1.06 0.13
 -12 -4 28 2.00 0.18
 -12 4 28 1.99 -0.23
 -12 4 30 -2.67 0.19
 -12 -4 30 -2.65 -0.25
 -12 -5 -25 -0.21 0.18
 -12 -5 -25 -0.21 0.18
 -12 5 -25 0.24 0.06
 -12 5 -23 1.09 0.02
 -12 -5 -23 -1.12 -0.15
 -12 5 -21 -2.19 -0.07
 -12 -5 -21 2.20 0.03
 -12 5 -19 1.62 0.05
 -12 -5 -19 -1.62 0.09
 -12 -5 -17 -0.20 -0.06
 -12 5 -17 0.22 0.02
 -12 -5 -15 0.86 -0.09
 -12 5 -15 -0.87 -0.04
 -12 5 -13 -0.81 -0.08
 -12 -5 -13 0.79 0.13
 -12 -5 -11 -2.70 -0.01
 -12 5 -11 2.72 0.26
 -12 5 -9 -2.32 -0.08
 -12 -5 -9 2.31 0.08
 -12 -5 -7 0.09 -0.69
 -12 5 -7 -0.07 -0.75
 -12 5 -5 2.17 1.85
 -12 -5 -5 -2.25 1.62
 -12 -5 -3 3.29 -2.09
 -12 5 -3 -3.16 -2.35
 -12 5 -3 -3.16 -2.35
 -12 5 -1 3.90 1.83
 -12 5 -1 3.90 1.83
 -12 -5 -1 -4.00 1.67
 -12 -5 1 4.28 -0.79
 -12 5 1 -4.26 -0.80
 -12 5 1 -4.26 -0.80
 -12 5 3 2.66 0.07
 -12 -5 3 -2.66 0.18
 -12 5 3 2.66 0.07
 -12 5 5 0.98 0.08
 -12 5 5 0.98 0.08
 -12 -5 5 -0.96 -0.07
 -12 5 7 -4.10 0.06
 -12 5 7 -4.10 0.06
 -12 -5 7 4.06 0.12
 -12 5 9 4.60 -0.21
 -12 -5 9 -4.58 -0.07
 -12 5 11 -3.56 0.29
 -12 5 13 3.03 -0.29
 -12 5 15 -2.34 0.18
 -12 5 17 -0.42 0.01
 -12 5 19 3.92 -0.13
 -12 5 21 -4.33 0.12
 -12 5 23 1.39 -0.07
 -12 5 25 0.22 0.10
 -12 -5 27 -2.36 0.02
 -12 5 27 2.32 -0.19
 -12 5 29 -5.29 0.24
 -12 -5 29 5.30 0.06
 -12 6 -24 1.54 -0.01
 -12 -6 -24 1.55 0.07
 -12 -6 -24 1.55 0.07
 -12 -6 -22 -2.28 -0.06
 -12 6 -22 -2.28 -0.06
 -12 -6 -22 -2.28 -0.06
 -12 -6 -20 2.95 0.00
 -12 6 -20 2.96 0.05
 -12 6 -18 -2.99 0.04
 -12 -6 -18 -2.99 0.03
 -12 6 -16 2.13 -0.12
 -12 -6 -16 2.13 0.05
 -12 6 -14 -1.15 0.08
 -12 -6 -14 -1.13 -0.17
 -12 6 -12 0.72 0.09
 -12 -6 -12 0.68 0.13
 -12 -6 -10 -0.09 -0.01
 -12 6 -10 -0.11 -0.20
 -12 6 -8 -1.76 -0.12
 -12 -6 -8 -1.75 0.19
 -12 -6 -6 4.21 -0.82
 -12 6 -6 4.20 0.89
 -12 -6 -4 -5.18 1.42
 -12 6 -4 -5.10 -1.60
 -12 6 -4 -5.10 -1.60
 -12 6 -2 3.92 1.64
 -12 6 -2 3.92 1.64
 -12 -6 -2 4.03 -1.38
 -12 6 0 -2.43 -1.02
 -12 6 0 -2.43 -1.02
 -12 -6 0 -2.50 0.73
 -12 -6 2 1.93 -0.11
 -12 6 2 1.92 0.32
 -12 6 2 1.92 0.32
 -12 -6 4 -1.43 -0.08
 -12 6 4 -1.43 0.01
 -12 6 4 -1.43 0.01
 -12 6 6 0.00 0.00
 -12 -6 6 0.02 0.01
 -12 6 6 0.00 0.00
 -12 6 8 1.39 -0.11
 -12 -6 8 1.38 -0.03
 -12 6 8 1.39 -0.11
 -12 -6 10 -1.95 0.12
 -12 6 10 -1.94 0.21
 -12 6 12 2.86 -0.24
 -12 6 14 -4.52 0.13
 -12 6 16 4.24 0.05
 -12 6 18 -0.16 -0.16
 -12 6 20 -4.29 0.10
 -12 6 22 4.30 0.01
 -12 6 24 -0.99 -0.07
 -12 6 26 0.06 0.04
 -12 6 28 -3.07 0.04
 -12 -7 -23 3.30 0.01
 -12 -7 -23 3.30 0.01
 -12 7 -23 -3.30 -0.10
 -12 7 -21 3.76 0.13
 -12 -7 -21 -3.77 -0.02
 -12 -7 -21 -3.77 -0.02
 -12 -7 -19 4.15 -0.01
 -12 7 -19 -4.15 -0.03
 -12 7 -17 3.59 -0.13
 -12 -7 -17 -3.60 0.01
 -12 -7 -15 1.64 0.07
 -12 7 -15 -1.65 0.22
 -12 7 -13 -0.30 -0.15
 -12 -7 -13 0.34 -0.12
 -12 7 -11 0.89 0.00
 -12 -7 -11 -0.93 0.02
 -12 -7 -9 1.22 0.08
 -12 7 -9 -1.21 0.07
 -12 7 -7 2.96 0.10
 -12 -7 -7 -2.92 0.08
 -12 7 -5 -4.69 -0.42
 -12 7 -5 -4.69 -0.42
 -12 -7 -5 4.67 -0.44
 -12 7 -3 3.34 0.60
 -12 -7 -3 -3.37 0.60
 -12 7 -3 3.34 0.60
 -12 -7 -1 -0.48 -0.35
 -12 7 -1 0.54 -0.48
 -12 7 -1 0.54 -0.48
 -12 7 1 -2.69 0.24
 -12 -7 1 2.65 -0.01
 -12 7 1 -2.69 0.24
 -12 7 3 1.07 -0.09
 -12 7 3 1.07 -0.09
 -12 -7 3 -1.06 0.13
 -12 7 5 1.61 0.03
 -12 7 5 1.61 0.03
 -12 -7 5 -1.60 -0.05
 -12 7 7 -2.29 -0.01
 -12 -7 7 2.27 0.05
 -12 7 7 -2.29 -0.01
 -12 7 9 0.97 0.03
 -12 -7 9 -0.93 -0.14
 -12 7 9 0.97 0.03
 -12 7 11 1.64 -0.06
 -12 -7 11 -1.68 0.15
 -12 7 13 -5.45 -0.01
 -12 7 15 8.23 0.16
 -12 7 17 -6.00 -0.21
 -12 7 19 -0.78 0.03
 -12 7 21 5.49 0.22
 -12 7 23 -3.39 -0.35
 -12 7 25 -1.72 0.35
 -12 7 27 2.96 -0.26
 -12 8 -22 3.64 0.15
 -12 -8 -22 3.66 0.08
 -12 8 -20 -3.25 -0.12
 -12 -8 -20 -3.26 -0.06
 -12 -8 -20 -3.26 -0.06
 -12 -8 -18 2.27 0.00
 -12 8 -18 2.26 -0.06
 -12 -8 -16 -0.33 0.02
 -12 8 -16 -0.32 0.23
 -12 8 -14 -2.06 -0.28
 -12 -8 -14 -2.08 0.05
 -12 8 -12 2.90 0.23
 -12 -8 -12 2.93 -0.09
 -12 8 -10 -1.63 -0.13
 -12 -8 -10 -1.67 0.00
 -12 8 -8 0.63 0.05
 -12 -8 -8 0.63 0.08
 -12 -8 -6 -1.28 -0.01
 -12 8 -6 -1.31 0.03
 -12 8 -6 -1.31 0.03
 -12 -8 -4 1.13 -0.14
 -12 8 -4 1.15 -0.12
 -12 8 -4 1.15 -0.12
 -12 -8 -2 2.15 0.15
 -12 8 -2 2.16 0.15
 -12 8 -2 2.16 0.15
 -12 8 0 -5.82 -0.06
 -12 8 0 -5.82 -0.06
 -12 -8 0 -5.79 -0.02
 -12 -8 2 5.30 -0.02
 -12 8 2 5.33 -0.10
 -12 8 2 5.33 -0.10
 -12 8 4 -1.12 0.16
 -12 -8 4 -1.11 -0.08
 -12 8 4 -1.12 0.16
 -12 8 6 -2.20 -0.02
 -12 8 6 -2.20 -0.02
 -12 -8 6 -2.19 0.15
 -12 8 8 1.82 -0.13
 -12 8 8 1.82 -0.13
 -12 -8 8 1.81 -0.09
 -12 -8 10 1.71 0.02
 -12 8 10 1.68 0.15
 -12 8 10 1.68 0.15
 -12 8 12 -7.04 -0.15
 -12 -8 12 -7.06 -0.05
 -12 8 14 11.89 0.24
 -12 8 16 -11.57 -0.29
 -12 8 18 3.95 0.07
 -12 8 20 5.19 0.29
 -12 8 22 -7.01 -0.50
 -12 8 24 0.57 0.48
 -12 8 26 5.90 -0.39
 -12 -9 -21 3.38 0.09
 -12 -9 -21 3.38 0.09
 -12 -9 -19 -1.98 -0.03
 -12 -9 -19 -1.98 -0.03
 -12 -9 -17 0.55 -0.04
 -12 9 -17 -0.56 0.17
 -12 -9 -17 0.55 -0.04
 -12 -9 -15 0.99 0.00
 -12 9 -15 -0.98 -0.25
 -12 -9 -13 -2.36 0.12
 -12 9 -13 2.34 0.23
 -12 9 -11 -2.25 -0.20
 -12 -9 -11 2.28 -0.15
 -12 -9 -9 -0.78 0.05
 -12 9 -9 0.75 0.18
 -12 9 -7 0.40 -0.08
 -12 -9 -7 -0.39 0.05
 -12 9 -5 -0.94 -0.11
 -12 9 -5 -0.94 -0.11
 -12 -9 -5 0.95 -0.02
 -12 9 -3 2.63 0.25
 -12 -9 -3 -2.64 -0.04
 -12 9 -3 2.63 0.25
 -12 -9 -1 5.37 -0.01
 -12 9 -1 -5.36 -0.14
 -12 9 -1 -5.36 -0.14
 -12 9 1 6.10 -0.17
 -12 9 1 6.10 -0.17
 -12 -9 1 -6.11 0.09
 -12 -9 3 3.38 -0.03
 -12 9 3 -3.37 0.36
 -12 9 3 -3.37 0.36
 -12 9 5 -0.30 -0.21
 -12 -9 5 0.31 -0.16
 -12 9 5 -0.30 -0.21
 -12 9 7 1.70 -0.12
 -12 -9 7 -1.72 0.31
 -12 9 7 1.70 -0.12
 -12 -9 9 -0.08 -0.32
 -12 9 9 0.11 0.30
 -12 9 9 0.11 0.30
 -12 9 11 -4.64 -0.27
 -12 -9 11 4.61 0.24
 -12 9 11 -4.64 -0.27
 -12 -9 13 -10.07 -0.21
 -12 9 13 10.09 0.25
 -12 9 15 -11.87 -0.28
 -12 9 17 5.85 0.16
 -12 9 19 4.72 0.15
 -12 9 21 -10.23 -0.36
 -12 9 23 5.54 0.33
 -12 9 25 3.38 -0.21
 -12 -10 -18 -1.65 0.05
 -12 -10 -18 -1.65 0.05
 -12 -10 -16 1.86 -0.05
 -12 -10 -16 1.86 -0.05
 -12 -10 -14 -1.73 -0.07
 -12 -10 -12 0.53 0.20
 -12 -10 -10 0.62 -0.15
 -12 -10 -8 -0.70 -0.02
 -12 -10 -6 -0.24 0.13
 -12 -10 -4 1.97 -0.13
 -12 10 -2 -3.88 0.03
 -12 -10 -2 -3.91 0.20
 -12 10 0 4.53 -0.29
 -12 -10 0 4.59 -0.38
 -12 -10 2 -3.13 0.47
 -12 10 2 -3.05 0.52
 -12 10 4 0.56 -0.46
 -12 10 4 0.56 -0.46
 -12 -10 4 0.61 -0.26
 -12 10 6 1.43 0.13
 -12 -10 6 1.44 -0.13
 -12 10 6 1.43 0.13
 -12 -10 8 -2.51 0.39
 -12 10 8 -2.46 0.18
 -12 10 8 -2.46 0.18
 -12 10 10 1.90 -0.26
 -12 -10 10 1.96 -0.37
 -12 10 10 1.90 -0.26
 -12 -10 12 0.97 0.21
 -12 10 12 1.00 0.22
 -12 10 12 1.00 0.22
 -12 10 14 -3.99 -0.20
 -12 -10 14 -3.98 -0.15
 -12 10 16 2.31 0.13
 -12 10 18 4.69 0.06
 -12 10 20 -10.35 -0.21
 -12 10 22 8.15 0.14
 -12 -11 -15 2.50 0.00
 -12 -11 -15 2.50 0.00
 -12 -11 -13 -2.63 -0.13
 -12 -11 -13 -2.63 -0.13
 -12 -11 -11 0.83 0.17
 -12 -11 -9 1.23 -0.04
 -12 -11 -7 -1.68 -0.11
 -12 -11 -5 0.01 0.17
 -12 -11 -3 2.53 -0.24
 -12 11 -1 3.61 -0.23
 -12 -11 -1 -3.67 0.42
 -12 -11 1 2.47 -0.59
 -12 11 1 -2.39 0.36
 -12 -11 3 -0.35 0.51
 -12 11 3 0.29 -0.33
 -12 11 5 1.33 0.17
 -12 -11 5 -1.31 -0.15
 -12 11 7 -3.20 -0.01
 -12 -11 7 3.22 -0.21
 -12 -11 9 -5.94 0.30
 -12 11 9 5.91 -0.07
 -12 11 11 -7.36 0.10
 -12 -11 11 7.39 -0.14
 -12 11 13 5.84 -0.13
 -12 -11 13 -5.84 0.00
 -12 11 15 -3.64 0.09
 -12 -11 15 3.62 -0.05
 -12 11 17 4.12 0.08
 -12 11 19 -5.98 -0.23
 -12 -12 -12 -0.17 -0.08
 -12 -12 -12 -0.17 -0.08
 -12 -12 -10 -0.99 0.08
 -12 -12 -10 -0.99 0.08
 -12 -12 -8 2.10 -0.04
 -12 -12 -6 -1.69 0.01
 -12 -12 -4 -0.53 0.01
 -12 -12 -2 2.54 -0.08
 -12 -12 0 -2.02 0.17
 -12 -12 2 -0.35 -0.15
 -12 12 2 -0.33 0.14
 -12 12 4 2.05 -0.22
 -12 -12 4 2.08 0.01
 -12 12 6 -2.99 0.11
 -12 -12 6 -3.01 0.13
 -12 12 8 5.30 0.07
 -12 -12 8 5.30 -0.13
 -12 -12 10 -8.79 0.02
 -12 12 10 -8.80 -0.09
 -12 12 12 10.06 -0.05
 -12 -12 12 10.06 0.06
 -12 12 14 -7.40 0.14
 -12 -12 14 -7.38 -0.03
 -12 12 16 3.35 -0.01
 -12 -12 16 3.30 -0.05
 -12 -13 -7 1.49 -0.15
 -12 -13 -7 1.49 -0.15
 -12 -13 -5 -1.05 0.18
 -12 -13 -5 -1.05 0.18
 -12 -13 -3 -0.49 -0.17
 -12 -13 -1 1.01 0.20
 -12 -13 1 0.74 -0.29
 -12 -13 3 -2.76 0.36
 -12 13 5 -2.99 0.37
 -12 -13 5 3.06 -0.25
 -12 -13 7 -3.19 0.00
 -12 13 7 3.20 0.02
 -12 13 9 -5.45 -0.25
 -12 -13 9 5.41 0.17
 -12 -13 11 -8.11 -0.15
 -12 13 11 8.11 0.12
 -11 -1 -30 -0.35 -0.04
 -11 1 -30 -0.35 -0.02
 -11 -1 -28 3.49 0.12
 -11 1 -28 3.48 -0.04
 -11 -1 -26 -5.99 -0.11
 -11 1 -26 -5.98 0.04
 -11 -1 -24 5.78 0.04
 -11 1 -24 5.78 -0.02
 -11 1 -22 -3.97 0.00
 -11 -1 -22 -3.97 0.01
 -11 1 -20 3.35 0.03
 -11 -1 -20 3.36 0.00
 -11 -1 -18 -4.45 -0.04
 -11 1 -18 -4.44 -0.11
 -11 -1 -16 4.87 0.03
 -11 1 -16 4.89 0.19
 -11 1 -14 -2.97 -0.19
 -11 -1 -14 -2.93 0.05
 -11 -1 -12 -0.14 -0.10
 -11 1 -12 -0.13 0.10
 -11 -1 -10 2.00 0.05
 -11 1 -10 2.01 0.02
 -11 -1 -8 -1.83 0.02
 -11 1 -8 -1.83 -0.07
 -11 1 -6 0.88 -0.01
 -11 -1 -6 0.89 -0.03
 -11 -1 -4 -0.81 -0.02
 -11 1 -4 -0.82 0.10
 -11 1 -2 1.61 -0.07
 -11 -1 -2 1.59 0.02
 -11 -1 0 -1.41 0.02
 -11 1 0 -1.43 -0.03
 -11 1 2 -0.81 0.02
 -11 1 2 -0.81 0.02
 -11 -1 2 -0.80 0.02
 -11 -1 4 2.99 -0.15
 -11 1 4 2.99 0.13
 -11 1 4 2.99 0.13
 -11 -1 6 -1.75 0.20
 -11 1 6 -1.72 -0.21
 -11 1 6 -1.72 -0.21
 -11 -1 6 -1.75 0.20
 -11 1 8 -3.01 0.12
 -11 -1 8 -2.98 -0.10
 -11 -1 10 7.01 -0.03
 -11 1 10 7.02 -0.03
 -11 -1 12 -6.66 0.05
 -11 1 12 -6.63 0.09
 -11 -1 14 2.70 0.00
 -11 1 14 2.67 -0.16
 -11 -1 16 1.42 -0.01
 -11 1 16 1.43 0.10
 -11 -1 18 -3.55 -0.02
 -11 1 18 -3.56 0.03
 -11 -1 20 3.49 0.02
 -11 1 20 3.50 -0.08
 -11 -1 22 -1.23 0.02
 -11 1 22 -1.24 0.05
 -11 -1 24 -2.81 -0.04
 -11 1 24 -2.82 -0.07
 -11 -1 26 6.43 -0.02
 -11 1 26 6.43 0.14
 -11 -1 28 -6.75 0.15
 -11 1 28 -6.73 -0.15
 -11 -1 30 3.39 -0.25
 -11 1 30 3.36 0.06
 -11 -1 32 0.66 0.21
 -11 1 32 0.66 0.03
 -11 -1 34 -2.06 -0.05
 -11 1 34 -2.02 -0.02
 -11 2 -29 2.87 0.02
 -11 -2 -29 -2.88 -0.09
 -11 2 -27 -7.25 -0.01
 -11 -2 -27 7.25 0.15
 -11 2 -25 8.74 0.00
 -11 -2 -25 -8.73 -0.11
 -11 2 -23 -6.45 0.02
 -11 -2 -23 6.43 -0.02
 -11 2 -21 4.06 0.01
 -11 -2 -21 -4.05 0.10
 -11 -2 -19 4.39 -0.07
 -11 2 -19 -4.38 -0.13
 -11 2 -17 5.42 0.25
 -11 -2 -17 -5.42 0.00
 -11 -2 -15 3.82 -0.01
 -11 2 -15 -3.85 -0.25
 -11 2 -13 -0.08 0.10
 -11 -2 -13 0.11 0.10
 -11 -2 -11 -3.31 -0.10
 -11 2 -11 3.29 0.12
 -11 2 -9 -3.98 -0.28
 -11 -2 -9 4.00 -0.03
 -11 2 -7 3.06 0.24
 -11 -2 -7 -3.08 0.12
 -11 -2 -5 2.49 0.03
 -11 2 -5 -2.48 0.01
 -11 -2 -3 -3.00 -0.31
 -11 2 -3 3.02 -0.28
 -11 2 -1 -3.06 0.35
 -11 -2 -1 3.02 0.43
 -11 2 1 0.21 -0.22
 -11 2 1 0.21 -0.22
 -11 -2 1 -0.18 -0.32
 -11 2 3 4.59 0.09
 -11 -2 3 -4.60 0.17
 -11 2 3 4.59 0.09
 -11 2 5 -6.24 -0.04
 -11 2 5 -6.24 -0.04
 -11 -2 5 6.26 -0.10
 -11 2 7 1.23 0.01
 -11 -2 9 -6.76 0.01
 -11 2 9 6.79 0.03
 -11 -2 11 10.55 -0.09
 -11 2 11 -10.55 0.02
 -11 -2 13 -7.42 0.10
 -11 2 13 7.39 -0.12
 -11 2 15 -1.13 0.15
 -11 -2 15 1.14 -0.03
 -11 -2 17 3.70 -0.04
 -11 2 17 -3.70 -0.07
 -11 -2 19 -5.53 0.06
 -11 2 19 5.53 0.03
 -11 -2 21 4.04 -0.03
 -11 2 21 -4.05 -0.05
 -11 -2 23 0.90 -0.02
 -11 2 23 -0.90 0.01
 -11 -2 25 -6.98 0.07
 -11 2 25 7.00 0.13
 -11 2 27 -9.34 -0.21
 -11 -2 27 9.32 -0.16
 -11 2 29 5.26 0.11
 -11 -2 29 -5.26 0.29
 -11 -2 31 -1.89 -0.34
 -11 2 31 1.89 0.06
 -11 2 33 -5.93 -0.11
 -11 -2 33 5.95 0.18
 -11 -3 -30 0.42 0.08
 -11 3 -30 0.41 -0.03
 -11 3 -28 -3.88 0.01
 -11 -3 -28 -3.90 -0.17
 -11 -3 -26 6.57 0.20
 -11 3 -26 6.57 0.04
 -11 -3 -26 6.57 0.20
 -11 3 -24 -5.50 -0.02
 -11 -3 -24 -5.48 -0.10
 -11 3 -22 2.51 -0.02
 -11 -3 -22 2.49 -0.08
 -11 3 -20 -1.35 -0.05
 -11 -3 -20 -1.35 0.15
 -11 -3 -18 1.92 -0.05
 -11 3 -18 1.90 0.20
 -11 3 -16 -1.09 -0.22
 -11 -3 -16 -1.10 -0.06
 -11 3 -14 -1.69 0.03
 -11 -3 -14 -1.70 0.05
 -11 -3 -12 3.99 0.00
 -11 3 -12 3.97 0.25
 -11 3 -10 -4.29 -0.48
 -11 -3 -10 -4.32 0.12
 -11 -3 -8 3.63 -0.33
 -11 3 -8 3.57 0.55
 -11 -3 -6 -3.06 0.31
 -11 3 -6 -3.01 -0.39
 -11 -3 -4 2.95 0.05
 -11 3 -4 2.93 0.04
 -11 3 -2 -2.86 0.29
 -11 3 -2 -2.86 0.29
 -11 -3 -2 -2.84 -0.44
 -11 3 0 1.10 -0.38
 -11 -3 0 1.07 0.50
 -11 3 0 1.10 -0.38
 -11 3 2 3.49 0.25
 -11 3 2 3.49 0.25
 -11 -3 4 -8.07 0.08
 -11 3 4 -8.07 -0.06
 -11 3 4 -8.07 -0.06
 -11 3 6 7.29 -0.05
 -11 -3 6 7.32 -0.07
 -11 3 6 7.29 -0.05
 -11 3 8 -0.38 0.08
 -11 3 10 -6.55 -0.02
 -11 3 12 7.53 -0.07
 -11 -3 14 -3.36 0.01
 -11 3 14 -3.35 0.11
 -11 3 16 -1.27 -0.07
 -11 -3 16 -1.26 0.09
 -11 -3 18 3.65 -0.13
 -11 3 18 3.66 0.06
 -11 3 20 -3.47 -0.12
 -11 -3 20 -3.46 0.03
 -11 3 22 0.19 0.15
 -11 -3 22 0.18 0.11
 -11 -3 24 5.46 -0.15
 -11 3 24 5.46 -0.04
 -11 -3 26 -9.20 0.10
 -11 3 26 -9.21 -0.09
 -11 -3 28 6.65 -0.09
 -11 3 28 6.66 0.08
 -11 3 30 1.04 0.07
 -11 -3 30 1.04 0.16
 -11 3 32 -7.50 -0.15
 -11 -3 32 -7.49 -0.16
 -11 -3 34 7.83 0.02
 -11 3 34 7.82 0.08
 -11 -4 -29 0.44 0.07
 -11 4 -29 -0.43 0.10
 -11 4 -27 3.04 0.05
 -11 -4 -27 -3.04 -0.16
 -11 -4 -27 -3.04 -0.16
 -11 -4 -25 3.44 0.18
 -11 4 -25 -3.44 -0.11
 -11 -4 -25 3.44 0.18
 -11 -4 -23 -1.12 -0.07
 -11 4 -23 1.14 0.03
 -11 -4 -21 -0.93 -0.06
 -11 4 -21 0.92 0.02
 -11 4 -19 -1.25 0.07
 -11 -4 -19 1.24 0.05
 -11 -4 -17 -1.70 0.11
 -11 4 -17 1.73 -0.15
 -11 -4 -15 3.35 -0.20
 -11 4 -15 -3.38 0.02
 -11 -4 -13 -4.40 0.17
 -11 4 -13 4.40 0.24
 -11 4 -11 -3.71 -0.42
 -11 -4 -11 3.74 -0.17
 -11 -4 -9 -2.61 0.33
 -11 4 -9 2.56 0.45
 -11 -4 -7 1.82 -0.45
 -11 4 -7 -1.76 -0.40
 -11 4 -5 0.82 0.29
 -11 -4 -5 -0.87 0.30
 -11 -4 -3 0.09 0.05
 -11 4 -3 -0.08 -0.09
 -11 4 -3 -0.08 -0.09
 -11 -4 -1 -0.10 -0.27
 -11 4 -1 0.10 -0.16
 -11 4 -1 0.10 -0.16
 -11 -4 1 -0.73 0.21
 -11 4 1 0.74 0.29
 -11 4 1 0.74 0.29
 -11 4 3 -3.98 -0.23
 -11 -4 3 3.96 -0.09
 -11 4 3 -3.98 -0.23
 -11 -4 5 -6.84 0.08
 -11 4 5 6.86 0.07
 -11 4 5 6.86 0.07
 -11 -4 7 5.15 -0.12
 -11 4 7 -5.15 0.04
 -11 4 9 -0.08 -0.01
 -11 4 11 3.33 -0.08
 -11 4 13 -2.33 0.09
 -11 4 15 0.27 0.02
 -11 -4 17 0.15 0.19
 -11 4 17 -0.14 -0.11
 -11 4 19 1.45 0.06
 -11 -4 19 -1.46 -0.05
 -11 4 21 -3.21 0.07
 -11 -4 21 3.22 -0.16
 -11 4 23 5.92 -0.08
 -11 -4 23 -5.93 0.24
 -11 4 25 -8.83 -0.01
 -11 -4 25 8.84 -0.09
 -11 4 27 8.83 0.06
 -11 -4 27 -8.84 -0.12
 -11 4 29 -4.33 0.01
 -11 -4 29 4.34 0.15
 -11 -4 31 1.66 -0.03
 -11 4 31 -1.69 -0.06
 -11 4 33 4.60 -0.02
 -11 -4 33 -4.56 -0.04
 -11 5 -28 1.81 -0.01
 -11 -5 -28 1.81 -0.05
 -11 -5 -28 1.81 -0.05
 -11 -5 -26 -3.48 -0.08
 -11 5 -26 -3.48 -0.15
 -11 -5 -26 -3.48 -0.08
 -11 -5 -24 2.41 0.13
 -11 5 -24 2.40 0.14
 -11 -5 -24 2.41 0.13
 -11 -5 -22 0.10 -0.05
 -11 5 -22 0.09 0.00
 -11 5 -20 -1.53 -0.05
 -11 -5 -20 -1.53 -0.03
 -11 -5 -18 2.06 -0.03
 -11 5 -18 2.07 -0.04
 -11 5 -16 -2.97 0.05
 -11 -5 -16 -2.94 0.14
 -11 -5 -14 3.57 -0.17
 -11 5 -14 3.59 0.11
 -11 -5 -12 -3.02 0.11
 -11 5 -12 -3.02 -0.21
 -11 -5 -10 2.20 -0.08
 -11 5 -10 2.19 0.09
 -11 5 -8 -1.59 0.08
 -11 -5 -8 -1.61 0.11
 -11 5 -6 -0.11 -0.05
 -11 -5 -6 -0.09 -0.11
 -11 -5 -4 2.54 0.04
 -11 5 -4 2.56 -0.14
 -11 5 -4 2.56 -0.14
 -11 5 -2 -2.61 0.18
 -11 -5 -2 -2.60 0.03
 -11 5 -2 -2.61 0.18
 -11 5 0 -0.38 0.00
 -11 5 0 -0.38 0.00
 -11 -5 0 -0.39 -0.04
 -11 -5 2 2.30 0.05
 -11 5 2 2.28 -0.19
 -11 5 2 2.28 -0.19
 -11 -5 4 -0.44 -0.10
 -11 5 4 -0.42 0.17
 -11 5 4 -0.42 0.17
 -11 -5 6 -2.03 0.11
 -11 5 6 -2.05 -0.03
 -11 5 6 -2.05 -0.03
 -11 -5 8 1.50 -0.01
 -11 5 8 1.51 -0.01
 -11 5 10 0.39 -0.09
 -11 5 12 -0.54 0.14
 -11 5 14 0.20 0.02
 -11 5 16 -2.50 -0.27
 -11 5 18 6.62 0.33
 -11 5 20 -8.85 -0.19
 -11 5 22 8.16 0.05
 -11 5 24 -7.04 -0.05
 -11 -5 24 -7.05 0.10
 -11 5 26 7.11 0.10
 -11 -5 26 7.12 0.18
 -11 5 28 -7.12 -0.06
 -11 -5 28 -7.14 -0.35
 -11 5 30 5.59 0.02
 -11 -5 30 5.61 0.26
 -11 -5 32 -3.24 -0.04
 -11 5 32 -3.21 -0.08
 -11 -6 -27 3.61 -0.06
 -11 -6 -27 3.61 -0.06
 -11 6 -27 -3.60 -0.11
 -11 6 -25 4.16 0.20
 -11 -6 -25 -4.19 -0.07
 -11 -6 -25 -4.19 -0.07
 -11 6 -23 -2.14 -0.10
 -11 -6 -23 2.16 0.08
 -11 -6 -23 2.16 0.08
 -11 -6 -21 0.16 0.02
 -11 6 -21 -0.16 -0.05
 -11 -6 -21 0.16 0.02
 -11 -6 -19 -1.14 -0.10
 -11 6 -19 1.13 0.05
 -11 6 -17 -1.46 0.04
 -11 -6 -17 1.46 0.09
 -11 6 -15 1.75 -0.01
 -11 -6 -15 -1.75 -0.02
 -11 -6 -13 1.63 0.01
 -11 6 -13 -1.63 -0.06
 -11 6 -11 1.51 -0.07
 -11 -6 -11 -1.52 -0.09
 -11 6 -9 -1.76 0.38
 -11 -6 -9 1.75 0.19
 -11 6 -7 0.71 -0.51
 -11 -6 -7 -0.68 -0.22
 -11 6 -5 2.55 0.21
 -11 6 -5 2.55 0.21
 -11 -6 -5 -2.57 0.14
 -11 6 -3 -4.63 0.23
 -11 6 -3 -4.63 0.23
 -11 -6 -3 4.62 0.03
 -11 6 -1 1.72 -0.35
 -11 6 -1 1.72 -0.35
 -11 -6 -1 -1.70 -0.15
 -11 6 1 3.87 0.15
 -11 6 1 3.87 0.15
 -11 -6 1 -3.88 0.11
 -11 6 3 -6.21 0.03
 -11 6 3 -6.21 0.03
 -11 -6 3 6.20 0.04
 -11 6 5 3.92 0.02
 -11 -6 5 -3.91 -0.10
 -11 6 5 3.92 0.02
 -11 6 7 -0.95 -0.09
 -11 6 7 -0.95 -0.09
 -11 -6 7 0.95 -0.05
 -11 -6 9 0.33 0.23
 -11 6 9 -0.33 -0.02
 -11 6 11 1.15 0.18
 -11 6 13 -1.49 -0.10
 -11 6 15 -1.25 -0.21
 -11 6 17 7.05 0.44
 -11 6 19 -11.19 -0.36
 -11 6 21 9.78 0.15
 -11 6 23 -4.84 -0.05
 -11 6 25 1.65 0.08
 -11 6 27 -2.54 -0.06
 -11 6 29 5.09 -0.02
 -11 6 31 -5.86 0.04
 -11 -7 -26 3.37 0.06
 -11 7 -26 3.34 0.16
 -11 -7 -26 3.37 0.06
 -11 7 -24 -3.09 -0.17
 -11 -7 -24 -3.14 -0.11
 -11 -7 -24 -3.14 -0.11
 -11 -7 -22 1.43 0.05
 -11 -7 -22 1.43 0.05
 -11 7 -22 1.41 0.03
 -11 7 -20 -0.38 0.06
 -11 -7 -20 -0.36 0.08
 -11 -7 -20 -0.36 0.08
 -11 -7 -18 0.17 -0.16
 -11 7 -18 0.19 -0.01
 -11 7 -16 0.21 -0.05
 -11 -7 -16 0.22 0.15
 -11 -7 -14 -0.80 -0.08
 -11 7 -14 -0.78 0.00
 -11 7 -12 1.02 0.00
 -11 -7 -12 1.05 0.05
 -11 7 -10 -1.11 0.23
 -11 -7 -10 -1.13 -0.11
 -11 7 -8 0.60 -0.51
 -11 -7 -8 0.56 0.20
 -11 7 -6 1.65 0.43
 -11 7 -6 1.65 0.43
 -11 -7 -6 1.71 -0.15
 -11 -7 -4 -4.41 -0.07
 -11 7 -4 -4.40 0.03
 -11 7 -4 -4.40 0.03
 -11 7 -2 3.93 -0.43
 -11 7 -2 3.93 -0.43
 -11 -7 -2 3.89 0.32
 -11 -7 0 0.71 -0.38
 -11 7 0 0.67 0.45
 -11 7 0 0.67 0.45
 -11 -7 2 -5.34 0.21
 -11 7 2 -5.33 -0.25
 -11 7 2 -5.33 -0.25
 -11 7 4 6.08 0.18
 -11 7 4 6.08 0.18
 -11 -7 4 6.06 -0.04
 -11 7 6 -3.56 -0.23
 -11 7 6 -3.56 -0.23
 -11 -7 6 -3.55 0.06
 -11 -7 8 0.48 -0.20
 -11 7 8 0.48 0.14
 -11 7 8 0.48 0.14
 -11 -7 10 2.10 0.28
 -11 7 10 2.09 0.10
 -11 7 12 -3.62 -0.20
 -11 7 14 2.30 0.00
 -11 7 16 2.42 0.29
 -11 7 18 -7.24 -0.34
 -11 7 20 7.80 0.16
 -11 7 22 -3.75 -0.02
 -11 7 24 -0.74 0.03
 -11 7 26 1.62 -0.05
 -11 7 28 0.90 -0.01
 -11 7 30 -3.21 0.09
 -11 -8 -25 2.75 0.09
 -11 8 -25 -2.72 -0.15
 -11 -8 -25 2.75 0.09
 -11 -8 -23 -3.22 -0.10
 -11 -8 -23 -3.22 -0.10
 -11 8 -23 3.19 0.09
 -11 -8 -21 3.36 0.06
 -11 8 -21 -3.37 0.03
 -11 -8 -21 3.36 0.06
 -11 8 -19 3.42 -0.05
 -11 -8 -19 -3.39 0.00
 -11 8 -17 -2.23 -0.01
 -11 -8 -17 2.22 -0.02
 -11 8 -15 -0.28 0.03
 -11 -8 -15 0.28 -0.01
 -11 8 -13 2.35 0.03
 -11 -8 -13 -2.38 0.05
 -11 8 -11 -2.58 0.02
 -11 -8 -11 2.62 -0.04
 -11 8 -9 1.24 -0.21
 -11 -8 -9 -1.24 -0.02
 -11 -8 -7 -0.93 0.05
 -11 8 -7 0.88 0.31
 -11 8 -5 -2.92 -0.08
 -11 -8 -5 2.96 0.05
 -11 8 -5 -2.92 -0.08
 -11 -8 -3 -3.39 -0.25
 -11 8 -3 3.42 -0.29
 -11 8 -3 3.42 -0.29
 -11 8 -1 -1.44 0.46
 -11 -8 -1 1.38 0.40
 -11 8 -1 -1.44 0.46
 -11 -8 1 1.85 -0.36
 -11 8 1 -1.80 -0.37
 -11 8 1 -1.80 -0.37
 -11 8 3 4.04 0.30
 -11 8 3 4.04 0.30
 -11 -8 3 -4.05 0.21
 -11 8 5 -4.29 -0.33
 -11 8 5 -4.29 -0.33
 -11 -8 5 4.27 -0.08
 -11 8 7 2.92 0.26
 -11 8 7 2.92 0.26
 -11 -8 7 -2.92 0.06
 -11 -8 9 0.53 -0.10
 -11 8 9 -0.53 0.01
 -11 8 11 -1.95 -0.24
 -11 -8 11 1.94 0.16
 -11 8 13 2.90 0.20
 -11 8 15 -1.55 0.03
 -11 8 17 -0.82 -0.16
 -11 8 19 2.15 0.12
 -11 8 21 -1.78 -0.06
 -11 8 23 0.67 0.07
 -11 8 25 -0.33 -0.12
 -11 8 27 1.39 0.10
 -11 8 29 -2.86 -0.04
 -11 -9 -22 -5.37 -0.08
 -11 9 -22 -5.37 -0.03
 -11 -9 -22 -5.37 -0.08
 -11 -9 -20 6.49 0.13
 -11 9 -20 6.52 -0.05
 -11 -9 -20 6.49 0.13
 -11 9 -18 -5.31 0.05
 -11 -9 -18 -5.29 -0.15
 -11 -9 -18 -5.29 -0.15
 -11 -9 -16 1.56 0.13
 -11 9 -16 1.55 0.00
 -11 -9 -16 1.56 0.13
 -11 9 -14 2.86 0.00
 -11 -9 -14 2.85 -0.09
 -11 9 -12 -5.22 -0.01
 -11 -9 -12 -5.24 0.04
 -11 -9 -10 4.44 0.03
 -11 9 -10 4.41 -0.05
 -11 9 -8 -1.60 0.12
 -11 -9 -8 -1.59 -0.11
 -11 -9 -6 -1.04 0.16
 -11 9 -6 -0.99 -0.03
 -11 9 -6 -0.99 -0.03
 -11 9 -4 1.78 -0.18
 -11 -9 -4 1.81 -0.10
 -11 9 -4 1.78 -0.18
 -11 -9 -2 -0.84 -0.03
 -11 9 -2 -0.87 0.28
 -11 9 -2 -0.87 0.28
 -11 -9 0 -0.50 0.14
 -11 9 0 -0.44 -0.22
 -11 9 0 -0.44 -0.22
 -11 -9 2 1.36 -0.14
 -11 9 2 1.34 0.19
 -11 9 2 1.34 0.19
 -11 9 4 -2.16 -0.29
 -11 -9 4 -2.13 0.05
 -11 9 4 -2.16 -0.29
 -11 -9 6 3.08 0.08
 -11 9 6 3.12 0.30
 -11 9 6 3.12 0.30
 -11 -9 8 -3.38 -0.14
 -11 9 8 -3.38 -0.06
 -11 9 8 -3.38 -0.06
 -11 9 10 2.33 -0.23
 -11 -9 10 2.35 0.07
 -11 9 12 -0.51 0.29
 -11 -9 12 -0.54 0.07
 -11 9 14 -1.33 -0.12
 -11 9 16 2.92 -0.03
 -11 9 18 -3.59 0.07
 -11 9 20 2.27 -0.11
 -11 9 22 0.55 0.19
 -11 9 24 -2.87 -0.21
 -11 9 26 3.73 0.16
 -11 -10 -21 -5.18 -0.08
 -11 -10 -21 -5.18 -0.08
 -11 -10 -19 4.90 0.14
 -11 -10 -19 4.90 0.14
 -11 -10 -17 -2.14 -0.12
 -11 -10 -17 -2.14 -0.12
 -11 -10 -15 -1.39 0.02
 -11 -10 -15 -1.39 0.02
 -11 -10 -13 4.21 0.08
 -11 -10 -13 4.21 0.08
 -11 -10 -11 -5.32 -0.13
 -11 -10 -9 4.15 0.19
 -11 -10 -7 -1.50 -0.29
 -11 10 -5 0.40 -0.15
 -11 10 -5 0.40 -0.15
 -11 -10 -5 -0.44 0.34
 -11 10 -3 -0.31 0.12
 -11 -10 -3 0.32 -0.27
 -11 10 -3 -0.31 0.12
 -11 -10 -1 0.60 0.11
 -11 10 -1 -0.57 0.08
 -11 10 -1 -0.57 0.08
 -11 10 1 0.34 -0.17
 -11 -10 1 -0.36 0.00
 -11 10 1 0.34 -0.17
 -11 -10 3 -0.80 0.00
 -11 10 3 0.77 -0.02
 -11 10 3 0.77 -0.02
 -11 10 5 -0.93 0.25
 -11 -10 5 0.99 -0.09
 -11 10 5 -0.93 0.25
 -11 -10 7 0.36 0.19
 -11 10 7 -0.39 -0.18
 -11 10 7 -0.39 -0.18
 -11 10 9 1.80 -0.09
 -11 -10 9 -1.81 -0.19
 -11 10 11 -1.72 0.18
 -11 -10 11 1.75 0.09
 -11 -10 13 0.44 -0.01
 -11 10 13 -0.46 -0.01
 -11 10 15 4.06 -0.14
 -11 10 17 -6.79 0.14
 -11 10 19 6.00 -0.13
 -11 10 21 -1.91 0.21
 -11 10 23 -1.83 -0.23
 -11 10 25 2.53 0.12
 -11 -11 -18 -0.11 0.03
 -11 -11 -18 -0.11 0.03
 -11 -11 -16 1.26 0.07
 -11 -11 -16 1.26 0.07
 -11 -11 -14 -0.96 -0.17
 -11 -11 -14 -0.96 -0.17
 -11 -11 -12 1.13 0.18
 -11 -11 -12 1.13 0.18
 -11 -11 -10 -2.36 -0.13
 -11 -11 -8 2.79 0.15
 -11 -11 -6 -1.54 -0.21
 -11 -11 -4 0.44 0.18
 -11 11 -2 -0.70 0.19
 -11 -11 -2 -0.73 -0.03
 -11 11 0 0.80 -0.48
 -11 -11 0 0.84 -0.11
 -11 11 2 0.97 0.37
 -11 -11 2 0.97 0.11
 -11 -11 4 -3.63 -0.03
 -11 11 4 -3.59 0.02
 -11 11 6 4.59 -0.25
 -11 -11 6 4.62 -0.02
 -11 -11 8 -3.28 0.01
 -11 11 8 -3.29 0.15
 -11 -11 10 1.42 0.00
 -11 11 10 1.45 -0.04
 -11 -11 12 -1.36 0.03
 -11 11 12 -1.36 0.20
 -11 -11 14 3.70 -0.09
 -11 11 14 3.68 -0.39
 -11 11 16 -6.33 0.35
 -11 11 18 6.14 -0.17
 -11 11 20 -2.58 0.10
 -11 11 22 -0.82 -0.09
 -11 -12 -15 -0.28 0.20
 -11 -12 -15 -0.28 0.20
 -11 -12 -13 3.13 -0.18
 -11 -12 -13 3.13 -0.18
 -11 -12 -11 -2.64 0.04
 -11 -12 -11 -2.64 0.04
 -11 -12 -9 -0.46 0.04
 -11 -12 -9 -0.46 0.04
 -11 -12 -7 2.34 0.00
 -11 -12 -7 2.34 0.00
 -11 -12 -5 -1.79 -0.01
 -11 -12 -3 0.97 -0.12
 -11 -12 -1 -1.04 0.27
 -11 -12 1 0.47 -0.26
 -11 12 1 -0.44 0.47
 -11 12 3 -1.86 -0.18
 -11 -12 3 1.87 0.13
 -11 -12 5 -4.55 -0.08
 -11 12 5 4.52 -0.20
 -11 -12 7 5.30 0.14
 -11 12 7 -5.31 0.30
 -11 12 9 3.79 -0.22
 -11 -12 9 -3.76 -0.19
 -11 -12 11 1.76 0.09
 -11 12 11 -1.77 0.27
 -11 -12 13 -1.26 0.06
 -11 12 13 1.23 -0.44
 -11 -12 15 2.04 -0.07
 -11 12 15 -2.02 0.41
 -11 12 17 1.88 -0.15
 -11 -12 17 -1.88 -0.12
 -11 12 19 0.42 -0.07
 -11 -13 -12 5.09 -0.05
 -11 -13 -12 5.09 -0.05
 -11 -13 -10 -3.06 -0.08
 -11 -13 -10 -3.06 -0.08
 -11 -13 -8 0.00 0.07
 -11 -13 -8 0.00 0.07
 -11 -13 -6 0.90 0.02
 -11 -13 -6 0.90 0.02
 -11 -13 -4 0.04 0.01
 -11 -13 -4 0.04 0.01
 -11 -13 -2 -0.60 -0.15
 -11 -13 0 0.31 0.20
 -11 13 2 -0.47 -0.11
 -11 -13 2 -0.46 -0.09
 -11 -13 4 1.74 -0.02
 -11 13 4 1.73 -0.16
 -11 13 6 -3.09 0.35
 -11 -13 6 -3.10 -0.01
 -11 -13 8 3.02 0.10
 -11 13 8 3.03 -0.33
 -11 -13 10 -1.26 -0.07
 -11 13 10 -1.25 0.27
 -11 13 12 -0.89 -0.30
 -11 -13 12 -0.87 -0.07
 -11 -13 14 2.02 0.14
 -11 13 14 2.02 0.26
 -11 13 16 -2.48 -0.04
 -11 -13 16 -2.51 -0.04
 -11 -14 -7 1.34 -0.04
 -11 -14 -7 1.34 -0.04
 -11 -14 -5 -2.17 0.13
 -11 -14 -5 -2.17 0.13
 -11 -14 -3 2.96 -0.08
 -11 -14 -3 2.96 -0.08
 -11 -14 -1 -2.70 -0.01
 -11 -14 -1 -2.70 -0.01
 -11 -14 1 1.72 0.00
 -11 -14 1 1.72 0.00
 -11 -14 3 -1.01 0.08
 -11 -14 5 1.14 -0.12
 -11 14 5 -1.12 0.28
 -11 14 7 1.58 -0.33
 -11 -14 7 -1.62 0.11
 -11 14 9 -1.28 0.27
 -11 -14 9 1.32 -0.11
 -11 -14 11 0.08 0.14
 -11 14 11 -0.12 -0.22
 -10 0 -32 2.51 0.00
 -10 0 -30 -5.30 -0.08
 -10 0 -28 4.82 0.08
 -10 0 -26 -1.22 -0.02
 -10 0 -24 0.91 0.00
 -10 0 -22 -6.24 -0.04
 -10 0 -20 10.15 0.03
 -10 0 -18 -6.47 0.07
 -10 0 -16 -0.20 -0.15
 -10 0 -14 1.27 0.08
 -10 0 -12 3.44 0.03
 -10 0 -10 -6.44 -0.02
 -10 0 -8 2.88 -0.10
 -10 0 -6 4.84 0.17
 -10 0 -4 -10.93 -0.10
 -10 0 -2 11.18 0.00
 -10 0 0 -5.93 0.05
 -10 0 2 0.36 -0.05
 -10 0 4 0.28 0.07
 -10 0 4 0.28 0.07
 -10 0 6 3.35 -0.12
 -10 0 8 -5.80 0.15
 -10 0 10 4.00 -0.13
 -10 0 12 -0.03 0.05
 -10 0 14 -3.21 0.05
 -10 0 16 4.98 -0.13
 -10 0 18 -4.61 0.15
 -10 0 20 0.76 -0.13
 -10 0 22 5.34 0.06
 -10 0 24 -8.78 0.09
 -10 0 26 5.64 -0.18
 -10 0 28 2.11 0.00
 -10 0 30 -8.10 0.48
 -10 0 32 7.92 -0.91
 -10 0 34 -3.08 0.90
 -10 0 36 -1.41 -0.51
 -10 -1 -31 3.40 0.02
 -10 1 -31 -3.43 -0.08
 -10 1 -29 5.20 0.09
 -10 -1 -29 -5.17 -0.12
 -10 -1 -27 2.75 0.08
 -10 1 -27 -2.77 -0.01
 -10 -1 -25 0.16 0.05
 -10 1 -25 -0.15 0.01
 -10 -1 -23 2.10 -0.12
 -10 1 -23 -2.10 -0.12
 -10 1 -21 7.22 0.18
 -10 -1 -21 -7.22 0.08
 -10 1 -19 -7.58 -0.01
 -10 -1 -19 7.58 -0.02
 -10 1 -17 2.23 -0.23
 -10 -1 -17 -2.23 0.01
 -10 -1 -15 -1.54 -0.01
 -10 1 -15 1.54 0.27
 -10 -1 -13 -0.72 0.00
 -10 1 -13 0.72 -0.08
 -10 1 -11 -4.83 -0.07
 -10 -1 -11 4.85 -0.04
 -10 -1 -9 -4.89 0.14
 -10 1 -9 4.87 0.01
 -10 1 -7 -0.25 0.16
 -10 -1 -7 0.26 -0.19
 -10 1 -5 -5.33 -0.24
 -10 -1 -5 5.33 0.11
 -10 1 -3 8.01 0.20
 -10 -1 -3 -8.00 0.08
 -10 1 -1 -5.97 -0.19
 -10 -1 -1 5.95 -0.20
 -10 1 1 1.06 0.20
 -10 -1 1 -1.04 0.18
 -10 1 1 1.06 0.20
 -10 1 3 1.88 -0.15
 -10 -1 3 -1.90 -0.08
 -10 1 3 1.88 -0.15
 -10 1 5 -0.13 0.03
 -10 -1 5 0.14 0.03
 -10 -1 5 0.14 0.03
 -10 1 5 -0.13 0.03
 -10 -1 7 3.44 -0.06
 -10 1 7 -3.45 0.04
 -10 -1 9 -4.18 0.14
 -10 1 9 4.19 -0.01
 -10 1 11 -1.44 -0.04
 -10 -1 11 1.44 -0.13
 -10 -1 13 1.91 0.04
 -10 1 13 -1.91 0.05
 -10 1 15 3.78 -0.05
 -10 -1 15 -3.79 0.05
 -10 -1 17 3.91 -0.02
 -10 1 17 -3.90 0.10
 -10 -1 19 -1.99 -0.07
 -10 1 19 1.98 -0.19
 -10 -1 21 -1.77 0.13
 -10 1 21 1.77 0.24
 -10 1 23 -4.91 -0.14
 -10 -1 23 4.92 -0.16
 -10 1 25 4.13 -0.08
 -10 -1 25 -4.13 0.17
 -10 -1 27 -0.99 -0.05
 -10 1 27 0.97 0.18
 -10 -1 29 6.78 -0.31
 -10 1 29 -6.75 0.05
 -10 1 31 8.77 -0.48
 -10 -1 31 -8.81 0.77
 -10 1 33 -6.03 0.71
 -10 -1 33 6.08 -0.94
 -10 1 35 1.49 -0.56
 -10 -1 35 -1.52 0.69
 -10 2 -32 -0.07 -0.15
 -10 -2 -32 -0.03 0.08
 -10 -2 -30 3.37 0.03
 -10 2 -30 3.40 0.20
 -10 2 -28 -3.63 -0.09
 -10 -2 -28 -3.61 -0.11
 -10 2 -26 0.44 -0.01
 -10 -2 -26 0.43 0.00
 -10 -2 -26 0.43 0.00
 -10 -2 -24 0.91 0.16
 -10 2 -24 0.91 -0.06
 -10 -2 -22 2.14 -0.18
 -10 2 -22 2.13 0.21
 -10 2 -20 -5.09 -0.15
 -10 -2 -20 -5.09 0.03
 -10 2 -18 3.71 -0.15
 -10 -2 -18 3.70 0.13
 -10 2 -16 -0.60 0.39
 -10 -2 -16 -0.58 -0.18
 -10 2 -14 0.42 -0.30
 -10 -2 -14 0.40 0.13
 -10 -2 -12 -2.76 -0.01
 -10 2 -12 -2.75 0.03
 -10 -2 -10 4.11 -0.11
 -10 2 -10 4.08 0.06
 -10 -2 -8 -3.39 0.16
 -10 2 -8 -3.38 0.11
 -10 2 -6 1.92 -0.31
 -10 -2 -6 1.91 -0.09
 -10 -2 -4 -0.47 -0.07
 -10 2 -4 -0.49 0.32
 -10 2 -2 -0.19 -0.27
 -10 -2 -2 -0.19 0.18
 -10 2 0 -1.10 0.29
 -10 -2 0 -1.11 -0.13
 -10 2 0 -1.10 0.29
 -10 2 2 3.58 -0.31
 -10 -2 2 3.60 -0.03
 -10 2 2 3.58 -0.31
 -10 -2 4 -4.18 0.18
 -10 2 4 -4.16 0.20
 -10 2 4 -4.16 0.20
 -10 2 6 1.62 -0.03
 -10 2 8 1.17 -0.03
 -10 -2 8 1.16 0.11
 -10 2 10 -1.12 -0.03
 -10 -2 10 -1.13 -0.02
 -10 -2 12 -1.01 0.01
 -10 2 12 -1.04 0.06
 -10 2 14 2.30 0.04
 -10 -2 14 2.28 -0.04
 -10 2 16 -1.31 -0.16
 -10 -2 16 -1.32 0.01
 -10 -2 18 -0.66 0.08
 -10 2 18 -0.69 0.14
 -10 2 20 1.75 -0.02
 -10 -2 20 1.75 -0.12
 -10 -2 22 -1.06 0.08
 -10 2 22 -1.03 -0.07
 -10 2 24 -1.02 0.01
 -10 -2 24 -0.99 -0.04
 -10 2 26 3.39 0.12
 -10 -2 26 3.39 0.02
 -10 2 28 -5.34 -0.11
 -10 -2 28 -5.36 0.12
 -10 2 30 6.35 -0.11
 -10 -2 30 6.38 -0.40
 -10 2 32 -5.93 0.36
 -10 -2 32 -5.97 0.64
 -10 2 34 4.14 -0.40
 -10 -2 34 4.18 -0.60
 -10 -3 -31 -0.80 0.09
 -10 3 -31 0.82 0.28
 -10 3 -29 -3.72 -0.20
 -10 -3 -29 3.72 0.07
 -10 -3 -27 -2.59 -0.12
 -10 -3 -27 -2.59 -0.12
 -10 3 -27 2.58 0.02
 -10 -3 -25 -0.26 -0.01
 -10 3 -25 0.26 0.05
 -10 -3 -25 -0.26 -0.01
 -10 -3 -23 0.30 0.12
 -10 3 -23 -0.29 0.06
 -10 -3 -21 2.43 -0.04
 -10 3 -21 -2.44 -0.13
 -10 -3 -19 -4.14 -0.20
 -10 3 -19 4.13 -0.04
 -10 3 -17 -3.50 0.33
 -10 -3 -17 3.50 0.40
 -10 -3 -15 -2.63 -0.41
 -10 3 -15 2.65 -0.40
 -10 3 -13 -2.64 0.16
 -10 -3 -13 2.64 0.22
 -10 -3 -11 -2.59 0.02
 -10 3 -11 2.56 0.10
 -10 -3 -9 2.59 -0.14
 -10 3 -9 -2.55 -0.08
 -10 -3 -7 -3.66 0.07
 -10 3 -7 3.66 -0.15
 -10 -3 -5 4.92 0.07
 -10 3 -5 -4.96 0.28
 -10 3 -3 4.60 -0.21
 -10 3 -3 4.60 -0.21
 -10 -3 -3 -4.55 -0.12
 -10 3 -1 -3.35 0.17
 -10 3 -1 -3.35 0.17
 -10 -3 -1 3.33 0.01
 -10 3 1 3.54 -0.26
 -10 3 1 3.54 -0.26
 -10 -3 1 -3.53 0.12
 -10 3 3 -4.79 0.28
 -10 -3 3 4.78 -0.19
 -10 3 3 -4.79 0.28
 -10 3 5 4.32 -0.09
 -10 -3 5 -4.32 0.19
 -10 3 5 4.32 -0.09
 -10 3 7 -1.64 -0.15
 -10 3 9 -0.47 0.17
 -10 -3 11 -0.20 -0.08
 -10 3 11 0.17 -0.05
 -10 -3 13 -0.52 0.05
 -10 3 13 0.57 0.03
 -10 3 15 1.02 -0.18
 -10 -3 15 -1.04 -0.03
 -10 3 17 -4.23 0.33
 -10 -3 17 4.22 0.00
 -10 -3 19 -5.34 -0.01
 -10 3 19 5.35 -0.30
 -10 3 21 -2.34 0.14
 -10 -3 21 2.37 0.05
 -10 3 23 -2.21 0.01
 -10 -3 23 2.16 -0.05
 -10 3 25 3.97 -0.07
 -10 -3 25 -3.93 -0.02
 -10 3 27 -2.05 0.10
 -10 -3 27 2.04 0.08
 -10 3 29 -0.37 -0.16
 -10 -3 29 0.37 0.01
 -10 3 31 0.50 0.25
 -10 -3 31 -0.50 -0.19
 -10 3 33 1.09 -0.28
 -10 -3 33 -1.10 0.29
 -10 -3 35 2.28 -0.24
 -10 3 35 -2.26 0.21
 -10 -4 -30 -3.45 0.00
 -10 4 -30 -3.45 -0.14
 -10 4 -28 4.87 -0.02
 -10 -4 -28 4.90 0.17
 -10 -4 -28 4.90 0.17
 -10 -4 -26 -2.93 -0.16
 -10 4 -26 -2.92 0.13
 -10 -4 -26 -2.93 -0.16
 -10 -4 -24 0.89 0.00
 -10 4 -24 0.92 -0.11
 -10 -4 -24 0.89 0.00
 -10 4 -22 -1.52 0.01
 -10 -4 -22 -1.49 0.07
 -10 -4 -20 3.50 0.08
 -10 4 -20 3.51 -0.01
 -10 -4 -18 -4.47 -0.37
 -10 4 -18 -4.46 0.18
 -10 4 -16 3.93 -0.34
 -10 -4 -16 3.94 0.57
 -10 -4 -14 -2.68 -0.46
 -10 4 -14 -2.68 0.26
 -10 4 -12 1.04 0.03
 -10 -4 -12 1.07 0.12
 -10 4 -10 0.14 -0.23
 -10 -4 -10 0.09 0.19
 -10 4 -8 0.50 0.15
 -10 -4 -8 0.53 -0.21
 -10 4 -6 -2.57 0.04
 -10 -4 -6 -2.53 0.04
 -10 4 -4 3.53 -0.10
 -10 4 -4 3.53 -0.10
 -10 -4 -4 3.47 0.04
 -10 -4 -2 -2.24 0.07
 -10 4 -2 -2.29 0.06
 -10 4 -2 -2.29 0.06
 -10 4 0 0.87 -0.14
 -10 4 0 0.87 -0.14
 -10 -4 0 0.85 -0.16
 -10 4 2 -1.20 0.27
 -10 -4 2 -1.17 0.06
 -10 4 2 -1.20 0.27
 -10 4 4 1.95 -0.19
 -10 4 4 1.95 -0.19
 -10 -4 4 1.92 0.14
 -10 -4 6 -0.83 -0.21
 -10 4 6 -0.81 -0.12
 -10 4 8 -1.65 0.35
 -10 4 10 2.82 -0.28
 -10 4 12 -2.27 0.10
 -10 4 14 2.62 -0.09
 -10 4 16 -5.25 0.21
 -10 -4 16 -5.25 -0.03
 -10 -4 18 7.16 0.09
 -10 4 18 7.18 -0.28
 -10 -4 20 -4.57 -0.12
 -10 4 20 -4.56 0.18
 -10 4 22 -1.29 0.02
 -10 -4 22 -1.24 0.05
 -10 -4 24 4.30 0.12
 -10 4 24 4.35 -0.20
 -10 4 26 -1.20 0.30
 -10 -4 26 -1.18 -0.27
 -10 4 28 -4.64 -0.31
 -10 -4 28 -4.64 0.26
 -10 4 30 7.31 0.26
 -10 -4 30 7.32 -0.11
 -10 -4 32 -5.40 -0.05
 -10 4 32 -5.39 -0.19
 -10 4 34 1.86 0.10
 -10 -4 34 1.84 0.11
 -10 -5 -29 -4.52 -0.15
 -10 -5 -29 -4.52 -0.15
 -10 5 -29 4.48 -0.15
 -10 -5 -27 4.69 0.21
 -10 5 -27 -4.65 0.20
 -10 -5 -27 4.69 0.21
 -10 -5 -25 -3.11 -0.07
 -10 5 -25 3.12 -0.13
 -10 -5 -25 -3.11 -0.07
 -10 -5 -23 1.98 -0.14
 -10 5 -23 -2.03 0.02
 -10 -5 -23 1.98 -0.14
 -10 -5 -21 -2.15 0.20
 -10 5 -21 2.18 0.04
 -10 5 -19 -2.63 0.01
 -10 -5 -19 2.64 0.01
 -10 5 -17 2.47 -0.14
 -10 -5 -17 -2.48 -0.34
 -10 5 -15 -1.61 0.22
 -10 -5 -15 1.62 0.48
 -10 -5 -13 -0.29 -0.25
 -10 5 -13 0.26 -0.13
 -10 5 -11 1.18 -0.09
 -10 -5 -11 -1.13 -0.14
 -10 5 -9 -1.75 0.23
 -10 -5 -9 1.70 0.32
 -10 -5 -7 -0.86 -0.17
 -10 5 -7 0.85 -0.16
 -10 -5 -5 -0.37 -0.02
 -10 5 -5 0.43 0.01
 -10 5 -5 0.43 0.01
 -10 -5 -3 0.23 -0.01
 -10 5 -3 -0.27 0.06
 -10 5 -3 -0.27 0.06
 -10 5 -1 -1.36 -0.11
 -10 5 -1 -1.36 -0.11
 -10 -5 -1 1.36 0.11
 -10 5 1 2.53 0.21
 -10 5 1 2.53 0.21
 -10 -5 1 -2.53 0.03
 -10 5 3 -2.15 -0.25
 -10 -5 3 2.19 -0.34
 -10 5 3 -2.15 -0.25
 -10 5 5 1.69 0.06
 -10 -5 5 -1.71 0.52
 -10 5 5 1.69 0.06
 -10 5 7 -2.85 0.23
 -10 -5 7 2.81 -0.42
 -10 5 9 4.63 -0.33
 -10 5 11 -4.67 0.21
 -10 5 13 3.22 -0.10
 -10 5 15 -3.09 0.11
 -10 5 17 4.78 -0.16
 -10 5 19 -4.57 0.13
 -10 -5 21 0.03 -0.06
 -10 5 21 -0.05 -0.02
 -10 -5 23 -5.38 -0.11
 -10 5 23 5.42 -0.12
 -10 5 25 -5.62 0.22
 -10 -5 25 5.60 0.28
 -10 5 27 0.34 -0.24
 -10 -5 27 -0.34 -0.30
 -10 5 29 4.89 0.14
 -10 -5 29 -4.90 0.14
 -10 5 31 -5.86 0.01
 -10 -5 31 5.87 0.05
 -10 5 33 3.61 -0.12
 -10 -5 33 -3.60 -0.15
 -10 6 -28 -2.39 0.27
 -10 -6 -28 -2.43 -0.20
 -10 -6 -28 -2.43 -0.20
 -10 6 -26 3.36 -0.12
 -10 -6 -26 3.37 0.14
 -10 -6 -26 3.37 0.14
 -10 -6 -24 -3.11 0.07
 -10 6 -24 -3.14 -0.06
 -10 -6 -24 -3.11 0.07
 -10 6 -22 1.72 0.15
 -10 -6 -22 1.68 -0.28
 -10 -6 -22 1.68 -0.28
 -10 6 -20 0.11 -0.13
 -10 -6 -20 0.11 0.27
 -10 -6 -20 0.11 0.27
 -10 -6 -18 -1.19 -0.02
 -10 6 -18 -1.21 0.08
 -10 -6 -16 1.02 -0.25
 -10 6 -16 1.04 0.02
 -10 6 -14 -0.11 -0.11
 -10 -6 -14 -0.09 0.26
 -10 6 -12 -0.42 0.10
 -10 -6 -12 -0.45 -0.01
 -10 -6 -10 -0.02 -0.20
 -10 6 -10 -0.05 0.03
 -10 -6 -8 0.78 0.11
 -10 6 -8 0.77 -0.09
 -10 6 -6 -0.67 -0.01
 -10 6 -6 -0.67 -0.01
 -10 -6 -6 -0.73 0.15
 -10 6 -4 0.16 0.16
 -10 6 -4 0.16 0.16
 -10 -6 -4 0.21 -0.25
 -10 -6 -2 -0.81 0.16
 -10 6 -2 -0.81 -0.20
 -10 6 -2 -0.81 -0.20
 -10 6 0 2.75 0.19
 -10 6 0 2.75 0.19
 -10 -6 0 2.72 -0.16
 -10 6 2 -3.91 -0.18
 -10 -6 2 -3.90 0.32
 -10 6 2 -3.91 -0.18
 -10 -6 4 3.19 -0.45
 -10 6 4 3.16 0.15
 -10 6 4 3.16 0.15
 -10 6 6 -2.50 -0.06
 -10 -6 6 -2.52 0.37
 -10 6 6 -2.50 -0.06
 -10 6 8 3.81 -0.02
 -10 6 10 -5.04 0.03
 -10 6 12 3.18 -0.03
 -10 6 14 0.15 0.07
 -10 6 16 -0.40 -0.09
 -10 6 18 -2.49 0.08
 -10 6 20 3.12 -0.08
 -10 6 22 1.30 0.08
 -10 6 24 -6.37 0.01
 -10 6 26 6.67 -0.13
 -10 6 28 -2.90 0.14
 -10 -6 30 -0.23 0.05
 -10 6 30 -0.22 0.01
 -10 -6 32 0.52 0.09
 -10 6 32 0.50 -0.17
 -10 7 -27 1.72 -0.20
 -10 -7 -27 -1.74 -0.19
 -10 -7 -27 -1.74 -0.19
 -10 -7 -25 4.39 0.13
 -10 -7 -25 4.39 0.13
 -10 7 -25 -4.38 -0.01
 -10 -7 -23 -3.63 0.02
 -10 -7 -23 -3.63 0.02
 -10 -7 -21 -0.38 -0.14
 -10 -7 -21 -0.38 -0.14
 -10 7 -21 0.38 -0.15
 -10 7 -19 -4.23 0.13
 -10 -7 -19 4.21 0.09
 -10 -7 -19 4.21 0.09
 -10 -7 -17 -4.83 0.07
 -10 7 -17 4.87 -0.14
 -10 -7 -15 2.32 -0.17
 -10 7 -15 -2.34 0.09
 -10 -7 -13 0.83 0.08
 -10 7 -13 -0.82 0.03
 -10 7 -11 2.05 -0.09
 -10 -7 -11 -2.05 0.06
 -10 7 -9 -0.82 0.08
 -10 -7 -9 0.81 0.00
 -10 -7 -7 1.01 -0.26
 -10 7 -7 -0.98 -0.13
 -10 7 -7 -0.98 -0.13
 -10 7 -5 1.33 0.27
 -10 7 -5 1.33 0.27
 -10 -7 -5 -1.38 0.45
 -10 7 -3 -0.86 -0.32
 -10 7 -3 -0.86 -0.32
 -10 -7 -3 0.88 -0.43
 -10 -7 -1 -1.53 0.35
 -10 7 -1 1.57 0.21
 -10 7 -1 1.57 0.21
 -10 7 1 -3.12 -0.05
 -10 7 1 -3.12 -0.05
 -10 -7 1 3.07 -0.33
 -10 7 3 3.20 0.00
 -10 -7 3 -3.20 0.31
 -10 7 3 3.20 0.00
 -10 7 5 -2.07 -0.10
 -10 -7 5 2.12 -0.17
 -10 7 5 -2.07 -0.10
 -10 -7 7 -2.88 0.02
 -10 7 7 2.83 0.24
 -10 7 9 -5.40 -0.30
 -10 7 11 5.05 0.20
 -10 7 13 0.07 -0.05
 -10 7 15 -4.11 0.00
 -10 7 17 1.25 -0.04
 -10 7 19 5.12 0.01
 -10 7 21 -6.71 0.13
 -10 7 23 1.79 -0.14
 -10 7 25 3.26 -0.10
 -10 7 27 -3.47 0.36
 -10 7 29 0.92 -0.38
 -10 7 31 0.26 0.19
 -10 -8 -26 -4.47 -0.19
 -10 8 -26 -4.47 0.12
 -10 -8 -26 -4.47 -0.19
 -10 8 -24 6.27 0.04
 -10 -8 -24 6.27 0.19
 -10 -8 -22 -2.47 -0.12
 -10 8 -22 -2.47 -0.06
 -10 -8 -22 -2.47 -0.12
 -10 8 -20 -3.40 0.02
 -10 -8 -20 -3.39 0.05
 -10 -8 -20 -3.39 0.05
 -10 8 -18 6.07 -0.09
 -10 -8 -18 6.05 -0.05
 -10 -8 -18 6.05 -0.05
 -10 8 -16 -4.25 0.19
 -10 -8 -16 -4.23 0.08
 -10 -8 -14 0.69 -0.04
 -10 8 -14 0.70 -0.17
 -10 8 -12 1.44 0.02
 -10 -8 -12 1.44 -0.03
 -10 -8 -10 -0.87 0.01
 -10 8 -10 -0.88 0.11
 -10 -8 -8 -1.44 0.16
 -10 8 -8 -1.43 -0.19
 -10 8 -8 -1.43 -0.19
 -10 8 -6 3.19 0.25
 -10 8 -6 3.19 0.25
 -10 -8 -6 3.21 -0.33
 -10 8 -4 -3.06 -0.28
 -10 -8 -4 -3.07 0.36
 -10 8 -4 -3.06 -0.28
 -10 -8 -2 2.12 -0.30
 -10 8 -2 2.13 0.16
 -10 8 -2 2.13 0.16
 -10 8 0 -1.76 0.06
 -10 8 0 -1.76 0.06
 -10 -8 0 -1.71 0.28
 -10 8 2 1.26 -0.20
 -10 -8 2 1.23 -0.26
 -10 -8 4 -0.36 0.12
 -10 8 4 -0.34 0.11
 -10 8 4 -0.34 0.11
 -10 8 6 1.37 0.16
 -10 8 6 1.37 0.16
 -10 -8 6 1.43 0.06
 -10 8 8 -5.49 -0.37
 -10 -8 8 -5.54 -0.10
 -10 8 10 8.10 0.33
 -10 8 12 -4.20 -0.08
 -10 8 14 -2.89 -0.08
 -10 8 16 4.25 0.00
 -10 8 18 2.28 0.09
 -10 8 20 -8.81 0.03
 -10 8 22 8.49 -0.16
 -10 8 24 -4.13 0.00
 -10 8 26 2.35 0.40
 -10 8 28 -4.07 -0.62
 -10 8 30 5.10 0.50
 -10 9 -25 5.89 -0.02
 -10 -9 -25 -5.90 -0.14
 -10 -9 -25 -5.90 -0.14
 -10 -9 -23 4.57 0.13
 -10 -9 -23 4.57 0.13
 -10 9 -23 -4.57 -0.04
 -10 9 -21 -0.39 0.00
 -10 -9 -21 0.40 -0.04
 -10 -9 -21 0.40 -0.04
 -10 -9 -19 -3.32 -0.04
 -10 9 -19 3.30 -0.01
 -10 -9 -19 -3.32 -0.04
 -10 -9 -17 1.93 0.06
 -10 9 -17 -1.92 0.13
 -10 -9 -17 1.93 0.06
 -10 -9 -15 0.65 -0.05
 -10 9 -15 -0.64 -0.21
 -10 -9 -15 0.65 -0.05
 -10 -9 -13 -1.25 0.04
 -10 9 -13 1.26 0.12
 -10 9 -11 0.01 0.05
 -10 -9 -11 -0.02 -0.03
 -10 9 -9 -1.67 -0.13
 -10 -9 -9 1.68 -0.06
 -10 9 -7 2.83 0.10
 -10 9 -7 2.83 0.10
 -10 -9 -7 -2.82 0.15
 -10 9 -5 -3.03 -0.03
 -10 9 -5 -3.03 -0.03
 -10 -9 -5 3.02 -0.14
 -10 9 -3 2.22 -0.06
 -10 -9 -3 -2.22 0.06
 -10 9 -3 2.22 -0.06
 -10 9 -1 -0.76 0.19
 -10 9 -1 -0.76 0.19
 -10 -9 -1 0.75 -0.07
 -10 -9 1 1.28 0.18
 -10 9 1 -1.26 -0.30
 -10 9 1 -1.26 -0.30
 -10 -9 3 -3.30 -0.22
 -10 9 3 3.30 0.25
 -10 9 3 3.30 0.25
 -10 9 5 -2.95 0.00
 -10 9 5 -2.95 0.00
 -10 -9 5 2.93 0.07
 -10 -9 7 1.66 0.10
 -10 9 7 -1.63 -0.26
 -10 9 7 -1.63 -0.26
 -10 -9 9 -7.12 -0.10
 -10 9 9 7.10 0.27
 -10 -9 11 7.05 -0.07
 -10 9 11 -7.05 0.03
 -10 9 13 0.83 -0.36
 -10 9 15 4.13 0.40
 -10 9 17 -1.97 -0.21
 -10 9 19 -3.74 0.11
 -10 9 21 5.94 -0.17
 -10 9 23 -4.11 0.10
 -10 9 25 3.31 0.20
 -10 9 27 -5.44 -0.44
 -10 9 29 6.90 0.35
 -10 -10 -24 -3.78 -0.02
 -10 -10 -24 -3.78 -0.02
 -10 -10 -22 1.15 -0.05
 -10 -10 -22 1.15 -0.05
 -10 -10 -20 0.64 0.16
 -10 -10 -20 0.64 0.16
 -10 -10 -18 1.40 -0.20
 -10 -10 -18 1.40 -0.20
 -10 -10 -16 -4.27 0.13
 -10 -10 -16 -4.27 0.13
 -10 -10 -14 3.58 -0.02
 -10 -10 -14 3.58 -0.02
 -10 10 -12 0.17 0.07
 -10 -10 -12 0.18 -0.06
 -10 -10 -12 0.18 -0.06
 -10 10 -10 -2.99 -0.11
 -10 -10 -10 -3.00 0.12
 -10 10 -8 2.84 -0.02
 -10 -10 -8 2.83 -0.16
 -10 -10 -6 -1.05 0.13
 -10 10 -6 -1.08 0.19
 -10 10 -6 -1.08 0.19
 -10 10 -4 -0.25 -0.29
 -10 -10 -4 -0.25 0.00
 -10 10 -4 -0.25 -0.29
 -10 10 -2 0.74 0.32
 -10 -10 -2 0.71 -0.07
 -10 10 -2 0.74 0.32
 -10 10 0 -1.63 -0.33
 -10 10 0 -1.63 -0.33
 -10 -10 0 -1.60 -0.07
 -10 10 2 3.75 0.26
 -10 -10 2 3.74 0.30
 -10 10 2 3.75 0.26
 -10 10 4 -5.27 -0.05
 -10 -10 4 -5.28 -0.33
 -10 10 4 -5.27 -0.05
 -10 10 6 3.04 -0.19
 -10 10 6 3.04 -0.19
 -10 -10 6 3.05 0.12
 -10 10 8 2.45 0.20
 -10 10 8 2.45 0.20
 -10 -10 8 2.44 0.07
 -10 -10 10 -5.81 0.03
 -10 10 10 -5.81 0.14
 -10 -10 12 3.42 -0.36
 -10 10 12 3.39 -0.62
 -10 10 14 1.28 0.88
 -10 10 16 -2.32 -0.77
 -10 10 18 -0.20 0.50
 -10 10 20 1.44 -0.30
 -10 10 22 0.20 0.14
 -10 10 24 -1.22 0.11
 -10 10 26 -0.59 -0.29
 -10 -11 -21 0.40 -0.12
 -10 -11 -21 0.40 -0.12
 -10 -11 -19 -1.69 0.20
 -10 -11 -19 -1.69 0.20
 -10 -11 -17 4.46 -0.15
 -10 -11 -17 4.46 -0.15
 -10 -11 -15 -4.54 0.00
 -10 -11 -15 -4.54 0.00
 -10 -11 -13 0.38 0.13
 -10 -11 -13 0.38 0.13
 -10 -11 -11 4.50 -0.18
 -10 -11 -11 4.50 -0.18
 -10 -11 -9 -5.69 0.21
 -10 -11 -9 -5.69 0.21
 -10 -11 -7 2.68 -0.21
 -10 -11 -5 1.20 0.11
 -10 11 -3 2.58 0.23
 -10 -11 -3 -2.56 0.04
 -10 11 -1 -1.40 -0.21
 -10 -11 -1 1.36 -0.04
 -10 11 1 0.46 0.20
 -10 -11 1 -0.43 -0.19
 -10 -11 3 1.40 0.42
 -10 11 3 -1.40 -0.09
 -10 11 5 2.04 -0.07
 -10 -11 5 -2.07 -0.39
 -10 11 7 0.29 0.06
 -10 -11 7 -0.27 0.18
 -10 -11 9 3.94 -0.13
 -10 11 9 -3.92 0.29
 -10 11 11 4.72 -0.82
 -10 -11 11 -4.80 0.42
 -10 11 13 -2.44 1.18
 -10 -11 13 2.56 -0.83
 -10 11 15 0.98 -1.17
 -10 11 17 -2.02 0.89
 -10 11 19 2.64 -0.55
 -10 11 21 -0.55 0.23
 -10 11 23 -2.21 0.10
 -10 11 25 2.79 -0.32
 -10 -12 -18 -1.37 0.13
 -10 -12 -18 -1.37 0.13
 -10 -12 -16 1.66 -0.02
 -10 -12 -16 1.66 -0.02
 -10 -12 -14 -0.24 -0.09
 -10 -12 -14 -0.24 -0.09
 -10 -12 -12 -2.96 0.11
 -10 -12 -12 -2.96 0.11
 -10 -12 -10 5.69 -0.07
 -10 -12 -10 5.69 -0.07
 -10 -12 -8 -5.24 0.08
 -10 -12 -8 -5.24 0.08
 -10 -12 -6 1.45 -0.07
 -10 -12 -6 1.45 -0.07
 -10 -12 -4 2.40 -0.04
 -10 -12 -2 -2.70 0.15
 -10 12 -2 -2.72 0.09
 -10 12 0 -0.07 0.00
 -10 -12 0 -0.10 -0.08
 -10 12 2 2.14 -0.11
 -10 -12 2 2.13 -0.15
 -10 -12 4 -1.61 0.32
 -10 12 4 -1.65 0.09
 -10 -12 6 0.97 -0.31
 -10 12 6 1.01 -0.12
 -10 12 8 -2.31 0.42
 -10 -12 8 -2.35 0.27
 -10 -12 10 3.97 -0.40
 -10 12 10 3.86 -0.91
 -10 -12 12 -3.69 0.66
 -10 12 12 -3.54 1.24
 -10 12 14 2.73 -1.20
 -10 -12 14 2.86 -0.84
 -10 12 16 -3.71 0.90
 -10 12 18 5.42 -0.59
 -10 12 20 -4.99 0.31
 -10 12 22 2.15 -0.02
 -10 -13 -15 -1.79 0.02
 -10 -13 -15 -1.79 0.02
 -10 -13 -13 0.61 -0.01
 -10 -13 -13 0.61 -0.01
 -10 -13 -11 -0.78 -0.08
 -10 -13 -11 -0.78 -0.08
 -10 -13 -9 2.46 0.12
 -10 -13 -9 2.46 0.12
 -10 -13 -7 -2.79 -0.08
 -10 -13 -7 -2.79 -0.08
 -10 -13 -5 0.15 0.09
 -10 -13 -5 0.15 0.09
 -10 -13 -3 2.72 -0.19
 -10 -13 -3 2.72 -0.19
 -10 -13 -1 -2.29 0.25
 -10 -13 -1 -2.29 0.25
 -10 13 1 0.54 -0.06
 -10 -13 1 -0.54 -0.17
 -10 13 3 -1.97 0.18
 -10 -13 3 1.93 -0.01
 -10 13 5 0.98 -0.18
 -10 -13 5 -0.92 0.17
 -10 -13 7 0.00 -0.27
 -10 13 7 0.00 0.31
 -10 13 9 0.27 -0.67
 -10 -13 9 -0.34 0.37
 -10 13 11 -0.41 0.95
 -10 -13 11 0.51 -0.44
 -10 -13 13 -0.06 0.41
 -10 13 13 -0.02 -0.89
 -10 -13 15 0.75 -0.31
 -10 13 15 -0.71 0.56
 -10 13 17 3.20 -0.28
 -10 -13 17 -3.20 0.23
 -10 13 19 -5.32 0.15
 -10 -14 -12 -1.57 0.05
 -10 -14 -12 -1.57 0.05
 -10 -14 -10 1.56 -0.12
 -10 -14 -10 1.56 -0.12
 -10 -14 -8 1.22 0.10
 -10 -14 -8 1.22 0.10
 -10 -14 -6 -2.44 -0.05
 -10 -14 -6 -2.44 -0.05
 -10 -14 -4 0.30 0.08
 -10 -14 -4 0.30 0.08
 -10 -14 -2 1.95 -0.17
 -10 -14 -2 1.95 -0.17
 -10 -14 0 -1.27 0.19
 -10 -14 0 -1.27 0.19
 -10 -14 2 -0.73 -0.12
 -10 -14 2 -0.73 -0.12
 -10 14 4 1.02 -0.21
 -10 -14 4 0.98 -0.01
 -10 -14 4 0.98 -0.01
 -10 14 6 0.45 0.13
 -10 -14 6 0.47 0.15
 -10 -14 6 0.47 0.15
 -10 14 8 -1.65 -0.22
 -10 -14 8 -1.62 -0.28
 -10 14 10 2.17 0.40
 -10 -14 10 2.13 0.32
 -10 14 12 -2.76 -0.41
 -10 14 14 2.90 0.18
 -10 14 16 -1.41 0.05
 -10 -15 -5 -2.89 0.04
 -10 -15 -3 0.20 0.01
 -10 -15 -1 1.03 -0.06
 -10 -15 1 0.39 0.06
 -10 -15 3 -1.89 -0.01
 -10 15 5 -1.48 0.13
 -10 -15 5 1.47 -0.05
 -10 15 7 0.09 -0.01
 -10 -15 7 -0.09 0.13
 -10 -15 9 -0.79 -0.17
 -10 15 9 0.81 0.02
 -9 1 -34 0.15 0.04
 -9 -1 -34 0.14 -0.03
 -9 1 -32 0.36 0.09
 -9 -1 -32 0.35 -0.03
 -9 -1 -30 -0.82 0.06
 -9 1 -30 -0.84 -0.10
 -9 -1 -28 0.92 0.02
 -9 1 -28 0.93 -0.04
 -9 -1 -26 -1.37 -0.11
 -9 1 -26 -1.37 0.14
 -9 -1 -26 -1.37 -0.11
 -9 1 -24 1.84 -0.06
 -9 -1 -24 1.84 0.05
 -9 1 -22 -0.63 -0.13
 -9 -1 -22 -0.62 0.10
 -9 1 -20 -2.32 0.25
 -9 -1 -20 -2.32 -0.16
 -9 -1 -18 4.42 0.04
 -9 1 -18 4.41 -0.21
 -9 -1 -16 -3.79 0.15
 -9 1 -16 -3.78 0.06
 -9 -1 -14 2.08 -0.21
 -9 1 -14 2.07 0.10
 -9 1 -12 -2.41 -0.17
 -9 -1 -12 -2.39 0.11
 -9 -1 -10 5.47 0.02
 -9 1 -10 5.53 0.12
 -9 1 -8 -8.99 -0.03
 -9 -1 -8 -8.94 -0.06
 -9 1 -6 9.69 0.03
 -9 -1 -6 9.67 0.00
 -9 1 -4 -6.56 -0.14
 -9 -1 -4 -6.57 0.07
 -9 -1 -2 1.39 -0.12
 -9 1 -2 1.39 0.25
 -9 -1 0 2.73 0.18
 -9 1 0 2.71 -0.27
 -9 1 0 2.71 -0.27
 -9 1 2 -3.94 0.21
 -9 1 2 -3.94 0.21
 -9 -1 2 -3.95 -0.23
 -9 -1 4 2.89 0.19
 -9 1 4 2.91 -0.09
 -9 -1 4 2.89 0.19
 -9 1 6 -1.27 -0.03
 -9 -1 6 -1.23 -0.09
 -9 -1 8 0.27 0.05
 -9 1 8 0.30 0.07
 -9 -1 10 -1.07 -0.09
 -9 1 10 -1.10 -0.02
 -9 -1 12 4.09 0.10
 -9 1 12 4.14 -0.04
 -9 1 14 -7.56 0.06
 -9 -1 14 -7.53 -0.05
 -9 1 16 7.59 -0.11
 -9 -1 16 7.60 0.05
 -9 -1 18 -2.72 -0.14
 -9 1 18 -2.69 0.22
 -9 1 20 -3.72 -0.27
 -9 -1 20 -3.70 0.20
 -9 1 22 6.45 0.17
 -9 -1 22 6.47 -0.11
 -9 -1 24 -4.24 -0.06
 -9 1 24 -4.23 -0.03
 -9 1 26 0.25 0.01
 -9 -1 26 0.23 0.15
 -9 1 28 2.15 -0.11
 -9 -1 28 2.19 -0.11
 -9 -1 30 -2.69 -0.04
 -9 1 30 -2.67 0.19
 -9 1 32 2.64 -0.19
 -9 -1 32 2.64 0.23
 -9 1 34 -2.47 0.17
 -9 -1 34 -2.48 -0.36
 -9 1 36 1.72 -0.14
 -9 -1 36 1.74 0.34
 -9 -2 -33 0.24 -0.13
 -9 2 -33 -0.23 -0.07
 -9 2 -31 -0.01 0.01
 -9 -2 -31 -0.01 0.09
 -9 -2 -29 0.39 -0.05
 -9 2 -29 -0.38 -0.08
 -9 -2 -27 -0.48 0.08
 -9 2 -27 0.48 0.15
 -9 -2 -27 -0.48 0.08
 -9 2 -25 0.68 -0.10
 -9 -2 -25 -0.66 -0.11
 -9 -2 -25 -0.66 -0.11
 -9 -2 -23 1.01 0.06
 -9 2 -23 -1.03 -0.01
 -9 2 -21 -1.66 0.06
 -9 -2 -21 1.67 0.02
 -9 2 -19 5.31 -0.07
 -9 -2 -19 -5.31 0.02
 -9 -2 -17 5.73 -0.17
 -9 2 -17 -5.74 0.06
 -9 -2 -15 -2.64 0.30
 -9 2 -15 2.64 0.04
 -9 2 -13 -0.19 -0.24
 -9 -2 -13 0.20 -0.27
 -9 2 -11 1.81 0.38
 -9 -2 -11 -1.81 0.16
 -9 2 -9 -6.65 -0.31
 -9 -2 -9 6.62 -0.08
 -9 -2 -7 -10.79 0.08
 -9 2 -7 10.82 0.14
 -9 2 -5 -10.60 -0.09
 -9 -2 -5 10.60 -0.06
 -9 2 -3 5.32 0.18
 -9 -2 -3 -5.32 -0.02
 -9 2 -1 1.69 -0.29
 -9 2 -1 1.69 -0.29
 -9 -2 -1 -1.70 0.04
 -9 2 1 -5.71 0.32
 -9 -2 1 5.73 0.11
 -9 2 1 -5.71 0.32
 -9 2 3 5.07 -0.29
 -9 2 3 5.07 -0.29
 -9 -2 3 -5.07 -0.31
 -9 2 5 -1.99 0.22
 -9 2 7 -0.44 -0.13
 -9 -2 7 0.43 -0.26
 -9 -2 9 -0.38 0.19
 -9 2 9 0.40 0.05
 -9 -2 11 -2.91 -0.20
 -9 2 11 2.92 -0.02
 -9 2 13 -8.37 0.04
 -9 -2 13 8.34 0.22
 -9 2 15 11.60 -0.11
 -9 -2 15 -11.58 -0.20
 -9 2 17 -8.32 0.22
 -9 -2 17 8.32 0.20
 -9 -2 19 -0.11 -0.19
 -9 2 19 0.10 -0.27
 -9 2 21 6.08 0.17
 -9 -2 21 -6.09 0.11
 -9 2 23 -5.47 0.02
 -9 -2 23 5.48 0.03
 -9 2 25 0.28 -0.10
 -9 -2 25 -0.26 -0.12
 -9 -2 27 -4.20 0.13
 -9 2 27 4.16 0.00
 -9 2 29 -5.48 0.12
 -9 -2 29 5.51 -0.06
 -9 -2 31 -4.91 -0.07
 -9 2 31 4.92 -0.13
 -9 2 33 -3.75 0.07
 -9 -2 33 3.73 0.22
 -9 2 35 1.97 -0.05
 -9 -2 35 -1.97 -0.28
 -9 -2 37 -0.05 0.17
 -9 2 37 0.07 0.04
 -9 3 -32 0.71 0.04
 -9 -3 -32 0.72 -0.17
 -9 -3 -30 -1.74 0.09
 -9 3 -30 -1.73 -0.10
 -9 3 -28 3.06 0.14
 -9 -3 -28 3.06 -0.02
 -9 -3 -26 -2.43 0.05
 -9 3 -26 -2.41 -0.03
 -9 -3 -26 -2.43 0.05
 -9 -3 -24 0.23 -0.08
 -9 3 -24 0.20 -0.12
 -9 -3 -24 0.23 -0.08
 -9 3 -22 0.08 0.10
 -9 -3 -22 0.04 0.04
 -9 3 -20 2.49 0.02
 -9 -3 -20 2.50 0.01
 -9 -3 -18 -4.15 0.04
 -9 3 -18 -4.17 -0.03
 -9 -3 -16 2.03 -0.19
 -9 3 -16 2.05 -0.02
 -9 3 -14 1.99 -0.10
 -9 -3 -14 1.98 0.31
 -9 3 -12 -4.07 0.40
 -9 -3 -12 -4.04 -0.30
 -9 3 -10 2.45 -0.55
 -9 -3 -10 2.44 0.24
 -9 3 -8 1.82 0.37
 -9 -3 -8 1.81 -0.21
 -9 3 -6 -5.63 -0.10
 -9 -3 -6 -5.61 0.14
 -9 3 -4 5.34 0.02
 -9 3 -4 5.34 0.02
 -9 -3 -2 -0.39 -0.27
 -9 3 -2 -0.41 -0.12
 -9 3 -2 -0.41 -0.12
 -9 3 0 -4.82 0.18
 -9 3 0 -4.82 0.18
 -9 -3 0 -4.85 0.24
 -9 3 2 5.57 -0.14
 -9 -3 2 5.59 0.05
 -9 3 2 5.57 -0.14
 -9 -3 4 -2.18 -0.31
 -9 3 4 -2.17 0.12
 -9 3 4 -2.17 0.12
 -9 3 6 -1.20 -0.15
 -9 3 8 1.77 0.13
 -9 3 10 0.51 -0.02
 -9 -3 10 0.55 0.11
 -9 -3 12 -4.66 -0.17
 -9 3 12 -4.64 -0.11
 -9 3 14 8.39 0.15
 -9 -3 14 8.38 0.21
 -9 3 16 -8.26 -0.05
 -9 -3 16 -8.24 -0.18
 -9 -3 18 3.14 0.11
 -9 3 18 3.16 -0.09
 -9 3 20 2.75 0.10
 -9 -3 20 2.76 -0.03
 -9 -3 22 -4.11 -0.03
 -9 3 22 -4.10 0.04
 -9 3 24 0.38 -0.16
 -9 -3 24 0.38 0.04
 -9 -3 26 4.37 -0.01
 -9 3 26 4.34 0.12
 -9 3 28 -6.71 0.00
 -9 -3 28 -6.73 0.00
 -9 3 30 6.51 -0.03
 -9 -3 30 6.50 0.00
 -9 3 32 -4.70 -0.02
 -9 -3 32 -4.66 -0.02
 -9 -3 34 1.76 0.07
 -9 3 34 1.79 0.04
 -9 3 36 1.26 0.00
 -9 -3 36 1.26 -0.08
 -9 -4 -33 0.57 0.18
 -9 4 -33 -0.57 0.02
 -9 4 -31 -0.16 -0.10
 -9 -4 -31 0.15 -0.17
 -9 -4 -29 -2.35 0.08
 -9 4 -29 2.35 0.20
 -9 -4 -29 -2.35 0.08
 -9 -4 -27 3.33 -0.06
 -9 4 -27 -3.31 -0.10
 -9 -4 -27 3.33 -0.06
 -9 4 -25 1.06 -0.15
 -9 -4 -25 -1.09 0.13
 -9 -4 -25 -1.09 0.13
 -9 -4 -23 -1.69 -0.17
 -9 4 -23 1.72 0.25
 -9 -4 -23 -1.69 -0.17
 -9 4 -21 -1.38 -0.08
 -9 -4 -21 1.37 0.07
 -9 4 -19 -1.10 -0.09
 -9 -4 -19 1.08 0.03
 -9 4 -17 1.88 0.02
 -9 -4 -17 -1.85 0.02
 -9 -4 -15 -0.25 -0.16
 -9 4 -15 0.23 0.07
 -9 4 -13 -3.30 0.11
 -9 -4 -13 3.30 0.24
 -9 4 -11 5.23 -0.43
 -9 -4 -11 -5.21 -0.22
 -9 -4 -9 4.66 0.19
 -9 4 -9 -4.68 0.47
 -9 4 -7 1.59 -0.20
 -9 -4 -7 -1.59 -0.17
 -9 4 -5 1.33 -0.01
 -9 4 -5 1.33 -0.01
 -9 -4 -5 -1.32 0.04
 -9 4 -3 -0.61 0.00
 -9 4 -3 -0.61 0.00
 -9 -4 -3 0.59 0.18
 -9 4 -1 -2.86 0.00
 -9 -4 -1 2.90 -0.26
 -9 4 -1 -2.86 0.00
 -9 4 1 4.19 0.20
 -9 4 1 4.19 0.20
 -9 -4 1 -4.23 0.02
 -9 4 3 -1.37 -0.41
 -9 -4 3 1.40 0.31
 -9 4 3 -1.37 -0.41
 -9 4 5 -1.91 0.33
 -9 -4 5 1.91 -0.39
 -9 4 7 2.01 -0.03
 -9 4 9 0.25 -0.14
 -9 4 11 -2.44 0.02
 -9 4 13 3.76 0.21
 -9 -4 15 3.77 0.17
 -9 4 15 -3.77 -0.25
 -9 -4 17 -1.40 -0.12
 -9 4 17 1.43 0.07
 -9 -4 19 -2.53 0.08
 -9 4 19 2.49 0.11
 -9 -4 21 4.81 -0.05
 -9 4 21 -4.78 -0.10
 -9 4 23 3.41 -0.01
 -9 -4 23 -3.42 0.04
 -9 4 25 0.13 0.05
 -9 -4 25 -0.14 -0.07
 -9 4 27 -3.13 0.02
 -9 -4 27 3.13 0.13
 -9 4 29 4.24 -0.02
 -9 -4 29 -4.22 -0.11
 -9 4 31 -3.42 -0.07
 -9 -4 31 3.38 0.03
 -9 -4 33 -0.99 0.03
 -9 4 33 1.04 0.14
 -9 -4 35 -1.75 -0.02
 -9 4 35 1.72 -0.09
 -9 5 -32 3.28 -0.12
 -9 -5 -32 3.31 0.22
 -9 5 -30 -1.59 0.24
 -9 -5 -30 -1.60 -0.15
 -9 -5 -30 -1.60 -0.15
 -9 -5 -28 -0.93 0.09
 -9 5 -28 -0.92 -0.25
 -9 -5 -28 -0.93 0.09
 -9 -5 -26 0.38 -0.16
 -9 5 -26 0.36 0.03
 -9 -5 -26 0.38 -0.16
 -9 5 -24 3.02 0.22
 -9 -5 -24 3.00 0.27
 -9 -5 -24 3.00 0.27
 -9 5 -22 -4.61 -0.20
 -9 -5 -22 -4.61 -0.25
 -9 -5 -22 -4.61 -0.25
 -9 5 -20 2.13 -0.02
 -9 -5 -20 2.15 0.11
 -9 -5 -20 2.15 0.11
 -9 5 -18 1.58 0.10
 -9 -5 -18 1.55 0.00
 -9 5 -16 -3.15 0.06
 -9 -5 -16 -3.10 0.02
 -9 -5 -14 2.15 -0.06
 -9 5 -14 2.19 -0.15
 -9 -5 -12 0.10 0.00
 -9 5 -12 0.09 -0.02
 -9 5 -10 -2.19 0.21
 -9 -5 -10 -2.18 0.06
 -9 5 -8 2.41 -0.16
 -9 -5 -8 2.38 -0.03
 -9 5 -6 -0.66 0.02
 -9 5 -6 -0.66 0.02
 -9 -5 -6 -0.65 -0.02
 -9 5 -4 -0.33 -0.02
 -9 -5 -4 -0.32 0.00
 -9 5 -4 -0.33 -0.02
 -9 -5 -2 -1.02 -0.04
 -9 5 -2 -0.99 0.01
 -9 5 -2 -0.99 0.01
 -9 -5 0 2.03 0.29
 -9 5 0 1.96 0.33
 -9 5 0 1.96 0.33
 -9 5 2 0.03 -0.87
 -9 -5 2 -0.05 -0.64
 -9 5 2 0.03 -0.87
 -9 -5 4 -2.53 0.73
 -9 5 4 -2.59 1.07
 -9 5 4 -2.59 1.07
 -9 -5 6 1.78 -0.46
 -9 5 6 1.80 -0.65
 -9 5 8 1.50 0.01
 -9 5 10 -3.28 0.26
 -9 5 12 2.41 -0.08
 -9 5 14 -0.90 -0.13
 -9 5 16 -0.42 0.04
 -9 5 18 2.44 0.20
 -9 -5 20 -4.81 0.23
 -9 5 20 -4.77 -0.26
 -9 -5 22 5.58 -0.10
 -9 5 22 5.57 0.10
 -9 -5 24 -4.25 -0.03
 -9 5 24 -4.26 0.04
 -9 5 26 2.17 -0.02
 -9 -5 26 2.17 0.01
 -9 -5 28 -0.86 0.11
 -9 5 28 -0.84 -0.01
 -9 5 30 0.87 -0.08
 -9 -5 30 0.90 -0.17
 -9 5 32 -1.98 0.18
 -9 -5 32 -2.00 0.13
 -9 5 34 3.10 -0.14
 -9 -5 34 3.11 -0.09
 -9 6 -31 -4.14 0.14
 -9 -6 -31 4.18 0.13
 -9 -6 -31 4.18 0.13
 -9 -6 -29 -1.68 -0.01
 -9 6 -29 1.67 -0.18
 -9 -6 -29 -1.68 -0.01
 -9 -6 -27 0.51 -0.01
 -9 6 -27 -0.54 0.10
 -9 -6 -25 -3.05 -0.12
 -9 6 -25 3.07 0.12
 -9 -6 -25 -3.05 -0.12
 -9 -6 -23 6.14 0.21
 -9 -6 -23 6.14 0.21
 -9 6 -23 -6.13 -0.25
 -9 6 -21 5.42 0.13
 -9 -6 -21 -5.44 -0.16
 -9 -6 -21 -5.44 -0.16
 -9 -6 -19 1.40 0.04
 -9 6 -19 -1.39 0.06
 -9 -6 -19 1.40 0.04
 -9 6 -17 -2.21 -0.03
 -9 -6 -17 2.20 0.02
 -9 6 -15 3.39 -0.17
 -9 -6 -15 -3.36 -0.05
 -9 -6 -13 2.56 0.15
 -9 6 -13 -2.59 0.28
 -9 6 -11 0.75 -0.20
 -9 -6 -11 -0.74 -0.27
 -9 6 -9 0.83 0.10
 -9 -6 -9 -0.80 0.27
 -9 6 -7 -0.77 -0.06
 -9 6 -7 -0.77 -0.06
 -9 -6 -7 0.74 -0.14
 -9 6 -5 -0.35 -0.02
 -9 6 -5 -0.35 -0.02
 -9 -6 -5 0.35 0.00
 -9 6 -3 0.61 0.11
 -9 6 -3 0.61 0.11
 -9 -6 -3 -0.59 0.17
 -9 6 -1 -0.20 0.12
 -9 -6 -1 0.16 -0.47
 -9 6 -1 -0.20 0.12
 -9 6 1 0.91 -0.77
 -9 -6 1 -0.82 0.85
 -9 6 1 0.91 -0.77
 -9 6 3 -1.99 1.33
 -9 6 3 -1.99 1.33
 -9 -6 3 1.87 -0.99
 -9 -6 5 -0.41 0.71
 -9 6 5 0.51 -1.21
 -9 6 5 0.51 -1.21
 -9 6 7 3.32 0.48
 -9 6 9 -5.42 0.17
 -9 6 11 3.73 -0.27
 -9 6 13 -0.81 0.04
 -9 6 15 -0.55 0.02
 -9 6 17 0.74 0.15
 -9 6 19 -1.25 -0.23
 -9 6 21 1.98 0.03
 -9 6 23 -2.20 0.23
 -9 6 25 2.11 -0.27
 -9 -6 27 2.37 0.21
 -9 6 27 -2.36 0.18
 -9 -6 29 -3.16 0.07
 -9 6 29 3.14 -0.15
 -9 6 31 -4.02 0.20
 -9 -6 31 4.02 -0.24
 -9 -6 33 -4.13 0.27
 -9 6 33 4.14 -0.13
 -9 7 -30 1.74 0.03
 -9 -7 -30 1.76 -0.03
 -9 -7 -30 1.76 -0.03
 -9 -7 -28 -0.50 0.15
 -9 -7 -28 -0.50 0.15
 -9 7 -28 -0.51 -0.05
 -9 -7 -26 1.60 -0.12
 -9 -7 -26 1.60 -0.12
 -9 7 -26 1.62 0.11
 -9 -7 -24 -4.51 -0.01
 -9 7 -24 -4.50 -0.20
 -9 -7 -24 -4.51 -0.01
 -9 7 -22 5.72 0.19
 -9 -7 -22 5.74 0.06
 -9 -7 -22 5.74 0.06
 -9 7 -20 -3.98 -0.07
 -9 -7 -20 -3.98 -0.01
 -9 -7 -20 -3.98 -0.01
 -9 7 -18 1.62 0.00
 -9 -7 -18 1.59 -0.05
 -9 -7 -18 1.59 -0.05
 -9 -7 -16 -0.64 0.08
 -9 7 -16 -0.65 -0.11
 -9 7 -14 0.79 0.30
 -9 -7 -14 0.81 -0.12
 -9 7 -12 -1.38 -0.38
 -9 -7 -12 -1.39 0.21
 -9 -7 -10 2.24 -0.22
 -9 7 -10 2.27 0.31
 -9 7 -8 -2.52 -0.19
 -9 -7 -8 -2.49 0.11
 -9 7 -8 -2.52 -0.19
 -9 7 -6 1.16 0.04
 -9 7 -6 1.16 0.04
 -9 -7 -6 1.16 0.03
 -9 -7 -4 0.97 -0.15
 -9 7 -4 0.99 0.12
 -9 7 -4 0.99 0.12
 -9 7 -2 -2.34 -0.12
 -9 7 -2 -2.34 -0.12
 -9 -7 -2 -2.33 0.32
 -9 -7 0 2.56 -0.60
 -9 7 0 2.59 -0.25
 -9 7 0 2.59 -0.25
 -9 7 2 -1.89 0.82
 -9 -7 2 -1.81 0.80
 -9 7 2 -1.89 0.82
 -9 -7 4 -0.55 -0.69
 -9 7 4 -0.43 -1.05
 -9 7 4 -0.43 -1.05
 -9 -7 6 4.06 0.29
 -9 7 6 3.99 0.65
 -9 7 8 -6.13 -0.02
 -9 7 10 4.86 -0.25
 -9 7 12 -1.74 0.09
 -9 7 14 -0.25 0.09
 -9 7 16 0.08 -0.04
 -9 7 18 1.27 -0.05
 -9 7 20 -2.61 -0.04
 -9 7 22 2.92 0.22
 -9 7 24 -1.55 -0.23
 -9 7 26 -0.88 0.11
 -9 7 28 2.80 -0.06
 -9 7 30 -3.26 0.14
 -9 7 32 2.40 -0.13
 -9 -8 -29 0.81 -0.05
 -9 -8 -29 0.81 -0.05
 -9 8 -29 -0.80 -0.12
 -9 -8 -27 -1.13 0.09
 -9 8 -27 1.14 0.09
 -9 -8 -27 -1.13 0.09
 -9 8 -25 -1.78 -0.06
 -9 -8 -25 1.78 -0.01
 -9 -8 -25 1.78 -0.01
 -9 -8 -23 -2.04 -0.09
 -9 8 -23 2.01 0.04
 -9 -8 -23 -2.04 -0.09
 -9 8 -21 -1.46 -0.03
 -9 -8 -21 1.49 0.08
 -9 -8 -21 1.49 0.08
 -9 8 -19 1.22 0.04
 -9 -8 -19 -1.20 0.01
 -9 -8 -19 -1.20 0.01
 -9 -8 -17 1.99 -0.07
 -9 8 -17 -2.02 -0.10
 -9 -8 -17 1.99 -0.07
 -9 -8 -15 -2.88 0.06
 -9 -8 -15 -2.88 0.06
 -9 8 -15 2.88 0.22
 -9 -8 -13 2.87 -0.04
 -9 8 -13 -2.86 -0.29
 -9 8 -11 2.66 0.23
 -9 -8 -11 -2.64 0.00
 -9 -8 -9 2.80 0.10
 -9 8 -9 -2.84 -0.12
 -9 8 -9 -2.84 -0.12
 -9 8 -7 2.29 0.03
 -9 8 -7 2.29 0.03
 -9 -8 -7 -2.28 -0.21
 -9 8 -5 -0.09 0.04
 -9 8 -5 -0.09 0.04
 -9 -8 -5 0.11 0.23
 -9 8 -3 -2.69 -0.12
 -9 -8 -3 2.68 -0.19
 -9 8 -3 -2.69 -0.12
 -9 8 -1 4.17 0.07
 -9 8 -1 4.17 0.07
 -9 -8 -1 -4.19 0.22
 -9 8 1 -3.60 0.19
 -9 8 1 -3.60 0.19
 -9 -8 1 3.61 -0.37
 -9 -8 3 -1.44 0.45
 -9 8 3 1.47 -0.43
 -9 8 3 1.47 -0.43
 -9 -8 5 -1.10 -0.29
 -9 8 5 1.05 0.35
 -9 8 5 1.05 0.35
 -9 8 7 -2.55 0.01
 -9 -8 7 2.57 -0.03
 -9 8 9 2.39 -0.25
 -9 8 11 -1.29 0.15
 -9 8 13 0.34 0.07
 -9 8 15 -0.11 -0.16
 -9 8 17 0.93 0.12
 -9 8 19 -2.56 -0.08
 -9 8 21 3.18 -0.02
 -9 8 23 -0.74 0.27
 -9 8 25 -3.80 -0.54
 -9 8 27 6.65 0.54
 -9 8 29 -5.56 -0.26
 -9 8 31 2.01 0.00
 -9 9 -28 3.02 0.04
 -9 -9 -28 3.01 0.03
 -9 -9 -28 3.01 0.03
 -9 -9 -26 -1.80 -0.07
 -9 -9 -26 -1.80 -0.07
 -9 9 -26 -1.82 0.06
 -9 9 -24 -0.80 -0.16
 -9 -9 -24 -0.78 0.20
 -9 -9 -24 -0.78 0.20
 -9 9 -22 2.61 0.16
 -9 -9 -22 2.57 -0.25
 -9 -9 -22 2.57 -0.25
 -9 9 -20 -2.30 -0.05
 -9 -9 -20 -2.29 0.15
 -9 -9 -20 -2.29 0.15
 -9 9 -18 0.48 -0.10
 -9 -9 -18 0.50 -0.01
 -9 -9 -18 0.50 -0.01
 -9 -9 -16 0.98 -0.04
 -9 9 -16 0.99 0.18
 -9 -9 -16 0.98 -0.04
 -9 -9 -14 -0.96 -0.01
 -9 9 -14 -0.95 -0.16
 -9 -9 -14 -0.96 -0.01
 -9 9 -12 0.16 0.06
 -9 -9 -12 0.15 0.09
 -9 9 -10 0.03 0.06
 -9 -9 -10 0.06 -0.18
 -9 9 -8 0.36 -0.07
 -9 -9 -8 0.33 0.26
 -9 9 -8 0.36 -0.07
 -9 9 -6 -0.26 0.00
 -9 -9 -6 -0.26 -0.28
 -9 9 -6 -0.26 0.00
 -9 9 -4 -0.65 0.04
 -9 9 -4 -0.65 0.04
 -9 -9 -4 -0.63 0.18
 -9 9 -2 1.55 0.00
 -9 9 -2 1.55 0.00
 -9 -9 -2 1.58 -0.04
 -9 -9 0 -1.84 0.01
 -9 9 0 -1.78 0.00
 -9 9 0 -1.78 0.00
 -9 9 2 1.54 -0.07
 -9 9 2 1.54 -0.07
 -9 -9 2 1.59 -0.13
 -9 -9 4 -1.58 0.21
 -9 9 4 -1.58 0.04
 -9 9 4 -1.58 0.04
 -9 -9 6 2.14 -0.09
 -9 9 6 2.17 0.16
 -9 9 6 2.17 0.16
 -9 -9 8 -2.45 -0.17
 -9 9 8 -2.48 -0.33
 -9 9 10 1.42 0.26
 -9 9 12 0.58 -0.04
 -9 9 14 -1.90 -0.11
 -9 9 16 1.98 0.17
 -9 9 18 -1.60 -0.17
 -9 9 20 0.19 -0.01
 -9 9 22 4.22 0.48
 -9 9 24 -10.85 -1.01
 -9 9 26 14.81 1.14
 -9 9 28 -12.44 -0.77
 -9 9 30 5.97 0.28
 -9 -10 -25 0.33 -0.11
 -9 -10 -25 0.33 -0.11
 -9 -10 -23 -3.29 0.23
 -9 -10 -23 -3.29 0.23
 -9 -10 -21 2.74 -0.21
 -9 -10 -21 2.74 -0.21
 -9 -10 -19 -0.47 0.06
 -9 -10 -19 -0.47 0.06
 -9 -10 -17 -0.56 0.05
 -9 10 -17 0.58 0.17
 -9 -10 -17 -0.56 0.05
 -9 10 -15 0.10 -0.12
 -9 -10 -15 -0.11 -0.03
 -9 -10 -15 -0.11 -0.03
 -9 -10 -13 0.80 -0.05
 -9 10 -13 -0.80 0.00
 -9 -10 -13 0.80 -0.05
 -9 10 -11 0.65 0.09
 -9 -10 -11 -0.67 0.09
 -9 -10 -11 -0.67 0.09
 -9 10 -9 -0.40 -0.06
 -9 -10 -9 0.43 -0.11
 -9 -10 -7 -0.48 0.13
 -9 10 -7 0.46 -0.07
 -9 10 -7 0.46 -0.07
 -9 -10 -5 -0.11 -0.10
 -9 10 -5 0.11 0.18
 -9 10 -5 0.11 0.18
 -9 10 -3 -1.96 -0.16
 -9 10 -3 -1.96 -0.16
 -9 -10 -3 1.95 -0.01
 -9 10 -1 3.99 0.07
 -9 -10 -1 -3.94 0.13
 -9 -10 1 4.27 -0.14
 -9 10 1 -4.34 0.01
 -9 10 1 -4.34 0.01
 -9 10 3 2.26 -0.09
 -9 -10 3 -2.24 0.03
 -9 10 3 2.26 -0.09
 -9 10 5 1.20 0.27
 -9 -10 5 -1.17 0.05
 -9 10 5 1.20 0.27
 -9 -10 7 3.71 0.03
 -9 10 7 -3.76 -0.44
 -9 10 7 -3.76 -0.44
 -9 10 9 3.30 0.39
 -9 -10 9 -3.26 -0.22
 -9 10 11 0.09 -0.16
 -9 -10 11 -0.10 0.30
 -9 10 13 -3.81 -0.03
 -9 10 15 5.43 0.11
 -9 10 17 -4.60 -0.19
 -9 10 19 1.45 0.19
 -9 10 21 4.84 0.13
 -9 10 23 -13.15 -0.67
 -9 10 25 18.32 0.98
 -9 10 27 -15.96 -0.79
 -9 10 29 8.39 0.36
 -9 -11 -24 2.46 -0.05
 -9 -11 -24 2.46 -0.05
 -9 -11 -22 -1.39 0.11
 -9 -11 -22 -1.39 0.11
 -9 -11 -20 -2.04 -0.04
 -9 -11 -20 -2.04 -0.04
 -9 -11 -18 2.84 -0.06
 -9 -11 -18 2.84 -0.06
 -9 -11 -16 -0.40 0.05
 -9 -11 -16 -0.40 0.05
 -9 -11 -14 -1.05 0.03
 -9 -11 -14 -1.05 0.03
 -9 -11 -12 -0.75 -0.06
 -9 -11 -12 -0.75 -0.06
 -9 -11 -10 2.75 0.02
 -9 -11 -10 2.75 0.02
 -9 -11 -8 -1.69 0.02
 -9 -11 -8 -1.69 0.02
 -9 -11 -6 -0.67 0.00
 -9 -11 -4 0.12 0.00
 -9 11 -4 0.11 -0.23
 -9 11 -2 3.99 0.10
 -9 -11 -2 3.96 -0.07
 -9 -11 0 -7.76 0.18
 -9 11 0 -7.79 0.03
 -9 -11 2 7.67 -0.23
 -9 11 2 7.68 -0.13
 -9 -11 4 -3.74 0.15
 -9 11 4 -3.70 0.30
 -9 11 6 -1.03 -0.51
 -9 -11 6 -0.98 -0.02
 -9 11 8 3.11 0.51
 -9 -11 8 3.07 -0.02
 -9 -11 10 -1.24 -0.03
 -9 11 10 -1.25 -0.25
 -9 -11 12 -2.91 0.08
 -9 11 12 -2.91 -0.03
 -9 11 14 6.66 0.12
 -9 11 16 -8.37 -0.12
 -9 11 18 7.22 0.17
 -9 11 20 -2.17 -0.14
 -9 11 22 -6.02 -0.11
 -9 11 24 12.47 0.37
 -9 11 26 -11.92 -0.34
 -9 -12 -21 2.33 -0.01
 -9 -12 -21 2.33 -0.01
 -9 -12 -19 -4.01 0.07
 -9 -12 -19 -4.01 0.07
 -9 -12 -17 0.67 -0.06
 -9 -12 -17 0.67 -0.06
 -9 -12 -15 3.10 -0.03
 -9 -12 -15 3.10 -0.03
 -9 -12 -13 -1.43 0.08
 -9 -12 -13 -1.43 0.08
 -9 -12 -11 -3.97 -0.03
 -9 -12 -11 -3.97 -0.03
 -9 -12 -9 5.95 -0.03
 -9 -12 -9 5.95 -0.03
 -9 -12 -7 -1.97 0.03
 -9 -12 -7 -1.97 0.03
 -9 -12 -5 -2.65 0.03
 -9 -12 -5 -2.65 0.03
 -9 12 -3 -2.15 0.06
 -9 -12 -3 2.15 -0.06
 -9 -12 -3 2.15 -0.06
 -9 12 -1 -2.66 0.03
 -9 -12 -1 2.65 -0.01
 -9 -12 1 -6.28 0.17
 -9 12 1 6.28 -0.07
 -9 -12 3 5.21 -0.25
 -9 12 3 -5.18 0.13
 -9 -12 5 -0.74 0.14
 -9 12 5 0.70 -0.28
 -9 12 7 3.22 0.38
 -9 -12 7 -3.21 0.07
 -9 -12 9 3.84 -0.20
 -9 12 9 -3.83 -0.23
 -9 -12 11 -1.26 0.17
 -9 12 11 1.25 -0.09
 -9 12 13 2.74 0.26
 -9 -12 13 -2.76 -0.07
 -9 12 15 -6.80 -0.19
 -9 12 17 9.87 0.09
 -9 12 19 -9.79 -0.08
 -9 12 21 5.05 0.06
 -9 12 23 1.60 0.02
 -9 12 25 -4.42 0.00
 -9 -13 -18 -1.75 0.09
 -9 -13 -18 -1.75 0.09
 -9 -13 -16 -2.63 -0.03
 -9 -13 -16 -2.63 -0.03
 -9 -13 -14 3.64 -0.01
 -9 -13 -14 3.64 -0.01
 -9 -13 -12 1.35 -0.01
 -9 -13 -12 1.35 -0.01
 -9 -13 -10 -7.06 0.05
 -9 -13 -10 -7.06 0.05
 -9 -13 -8 6.94 -0.05
 -9 -13 -8 6.94 -0.05
 -9 -13 -6 -1.60 -0.01
 -9 -13 -6 -1.60 -0.01
 -9 -13 -4 -2.60 0.09
 -9 -13 -4 -2.60 0.09
 -9 -13 -2 1.72 -0.10
 -9 -13 -2 1.72 -0.10
 -9 -13 0 1.87 0.00
 -9 -13 0 1.87 0.00
 -9 13 0 1.87 0.03
 -9 13 2 -3.43 -0.10
 -9 -13 2 -3.42 0.15
 -9 -13 2 -3.42 0.15
 -9 -13 4 1.21 -0.21
 -9 13 4 1.22 0.11
 -9 13 6 2.49 -0.02
 -9 -13 6 2.52 0.09
 -9 -13 8 -4.61 0.07
 -9 13 8 -4.57 -0.02
 -9 -13 10 4.11 -0.11
 -9 13 10 4.09 -0.09
 -9 -13 12 -2.05 0.03
 -9 13 12 -2.08 0.25
 -9 -13 14 -1.07 0.04
 -9 13 14 -1.01 -0.25
 -9 13 16 5.48 0.12
 -9 -13 16 5.53 -0.02
 -9 13 18 -9.85 -0.04
 -9 13 20 10.61 0.03
 -9 13 22 -6.60 -0.03
 -9 -14 -15 -0.54 -0.06
 -9 -14 -15 -0.54 -0.06
 -9 -14 -13 -0.78 0.11
 -9 -14 -13 -0.78 0.11
 -9 -14 -11 4.75 -0.12
 -9 -14 -11 4.75 -0.12
 -9 -14 -9 -7.38 0.09
 -9 -14 -9 -7.38 0.09
 -9 -14 -7 6.14 -0.03
 -9 -14 -7 6.14 -0.03
 -9 -14 -5 -3.00 -0.02
 -9 -14 -5 -3.00 -0.02
 -9 -14 -3 1.35 0.06
 -9 -14 -3 1.35 0.06
 -9 -14 -1 -1.99 -0.07
 -9 -14 -1 -1.99 -0.07
 -9 -14 1 2.96 0.02
 -9 -14 1 2.96 0.02
 -9 14 1 -2.99 -0.13
 -9 -14 3 -2.38 0.09
 -9 14 3 2.41 0.22
 -9 -14 3 -2.38 0.09
 -9 -14 5 0.50 -0.15
 -9 14 5 -0.53 -0.24
 -9 -14 5 0.50 -0.15
 -9 -14 7 0.99 0.14
 -9 -14 7 0.99 0.14
 -9 14 7 -0.95 0.11
 -9 -14 9 -1.34 -0.14
 -9 14 9 1.31 0.02
 -9 14 11 -1.40 -0.05
 -9 -14 11 1.40 0.18
 -9 14 13 1.54 0.00
 -9 -14 13 -1.50 -0.18
 -9 14 15 -0.12 0.01
 -9 -14 15 0.09 0.10
 -9 14 17 -3.78 0.00
 -9 -14 17 3.78 -0.04
 -9 14 19 7.56 0.04
 -9 -14 19 -7.54 0.06
 -9 -15 -10 2.89 -0.07
 -9 -15 -8 -3.24 0.01
 -9 -15 -6 3.60 -0.01
 -9 -15 -4 -4.03 0.02
 -9 -15 -2 4.13 0.03
 -9 -15 0 -3.57 -0.10
 -9 -15 2 2.67 0.08
 -9 15 4 -2.08 -0.10
 -9 -15 4 -2.06 0.01
 -9 15 6 2.22 0.03
 -9 -15 6 2.21 -0.10
 -9 -15 8 -2.84 0.17
 -9 15 8 -2.86 0.17
 -9 -15 10 2.74 -0.22
 -9 15 10 2.76 -0.35
 -9 15 12 -1.05 0.37
 -9 -15 12 -1.03 0.19
 -9 15 14 -0.93 -0.29
 -9 -15 14 -0.95 -0.08
 -9 -16 1 -1.93 -0.11
 -9 -16 3 1.10 0.07
 -8 0 -34 -1.44 0.02
 -8 0 -32 -1.64 -0.15
 -8 0 -30 3.09 0.11
 -8 0 -28 0.28 0.06
 -8 0 -26 -3.38 -0.11
 -8 0 -26 -3.38 -0.11
 -8 0 -24 -0.12 0.01
 -8 0 -24 -0.12 0.01
 -8 0 -22 6.94 0.06
 -8 0 -20 -8.16 -0.04
 -8 0 -18 2.50 0.07
 -8 0 -16 2.27 -0.20
 -8 0 -14 -0.56 0.24
 -8 0 -12 -4.88 -0.07
 -8 0 -10 7.90 -0.11
 -8 0 -8 -5.09 0.05
 -8 0 -6 -2.71 0.17
 -8 0 -4 10.98 -0.21
 -8 0 -2 -14.40 -0.02
 -8 0 0 11.93 0.23
 -8 0 2 -7.74 -0.23
 -8 0 2 -7.74 -0.23
 -8 0 4 5.49 0.11
 -8 0 6 -4.63 -0.09
 -8 0 8 3.74 0.10
 -8 0 10 -3.48 -0.01
 -8 0 12 4.01 -0.13
 -8 0 14 -3.07 0.13
 -8 0 16 -0.66 0.02
 -8 0 18 5.01 -0.16
 -8 0 20 -6.91 0.15
 -8 0 22 5.19 -0.02
 -8 0 24 -0.08 -0.11
 -8 0 26 -7.30 0.15
 -8 0 28 13.42 -0.06
 -8 0 30 -13.49 -0.07
 -8 0 32 6.08 0.12
 -8 0 34 4.13 -0.05
 -8 0 36 -9.91 -0.01
 -8 0 38 7.95 0.00
 -8 1 -35 -0.21 0.14
 -8 -1 -35 0.21 0.19
 -8 1 -33 -1.48 -0.26
 -8 -1 -33 1.48 -0.03
 -8 -1 -31 -3.65 -0.12
 -8 1 -31 3.64 0.19
 -8 1 -29 -1.98 0.03
 -8 -1 -29 1.98 0.06
 -8 1 -27 -2.54 -0.13
 -8 -1 -27 2.56 0.09
 -8 -1 -27 2.56 0.09
 -8 1 -25 3.29 -0.01
 -8 -1 -25 -3.31 -0.14
 -8 -1 -25 -3.31 -0.14
 -8 1 -25 3.29 -0.01
 -8 1 -23 1.73 0.16
 -8 -1 -23 -1.71 0.08
 -8 -1 -23 -1.71 0.08
 -8 -1 -21 5.77 -0.02
 -8 1 -21 -5.78 -0.09
 -8 1 -19 3.27 -0.07
 -8 -1 -19 -3.27 -0.02
 -8 1 -17 2.24 0.04
 -8 -1 -17 -2.21 0.10
 -8 1 -15 -3.85 0.14
 -8 -1 -15 3.82 -0.16
 -8 -1 -13 -0.40 0.09
 -8 1 -13 0.41 -0.14
 -8 1 -11 3.82 -0.11
 -8 -1 -11 -3.80 0.04
 -8 1 -9 -4.63 0.28
 -8 -1 -9 4.60 0.00
 -8 1 -7 0.57 -0.14
 -8 -1 -7 -0.56 -0.22
 -8 1 -5 6.42 -0.13
 -8 -1 -5 -6.41 0.30
 -8 -1 -3 11.40 -0.04
 -8 1 -3 -11.40 0.20
 -8 1 -1 10.67 -0.08
 -8 1 -1 10.67 -0.08
 -8 -1 -1 -10.69 -0.31
 -8 -1 1 6.23 0.41
 -8 1 1 -6.19 0.00
 -8 1 1 -6.19 0.00
 -8 -1 3 -3.01 -0.23
 -8 1 3 2.98 -0.03
 -8 1 3 2.98 -0.03
 -8 -1 3 -3.01 -0.23
 -8 -1 5 2.56 0.06
 -8 1 5 -2.56 0.05
 -8 -1 7 -2.51 -0.06
 -8 1 7 2.53 0.02
 -8 -1 9 1.66 0.09
 -8 1 9 -1.69 -0.02
 -8 -1 11 -1.18 -0.04
 -8 1 11 1.21 -0.12
 -8 -1 13 1.27 0.00
 -8 1 13 -1.30 0.23
 -8 1 15 0.48 -0.18
 -8 -1 15 -0.46 -0.11
 -8 -1 17 -1.61 0.28
 -8 1 17 1.62 0.04
 -8 1 19 -3.59 0.03
 -8 -1 19 3.58 -0.34
 -8 1 21 4.03 -0.02
 -8 -1 21 -4.03 0.16
 -8 1 23 -2.14 0.03
 -8 -1 23 2.15 0.15
 -8 -1 25 2.37 -0.37
 -8 1 25 -2.38 -0.06
 -8 -1 27 -7.78 0.37
 -8 1 27 7.79 0.10
 -8 -1 29 10.07 -0.18
 -8 1 29 -10.07 -0.14
 -8 -1 31 -6.35 -0.01
 -8 1 31 6.35 0.15
 -8 -1 33 -1.40 0.06
 -8 1 33 1.40 -0.09
 -8 -1 35 7.60 -0.02
 -8 1 35 -7.61 0.02
 -8 1 37 8.10 -0.02
 -8 -1 37 -8.10 -0.03
 -8 2 -34 -2.83 -0.18
 -8 -2 -34 -2.83 0.05
 -8 2 -32 3.82 0.15
 -8 -2 -32 3.84 0.15
 -8 2 -30 -2.92 0.09
 -8 -2 -30 -2.94 -0.24
 -8 2 -28 -1.08 -0.27
 -8 -2 -28 -1.08 0.13
 -8 -2 -28 -1.08 0.13
 -8 2 -26 4.56 0.15
 -8 -2 -26 4.58 0.03
 -8 -2 -26 4.58 0.03
 -8 2 -24 -3.61 0.12
 -8 -2 -24 -3.62 -0.07
 -8 -2 -24 -3.62 -0.07
 -8 -2 -22 0.28 0.03
 -8 2 -22 0.28 -0.16
 -8 -2 -22 0.28 0.03
 -8 2 -20 0.24 -0.09
 -8 -2 -20 0.25 -0.01
 -8 2 -18 2.74 0.28
 -8 -2 -18 2.71 0.00
 -8 -2 -16 -5.26 0.03
 -8 2 -16 -5.30 -0.19
 -8 -2 -14 5.03 -0.02
 -8 2 -14 5.07 0.00
 -8 2 -12 -3.19 -0.06
 -8 -2 -12 -3.18 -0.05
 -8 -2 -10 1.57 0.04
 -8 2 -10 1.53 0.30
 -8 2 -8 -1.46 -0.36
 -8 -2 -8 -1.50 0.14
 -8 -2 -6 3.72 -0.32
 -8 2 -6 3.72 0.14
 -8 -2 -4 -6.51 0.24
 -8 2 -4 -6.52 0.10
 -8 2 -2 6.09 -0.13
 -8 -2 -2 6.10 0.07
 -8 2 -2 6.09 -0.13
 -8 -2 0 -1.74 -0.26
 -8 2 0 -1.70 0.07
 -8 2 0 -1.70 0.07
 -8 -2 2 -2.24 0.16
 -8 2 2 -2.29 -0.12
 -8 2 2 -2.29 -0.12
 -8 2 4 2.16 0.22
 -8 -2 6 0.08 -0.11
 -8 2 6 0.09 -0.18
 -8 -2 8 -0.20 0.03
 -8 2 8 -0.21 0.02
 -8 2 10 -2.26 0.04
 -8 -2 10 -2.28 0.03
 -8 -2 12 4.26 -0.01
 -8 2 12 4.23 0.03
 -8 -2 14 -3.57 0.06
 -8 2 14 -3.54 -0.09
 -8 2 16 0.99 0.06
 -8 -2 16 1.00 -0.22
 -8 -2 18 1.18 0.34
 -8 2 18 1.16 -0.03
 -8 -2 20 -1.35 -0.25
 -8 2 20 -1.34 0.06
 -8 2 22 0.06 -0.05
 -8 -2 22 0.05 -0.06
 -8 -2 24 0.60 0.38
 -8 2 24 0.58 -0.04
 -8 -2 26 0.32 -0.50
 -8 2 26 0.33 0.13
 -8 2 28 -1.05 -0.16
 -8 -2 28 -1.05 0.37
 -8 2 30 -0.44 0.12
 -8 -2 30 -0.44 -0.14
 -8 2 32 3.41 -0.06
 -8 -2 32 3.42 -0.04
 -8 2 34 -5.15 -0.01
 -8 -2 34 -5.16 0.11
 -8 2 36 4.24 0.06
 -8 -2 36 4.23 -0.11
 -8 2 38 -1.73 -0.04
 -8 -2 38 -1.73 0.06
 -8 3 -35 -1.65 -0.02
 -8 -3 -35 1.64 0.02
 -8 3 -33 1.78 0.04
 -8 -3 -33 -1.80 -0.13
 -8 3 -31 -1.20 0.10
 -8 -3 -31 1.23 0.25
 -8 3 -29 -0.94 -0.30
 -8 -3 -29 0.92 -0.22
 -8 -3 -29 0.92 -0.22
 -8 -3 -27 -3.51 0.08
 -8 3 -27 3.50 0.29
 -8 -3 -27 -3.51 0.08
 -8 3 -25 -3.98 -0.05
 -8 -3 -25 3.99 0.01
 -8 -3 -25 3.99 0.01
 -8 3 -23 2.19 -0.13
 -8 -3 -23 -2.19 0.01
 -8 -3 -23 -2.19 0.01
 -8 3 -21 -0.75 0.03
 -8 -3 -21 0.73 -0.04
 -8 -3 -21 0.73 -0.04
 -8 3 -19 1.03 0.23
 -8 -3 -19 -1.02 0.02
 -8 3 -17 -1.77 -0.32
 -8 -3 -17 1.75 -0.01
 -8 -3 -15 -2.11 0.02
 -8 3 -15 2.14 0.19
 -8 3 -13 -3.07 -0.07
 -8 -3 -13 3.04 0.01
 -8 3 -11 4.75 0.14
 -8 -3 -11 -4.75 -0.04
 -8 -3 -9 5.91 -0.01
 -8 3 -9 -5.88 -0.26
 -8 3 -7 5.95 0.23
 -8 -3 -7 -5.98 0.16
 -8 3 -5 -5.34 -0.08
 -8 -3 -5 5.34 -0.21
 -8 3 -3 3.31 0.02
 -8 3 -3 3.31 0.02
 -8 -3 -3 -3.29 0.09
 -8 3 -1 0.87 -0.06
 -8 -3 -1 -0.86 0.04
 -8 3 -1 0.87 -0.06
 -8 -3 1 4.73 -0.02
 -8 3 1 -4.75 -0.02
 -8 3 1 -4.75 -0.02
 -8 3 3 4.57 0.26
 -8 3 3 4.57 0.26
 -8 -3 3 -4.56 -0.10
 -8 3 5 -0.69 -0.41
 -8 3 7 -1.95 0.27
 -8 -3 9 0.20 -0.06
 -8 3 9 -0.21 0.00
 -8 3 11 5.08 -0.12
 -8 -3 11 -5.07 0.06
 -8 -3 13 7.57 -0.05
 -8 3 13 -7.56 0.07
 -8 3 15 4.96 0.00
 -8 -3 15 -4.98 0.12
 -8 -3 17 -0.57 -0.22
 -8 3 17 0.58 -0.07
 -8 3 19 -4.43 0.18
 -8 -3 19 4.45 0.19
 -8 3 21 3.94 -0.27
 -8 -3 21 -3.94 0.00
 -8 3 23 -0.38 0.23
 -8 -3 23 0.35 -0.23
 -8 -3 25 3.45 0.32
 -8 3 25 -3.43 -0.08
 -8 3 27 6.25 -0.06
 -8 -3 27 -6.24 -0.25
 -8 -3 29 8.01 0.12
 -8 3 29 -8.03 0.10
 -8 3 31 7.78 -0.08
 -8 -3 31 -7.78 -0.01
 -8 -3 33 4.51 -0.07
 -8 3 33 -4.48 0.02
 -8 3 35 -0.35 0.05
 -8 -3 35 0.33 0.12
 -8 3 37 3.36 -0.12
 -8 -3 37 -3.35 -0.12
 -8 -4 -34 -1.92 0.06
 -8 4 -34 -1.90 0.00
 -8 4 -32 1.91 0.02
 -8 -4 -32 1.89 -0.08
 -8 -4 -30 -2.03 0.06
 -8 -4 -30 -2.03 0.06
 -8 4 -30 -2.05 -0.12
 -8 -4 -28 2.07 0.02
 -8 4 -28 2.07 0.18
 -8 4 -26 -1.12 -0.13
 -8 -4 -26 -1.13 -0.07
 -8 -4 -26 -1.13 -0.07
 -8 4 -24 -0.74 0.03
 -8 -4 -24 -0.74 0.02
 -8 -4 -24 -0.74 0.02
 -8 4 -22 2.18 0.00
 -8 -4 -22 2.20 0.06
 -8 -4 -22 2.20 0.06
 -8 4 -20 -2.67 0.08
 -8 -4 -20 -2.67 -0.10
 -8 -4 -20 -2.67 -0.10
 -8 4 -18 3.31 -0.17
 -8 -4 -18 3.29 0.08
 -8 -4 -16 -4.38 -0.08
 -8 4 -16 -4.40 0.17
 -8 4 -14 3.88 -0.10
 -8 -4 -14 3.90 0.08
 -8 4 -12 -0.13 0.04
 -8 -4 -12 -0.16 -0.06
 -8 4 -10 -5.09 -0.05
 -8 -4 -10 -5.09 0.02
 -8 4 -8 8.31 0.10
 -8 -4 -8 8.34 -0.01
 -8 4 -6 -7.88 -0.13
 -8 4 -6 -7.88 -0.13
 -8 -4 -6 -7.90 0.00
 -8 -4 -4 4.61 0.06
 -8 4 -4 4.62 0.17
 -8 4 -4 4.62 0.17
 -8 4 -2 -0.21 -0.23
 -8 -4 -2 -0.20 -0.09
 -8 4 -2 -0.21 -0.23
 -8 -4 0 -3.22 0.04
 -8 4 0 -3.22 0.20
 -8 4 0 -3.22 0.20
 -8 -4 2 3.45 0.02
 -8 4 2 3.45 0.04
 -8 4 2 3.45 0.04
 -8 -4 4 -0.21 0.02
 -8 4 4 -0.18 -0.34
 -8 4 6 -3.67 0.42
 -8 4 8 4.16 -0.23
 -8 4 10 -0.32 0.01
 -8 4 12 -4.50 0.05
 -8 -4 14 5.69 -0.15
 -8 4 14 5.67 0.01
 -8 -4 16 -1.81 0.15
 -8 4 16 -1.78 -0.07
 -8 -4 18 -3.70 -0.11
 -8 4 18 -3.71 0.19
 -8 4 20 5.85 -0.37
 -8 -4 20 5.85 0.00
 -8 4 22 -2.88 0.47
 -8 -4 22 -2.87 0.07
 -8 4 24 -3.06 -0.38
 -8 -4 24 -3.09 -0.03
 -8 -4 26 8.98 -0.10
 -8 4 26 8.98 0.19
 -8 -4 28 -12.68 0.18
 -8 4 28 -12.70 -0.03
 -8 4 30 12.33 -0.04
 -8 -4 30 12.33 -0.13
 -8 -4 32 -7.10 0.02
 -8 4 32 -7.07 0.06
 -8 -4 34 -0.51 0.02
 -8 4 34 -0.55 -0.01
 -8 4 36 5.63 -0.07
 -8 -4 36 5.62 0.00
 -8 5 -33 3.04 0.01
 -8 -5 -33 -3.06 0.02
 -8 -5 -31 2.33 0.03
 -8 -5 -31 2.33 0.03
 -8 5 -31 -2.34 0.00
 -8 -5 -29 -0.96 -0.06
 -8 -5 -29 -0.96 -0.06
 -8 5 -29 0.97 0.00
 -8 -5 -27 -1.07 0.07
 -8 5 -27 1.08 -0.05
 -8 -5 -27 -1.07 0.07
 -8 -5 -25 3.01 -0.02
 -8 -5 -25 3.01 -0.02
 -8 5 -25 -3.01 0.17
 -8 -5 -23 -3.68 -0.08
 -8 5 -23 3.65 -0.28
 -8 -5 -23 -3.68 -0.08
 -8 5 -21 -3.13 0.28
 -8 -5 -21 3.15 0.15
 -8 -5 -21 3.15 0.15
 -8 -5 -19 -3.15 -0.16
 -8 5 -19 3.17 -0.17
 -8 -5 -19 -3.15 -0.16
 -8 5 -17 -4.88 0.09
 -8 -5 -17 4.83 0.14
 -8 -5 -15 -6.45 -0.13
 -8 5 -15 6.47 -0.08
 -8 5 -13 -4.81 0.05
 -8 -5 -13 4.84 0.14
 -8 5 -11 -0.60 0.01
 -8 -5 -11 0.57 -0.12
 -8 5 -9 6.39 -0.02
 -8 -5 -9 -6.40 0.07
 -8 -5 -7 8.71 0.03
 -8 5 -7 -8.68 -0.07
 -8 5 -7 -8.68 -0.07
 -8 5 -5 6.82 0.18
 -8 5 -5 6.82 0.18
 -8 -5 -5 -6.82 -0.15
 -8 -5 -3 3.29 0.20
 -8 5 -3 -3.30 -0.23
 -8 5 -3 -3.30 -0.23
 -8 5 -1 0.79 0.23
 -8 -5 -1 -0.79 -0.11
 -8 5 -1 0.79 0.23
 -8 5 1 -0.11 -0.16
 -8 5 1 -0.11 -0.16
 -8 -5 1 0.13 0.01
 -8 -5 3 -0.87 -0.05
 -8 5 3 0.88 0.01
 -8 5 3 0.88 0.01
 -8 5 5 -2.58 0.13
 -8 -5 5 2.54 0.19
 -8 5 7 4.21 -0.17
 -8 5 9 -4.07 0.12
 -8 5 11 1.53 -0.07
 -8 5 13 1.06 0.02
 -8 5 15 -0.44 0.03
 -8 5 17 -3.31 0.02
 -8 -5 19 -6.11 0.03
 -8 5 19 6.12 -0.21
 -8 -5 21 4.55 -0.01
 -8 5 21 -4.55 0.42
 -8 5 23 -0.77 -0.46
 -8 -5 23 0.79 -0.09
 -8 -5 25 -6.89 0.25
 -8 5 25 6.88 0.35
 -8 -5 27 11.40 -0.40
 -8 5 27 -11.40 -0.22
 -8 5 29 12.75 0.15
 -8 -5 29 -12.75 0.39
 -8 -5 31 9.90 -0.19
 -8 5 31 -9.87 -0.08
 -8 -5 33 -4.04 -0.05
 -8 5 33 3.99 0.03
 -8 -5 35 -1.11 0.13
 -8 5 35 1.13 -0.06
 -8 -6 -32 -0.69 0.01
 -8 6 -32 -0.68 -0.02
 -8 -6 -32 -0.69 0.01
 -8 6 -30 -0.25 -0.03
 -8 -6 -30 -0.27 -0.04
 -8 -6 -30 -0.27 -0.04
 -8 6 -28 2.19 0.04
 -8 -6 -28 2.21 0.09
 -8 -6 -28 2.21 0.09
 -8 6 -26 -3.53 0.12
 -8 -6 -26 -3.55 -0.11
 -8 -6 -26 -3.55 -0.11
 -8 6 -24 2.53 -0.43
 -8 -6 -24 2.56 0.15
 -8 -6 -24 2.56 0.15
 -8 -6 -22 0.21 -0.21
 -8 -6 -22 0.21 -0.21
 -8 6 -22 0.25 0.62
 -8 -6 -20 -2.05 0.24
 -8 -6 -20 -2.05 0.24
 -8 6 -20 -2.04 -0.52
 -8 6 -18 1.04 0.26
 -8 -6 -18 1.08 -0.21
 -8 -6 -18 1.08 -0.21
 -8 6 -16 1.49 -0.11
 -8 -6 -16 1.45 0.15
 -8 -6 -14 -2.41 -0.10
 -8 6 -14 -2.41 0.08
 -8 -6 -12 0.13 0.11
 -8 6 -12 0.11 -0.03
 -8 6 -10 3.72 -0.03
 -8 -6 -10 3.72 -0.14
 -8 6 -8 -5.79 0.00
 -8 -6 -8 -5.82 0.10
 -8 6 -8 -5.79 0.00
 -8 6 -6 4.85 0.07
 -8 6 -6 4.85 0.07
 -8 -6 -6 4.87 0.03
 -8 -6 -4 -2.97 -0.12
 -8 6 -4 -2.98 -0.02
 -8 6 -4 -2.98 -0.02
 -8 6 -2 2.63 -0.08
 -8 -6 -2 2.61 0.06
 -8 6 -2 2.63 -0.08
 -8 6 0 -3.28 0.06
 -8 6 0 -3.28 0.06
 -8 -6 0 -3.29 0.08
 -8 6 2 2.71 0.13
 -8 6 2 2.71 0.13
 -8 -6 2 2.73 -0.11
 -8 6 4 -1.04 -0.27
 -8 -6 4 -1.04 0.01
 -8 6 4 -1.04 -0.27
 -8 6 6 0.84 0.22
 -8 6 8 -2.76 -0.03
 -8 6 10 4.18 -0.11
 -8 6 12 -3.51 0.05
 -8 6 14 2.89 0.11
 -8 6 16 -4.33 -0.16
 -8 6 18 5.75 -0.05
 -8 6 20 -3.92 0.34
 -8 6 22 -0.56 -0.43
 -8 -6 24 4.19 -0.15
 -8 6 24 4.19 0.31
 -8 -6 26 -5.43 0.16
 -8 6 26 -5.44 -0.22
 -8 -6 28 5.50 -0.26
 -8 6 28 5.50 0.24
 -8 6 30 -5.24 -0.21
 -8 -6 30 -5.27 0.24
 -8 6 32 4.34 0.05
 -8 -6 32 4.39 0.02
 -8 -6 34 -3.15 -0.27
 -8 6 34 -3.12 0.08
 -8 6 36 2.49 -0.02
 -8 -7 -31 0.96 0.03
 -8 -7 -31 0.96 0.03
 -8 7 -31 -0.97 -0.03
 -8 7 -29 2.67 0.09
 -8 -7 -29 -2.67 -0.14
 -8 -7 -29 -2.67 -0.14
 -8 -7 -27 4.64 0.17
 -8 7 -27 -4.62 -0.05
 -8 -7 -27 4.64 0.17
 -8 7 -25 3.50 -0.22
 -8 -7 -25 -3.53 -0.15
 -8 -7 -25 -3.53 -0.15
 -8 7 -23 0.82 0.61
 -8 -7 -23 -0.80 0.15
 -8 -7 -23 -0.80 0.15
 -8 7 -21 -4.44 -0.75
 -8 -7 -21 4.45 -0.22
 -8 -7 -21 4.45 -0.22
 -8 7 -19 4.26 0.54
 -8 -7 -19 -4.30 0.26
 -8 -7 -19 -4.30 0.26
 -8 7 -17 -1.68 -0.24
 -8 -7 -17 1.73 -0.20
 -8 -7 -17 1.73 -0.20
 -8 -7 -15 -0.39 0.08
 -8 7 -15 0.36 0.08
 -8 -7 -15 -0.39 0.08
 -8 7 -13 -1.70 -0.03
 -8 -7 -13 1.70 -0.02
 -8 7 -11 3.73 -0.01
 -8 -7 -11 -3.73 0.07
 -8 7 -9 -3.67 0.02
 -8 7 -9 -3.67 0.02
 -8 -7 -9 3.69 -0.12
 -8 -7 -7 -1.03 0.08
 -8 7 -7 1.01 0.00
 -8 7 -7 1.01 0.00
 -8 -7 -5 -1.60 0.03
 -8 7 -5 1.60 0.10
 -8 7 -5 1.60 0.10
 -8 7 -3 -1.13 -0.33
 -8 7 -3 -1.13 -0.33
 -8 -7 -3 1.16 -0.04
 -8 7 -1 -1.75 0.42
 -8 7 -1 -1.75 0.42
 -8 -7 -1 1.73 -0.08
 -8 7 1 3.00 -0.14
 -8 -7 1 -3.00 0.16
 -8 7 1 3.00 -0.14
 -8 7 3 -0.79 -0.32
 -8 7 3 -0.79 -0.32
 -8 -7 3 0.81 -0.14
 -8 -7 5 1.43 0.10
 -8 7 5 -1.43 0.50
 -8 7 7 -0.06 -0.28
 -8 7 9 3.72 -0.07
 -8 7 11 -5.50 0.15
 -8 7 13 5.07 0.04
 -8 7 15 -4.91 -0.17
 -8 7 17 4.59 -0.05
 -8 7 19 -1.26 0.44
 -8 7 21 -4.21 -0.58
 -8 7 23 6.65 0.34
 -8 7 25 -3.43 -0.08
 -8 7 27 -1.91 0.10
 -8 7 29 4.48 -0.18
 -8 7 31 -3.38 -0.02
 -8 7 33 0.79 0.36
 -8 7 35 1.35 -0.44
 -8 8 -30 1.72 0.10
 -8 -8 -30 1.70 0.02
 -8 -8 -30 1.70 0.02
 -8 -8 -28 -4.93 -0.09
 -8 8 -28 -4.93 -0.13
 -8 -8 -28 -4.93 -0.09
 -8 -8 -26 5.86 0.05
 -8 -8 -26 5.86 0.05
 -8 8 -26 5.85 0.03
 -8 -8 -24 -2.25 0.00
 -8 8 -24 -2.25 0.29
 -8 -8 -24 -2.25 0.00
 -8 -8 -22 -2.18 0.07
 -8 -8 -22 -2.18 0.07
 -8 8 -22 -2.16 -0.58
 -8 8 -20 2.50 0.57
 -8 -8 -20 2.54 -0.22
 -8 -8 -20 2.54 -0.22
 -8 8 -18 0.55 -0.31
 -8 -8 -18 0.51 0.27
 -8 -8 -18 0.51 0.27
 -8 8 -16 -2.01 0.07
 -8 -8 -16 -1.98 -0.15
 -8 -8 -16 -1.98 -0.15
 -8 8 -14 -0.46 0.01
 -8 -8 -14 -0.48 0.01
 -8 -8 -12 4.03 0.01
 -8 8 -12 4.02 -0.03
 -8 8 -10 -4.62 0.02
 -8 -8 -10 -4.64 0.08
 -8 8 -10 -4.62 0.02
 -8 -8 -8 1.38 -0.10
 -8 8 -8 1.36 0.03
 -8 8 -8 1.36 0.03
 -8 8 -6 2.94 -0.02
 -8 8 -6 2.94 -0.02
 -8 -8 -6 2.92 0.00
 -8 8 -4 -4.36 -0.17
 -8 8 -4 -4.36 -0.17
 -8 -8 -4 -4.36 0.10
 -8 8 -2 1.84 0.39
 -8 -8 -2 1.87 -0.06
 -8 8 -2 1.84 0.39
 -8 -8 0 1.23 -0.03
 -8 8 0 1.26 -0.31
 -8 8 0 1.26 -0.31
 -8 -8 2 -1.12 0.03
 -8 8 2 -1.12 -0.11
 -8 8 2 -1.12 -0.11
 -8 8 4 -1.18 0.47
 -8 8 4 -1.18 0.47
 -8 -8 4 -1.16 -0.02
 -8 8 6 1.23 -0.41
 -8 -8 6 1.22 0.12
 -8 8 8 1.94 0.04
 -8 8 10 -4.69 0.19
 -8 8 12 4.72 -0.08
 -8 8 14 -3.74 -0.13
 -8 8 16 2.58 0.03
 -8 8 18 1.17 0.37
 -8 8 20 -7.74 -0.62
 -8 8 22 11.78 0.39
 -8 8 24 -8.38 0.00
 -8 8 26 -0.17 -0.06
 -8 8 28 7.05 -0.13
 -8 8 30 -8.63 0.08
 -8 8 32 6.51 0.35
 -8 9 -29 -3.40 -0.07
 -8 -9 -29 3.38 0.04
 -8 -9 -29 3.38 0.04
 -8 -9 -27 -5.60 -0.04
 -8 9 -27 5.60 0.07
 -8 -9 -27 -5.60 -0.04
 -8 -9 -25 3.50 -0.03
 -8 9 -25 -3.49 0.08
 -8 -9 -25 3.50 -0.03
 -8 9 -23 -1.03 -0.30
 -8 -9 -23 1.02 0.02
 -8 -9 -23 1.02 0.02
 -8 -9 -21 -2.28 0.13
 -8 -9 -21 -2.28 0.13
 -8 9 -21 2.27 0.36
 -8 9 -19 1.11 -0.20
 -8 -9 -19 -1.10 -0.26
 -8 -9 -19 -1.10 -0.26
 -8 -9 -17 3.93 0.23
 -8 9 -17 -3.94 0.02
 -8 -9 -17 3.93 0.23
 -8 9 -15 1.84 0.02
 -8 -9 -15 -1.83 -0.07
 -8 -9 -15 -1.83 -0.07
 -8 -9 -13 -3.15 -0.01
 -8 9 -13 3.13 0.00
 -8 -9 -13 -3.15 -0.01
 -8 9 -11 -5.88 0.00
 -8 -9 -11 5.90 -0.07
 -8 -9 -11 5.90 -0.07
 -8 -9 -9 -4.42 0.17
 -8 9 -9 4.40 0.03
 -8 9 -9 4.40 0.03
 -8 9 -7 -0.84 -0.12
 -8 9 -7 -0.84 -0.12
 -8 -9 -7 0.87 -0.10
 -8 9 -5 -1.42 0.13
 -8 9 -5 -1.42 0.13
 -8 -9 -5 1.39 -0.06
 -8 9 -3 0.60 0.03
 -8 9 -3 0.60 0.03
 -8 -9 -3 -0.59 0.13
 -8 9 -1 1.90 -0.18
 -8 9 -1 1.90 -0.18
 -8 -9 -1 -1.88 -0.07
 -8 -9 1 2.83 0.06
 -8 9 1 -2.84 0.08
 -8 9 1 -2.84 0.08
 -8 9 3 1.16 0.18
 -8 9 3 1.16 0.18
 -8 -9 3 -1.17 -0.13
 -8 9 5 0.47 -0.29
 -8 -9 5 -0.45 0.08
 -8 9 5 0.47 -0.29
 -8 9 7 0.26 0.13
 -8 -9 7 -0.26 0.16
 -8 9 9 -1.77 0.08
 -8 9 11 1.69 -0.07
 -8 9 13 -0.77 -0.13
 -8 9 15 0.40 0.19
 -8 9 17 1.20 0.01
 -8 9 19 -6.04 -0.23
 -8 9 21 11.24 0.15
 -8 9 23 -11.46 0.13
 -8 9 25 5.95 -0.15
 -8 9 27 0.61 -0.16
 -8 9 29 -4.06 0.36
 -8 9 31 4.35 -0.09
 -8 -10 -28 3.86 0.06
 -8 -10 -28 3.86 0.06
 -8 -10 -26 -2.77 -0.06
 -8 -10 -26 -2.77 -0.06
 -8 -10 -24 -1.30 0.03
 -8 -10 -24 -1.30 0.03
 -8 10 -22 3.95 0.16
 -8 -10 -22 3.93 -0.07
 -8 -10 -22 3.93 -0.07
 -8 -10 -20 -1.74 0.16
 -8 10 -20 -1.75 -0.04
 -8 -10 -20 -1.74 0.16
 -8 10 -18 -2.20 -0.07
 -8 -10 -18 -2.22 -0.19
 -8 -10 -18 -2.22 -0.19
 -8 10 -16 2.38 0.02
 -8 -10 -16 2.40 0.09
 -8 -10 -16 2.40 0.09
 -8 -10 -14 1.55 0.02
 -8 10 -14 1.53 0.07
 -8 -10 -14 1.55 0.02
 -8 -10 -12 -4.92 0.03
 -8 10 -12 -4.89 -0.05
 -8 -10 -12 -4.92 0.03
 -8 10 -10 4.67 -0.02
 -8 -10 -10 4.69 -0.18
 -8 -10 -10 4.69 -0.18
 -8 -10 -8 -2.45 0.22
 -8 -10 -8 -2.45 0.22
 -8 10 -8 -2.44 -0.03
 -8 10 -8 -2.44 -0.03
 -8 10 -6 1.26 0.17
 -8 10 -6 1.26 0.17
 -8 -10 -6 1.29 -0.06
 -8 -10 -4 -2.37 -0.09
 -8 10 -4 -2.33 -0.19
 -8 10 -4 -2.33 -0.19
 -8 10 -2 4.49 0.01
 -8 10 -2 4.49 0.01
 -8 -10 -2 4.52 0.08
 -8 10 0 -5.38 0.16
 -8 -10 0 -5.38 -0.03
 -8 10 0 -5.38 0.16
 -8 -10 2 3.76 0.11
 -8 10 2 3.75 -0.12
 -8 10 2 3.75 -0.12
 -8 10 4 -1.12 -0.03
 -8 -10 4 -1.14 -0.22
 -8 10 4 -1.12 -0.03
 -8 10 6 -0.21 0.09
 -8 -10 6 -0.20 0.10
 -8 10 6 -0.21 0.09
 -8 -10 8 0.40 0.22
 -8 10 8 0.38 -0.06
 -8 10 10 -1.03 0.05
 -8 -10 10 -1.04 -0.38
 -8 10 12 1.64 -0.12
 -8 10 14 -0.35 0.17
 -8 10 16 -1.85 -0.12
 -8 10 18 1.47 0.07
 -8 10 20 2.22 -0.14
 -8 10 22 -5.72 0.29
 -8 10 24 6.18 -0.22
 -8 10 26 -4.56 -0.16
 -8 10 28 3.04 0.50
 -8 10 30 -2.17 -0.44
 -8 -11 -25 -0.29 -0.05
 -8 -11 -25 -0.29 -0.05
 -8 -11 -23 -2.35 0.00
 -8 -11 -23 -2.35 0.00
 -8 -11 -21 2.42 0.00
 -8 -11 -21 2.42 0.00
 -8 -11 -19 0.57 0.03
 -8 -11 -19 0.57 0.03
 -8 -11 -17 -2.82 -0.02
 -8 -11 -17 -2.82 -0.02
 -8 -11 -15 1.50 -0.05
 -8 -11 -15 1.50 -0.05
 -8 -11 -13 1.40 0.06
 -8 -11 -13 1.40 0.06
 -8 -11 -11 -2.24 0.07
 -8 -11 -11 -2.24 0.07
 -8 -11 -9 0.70 -0.18
 -8 -11 -9 0.70 -0.18
 -8 11 -7 -0.60 -0.05
 -8 -11 -7 0.60 0.12
 -8 -11 -7 0.60 0.12
 -8 11 -5 -0.34 -0.13
 -8 -11 -5 0.36 0.06
 -8 -11 -5 0.36 0.06
 -8 -11 -3 -2.96 -0.11
 -8 11 -3 2.93 0.10
 -8 -11 -1 4.76 0.01
 -8 11 -1 -4.75 0.08
 -8 -11 1 -3.97 0.02
 -8 11 1 3.96 -0.15
 -8 -11 3 1.45 0.12
 -8 11 3 -1.43 0.05
 -8 -11 5 0.35 -0.22
 -8 11 5 -0.38 0.09
 -8 -11 7 -0.79 0.05
 -8 11 7 0.79 -0.15
 -8 11 7 0.79 -0.15
 -8 11 9 -1.30 0.15
 -8 -11 9 1.31 0.19
 -8 11 11 1.87 -0.12
 -8 -11 11 -1.87 -0.18
 -8 11 13 0.03 0.03
 -8 11 15 -5.00 0.10
 -8 11 17 9.29 -0.13
 -8 11 19 -9.01 -0.01
 -8 11 21 4.71 0.20
 -8 11 23 0.22 -0.19
 -8 11 25 -3.61 -0.09
 -8 11 27 5.13 0.39
 -8 11 29 -4.93 -0.41
 -8 -12 -24 -0.95 0.00
 -8 -12 -24 -0.95 0.00
 -8 -12 -22 -0.36 -0.10
 -8 -12 -22 -0.36 -0.10
 -8 -12 -20 0.36 0.12
 -8 -12 -20 0.36 0.12
 -8 -12 -18 1.61 -0.06
 -8 -12 -18 1.61 -0.06
 -8 -12 -16 -3.17 0.03
 -8 -12 -16 -3.17 0.03
 -8 -12 -14 2.29 -0.06
 -8 -12 -14 2.29 -0.06
 -8 -12 -12 -0.01 0.03
 -8 -12 -12 -0.01 0.03
 -8 -12 -10 -1.11 0.06
 -8 -12 -10 -1.11 0.06
 -8 -12 -8 0.17 -0.09
 -8 -12 -8 0.17 -0.09
 -8 -12 -6 1.30 -0.03
 -8 -12 -6 1.30 -0.03
 -8 -12 -4 -1.24 0.14
 -8 12 -4 -1.24 0.07
 -8 -12 -4 -1.24 0.14
 -8 -12 -2 -0.43 -0.07
 -8 12 -2 -0.43 -0.03
 -8 -12 -2 -0.43 -0.07
 -8 12 0 1.69 0.00
 -8 -12 0 1.69 -0.09
 -8 -12 0 1.69 -0.09
 -8 -12 2 -1.23 0.11
 -8 12 2 -1.22 -0.10
 -8 -12 4 0.27 0.03
 -8 12 4 0.23 0.22
 -8 12 6 -0.10 -0.21
 -8 -12 6 -0.12 -0.11
 -8 12 8 -0.12 0.13
 -8 -12 8 -0.12 0.01
 -8 12 10 1.25 -0.06
 -8 -12 10 1.26 0.07
 -8 12 12 -1.07 -0.04
 -8 -12 12 -1.06 0.05
 -8 12 14 -3.03 0.22
 -8 12 16 9.29 -0.36
 -8 12 18 -12.72 0.29
 -8 12 20 10.76 -0.05
 -8 12 22 -5.26 -0.10
 -8 12 24 -0.35 0.02
 -8 12 26 3.69 0.15
 -8 -13 -21 -1.29 -0.14
 -8 -13 -21 -1.29 -0.14
 -8 -13 -19 2.17 0.09
 -8 -13 -19 2.17 0.09
 -8 -13 -17 0.07 0.02
 -8 -13 -17 0.07 0.02
 -8 -13 -15 -2.51 -0.04
 -8 -13 -15 -2.51 -0.04
 -8 -13 -13 1.52 -0.01
 -8 -13 -13 1.52 -0.01
 -8 -13 -11 2.46 -0.01
 -8 -13 -11 2.46 -0.01
 -8 -13 -9 -5.23 0.07
 -8 -13 -9 -5.23 0.07
 -8 -13 -7 3.75 -0.04
 -8 -13 -7 3.75 -0.04
 -8 -13 -5 0.22 -0.08
 -8 -13 -5 0.22 -0.08
 -8 -13 -3 -2.39 0.12
 -8 -13 -3 -2.39 0.12
 -8 13 -3 2.39 -0.02
 -8 -13 -1 1.19 0.03
 -8 -13 -1 1.19 0.03
 -8 13 -1 -1.18 0.01
 -8 13 1 -1.18 -0.10
 -8 -13 1 1.19 -0.19
 -8 -13 1 1.19 -0.19
 -8 -13 3 -2.55 0.18
 -8 -13 3 -2.55 0.18
 -8 13 3 2.52 0.18
 -8 -13 5 2.85 -0.03
 -8 13 5 -2.81 -0.10
 -8 -13 5 2.85 -0.03
 -8 -13 7 -2.20 -0.08
 -8 13 7 2.19 -0.11
 -8 -13 7 -2.20 -0.08
 -8 -13 9 -0.01 0.06
 -8 13 9 -0.02 0.23
 -8 13 11 -2.65 -0.21
 -8 -13 11 2.66 -0.03
 -8 13 13 2.68 0.19
 -8 -13 13 -2.66 0.06
 -8 13 15 1.17 -0.25
 -8 -13 15 -1.21 -0.10
 -8 13 17 -6.10 0.26
 -8 13 19 8.27 -0.10
 -8 13 21 -6.48 -0.09
 -8 13 23 2.36 0.15
 -8 -14 -18 2.70 0.00
 -8 -14 -18 2.70 0.00
 -8 -14 -16 0.64 0.08
 -8 -14 -16 0.64 0.08
 -8 -14 -14 -2.76 -0.05
 -8 -14 -14 -2.76 -0.05
 -8 -14 -12 -0.09 0.01
 -8 -14 -12 -0.09 0.01
 -8 -14 -10 5.85 -0.06
 -8 -14 -10 5.85 -0.06
 -8 -14 -8 -8.46 0.11
 -8 -14 -8 -8.46 0.11
 -8 -14 -6 5.07 -0.06
 -8 -14 -6 5.07 -0.06
 -8 -14 -4 0.48 -0.05
 -8 -14 -4 0.48 -0.05
 -8 -14 -2 -2.54 0.06
 -8 -14 -2 -2.54 0.06
 -8 -14 0 0.20 0.06
 -8 14 0 0.20 0.07
 -8 -14 0 0.20 0.06
 -8 -14 2 3.04 -0.14
 -8 -14 2 3.04 -0.14
 -8 14 2 3.04 -0.05
 -8 14 4 -4.43 0.13
 -8 -14 4 -4.45 0.05
 -8 -14 4 -4.45 0.05
 -8 14 6 3.88 -0.34
 -8 -14 6 3.88 0.12
 -8 14 8 -1.78 0.53
 -8 -14 8 -1.74 -0.19
 -8 14 10 -1.64 -0.50
 -8 -14 10 -1.68 0.12
 -8 -14 12 4.81 0.00
 -8 14 12 4.82 0.30
 -8 -14 14 -5.33 -0.07
 -8 14 14 -5.38 -0.12
 -8 14 16 2.62 0.04
 -8 -14 16 2.58 0.05
 -8 14 18 1.63 0.04
 -8 -14 18 1.63 0.03
 -8 14 20 -4.60 -0.16
 -8 -15 -13 -3.31 -0.01
 -8 -15 -11 -0.79 0.03
 -8 -15 -9 5.72 -0.10
 -8 -15 -7 -6.56 0.13
 -8 -15 -5 2.84 -0.06
 -8 -15 -3 0.87 -0.02
 -8 -15 -1 -1.04 0.03
 -8 -15 1 -1.01 0.01
 -8 15 3 -2.16 0.18
 -8 -15 3 2.13 0.02
 -8 15 5 1.71 -0.28
 -8 -15 5 -1.70 -0.12
 -8 15 7 -0.88 0.41
 -8 -15 7 0.86 0.19
 -8 15 9 -0.22 -0.47
 -8 -15 9 0.26 -0.14
 -8 15 11 2.32 0.37
 -8 -15 11 -2.34 0.01
 -8 15 13 -4.74 -0.17
 -8 -15 13 4.71 0.09
 -8 15 15 5.30 0.00
 -8 -15 15 -5.26 -0.08
 -8 15 17 -2.67 0.08
 -8 -15 17 2.66 -0.03
 -8 -16 -8 2.94 -0.04
 -8 -16 -6 -2.72 0.05
 -8 -16 -4 1.27 -0.04
 -8 -16 -2 -0.83 0.01
 -8 -16 0 1.23 0.01
 -8 -16 2 -0.54 -0.03
 -8 16 4 -1.26 -0.07
 -8 -16 4 -1.28 0.04
 -8 -16 6 2.14 -0.03
 -8 16 6 2.15 0.03
 -8 16 8 -1.17 -0.05
 -8 -16 8 -1.15 -0.03
 -8 16 10 0.16 0.10
 -8 -16 10 0.17 0.11
 -7 1 -36 0.66 0.04
 -7 -1 -36 0.64 -0.03
 -7 1 -34 1.81 0.04
 -7 -1 -34 1.84 -0.08
 -7 -1 -32 -2.11 0.15
 -7 1 -32 -2.07 -0.04
 -7 1 -30 0.53 -0.04
 -7 -1 -30 0.55 -0.06
 -7 1 -28 -0.40 0.07
 -7 -1 -28 -0.38 -0.13
 -7 -1 -28 -0.38 -0.13
 -7 1 -26 2.89 -0.01
 -7 -1 -26 2.84 0.26
 -7 1 -26 2.89 -0.01
 -7 -1 -26 2.84 0.26
 -7 -1 -24 -5.14 -0.27
 -7 1 -24 -5.17 -0.06
 -7 -1 -24 -5.14 -0.27
 -7 1 -24 -5.17 -0.06
 -7 1 -22 4.68 0.09
 -7 -1 -22 4.68 0.24
 -7 -1 -22 4.68 0.24
 -7 1 -20 -2.69 -0.10
 -7 -1 -20 -2.69 -0.20
 -7 1 -18 1.97 0.14
 -7 -1 -18 1.96 0.10
 -7 1 -16 -2.80 -0.14
 -7 -1 -16 -2.79 0.05
 -7 1 -14 3.38 0.11
 -7 -1 -14 3.37 -0.14
 -7 1 -12 -2.80 -0.14
 -7 -1 -12 -2.79 0.12
 -7 1 -10 1.48 0.27
 -7 -1 -10 1.44 -0.03
 -7 1 -8 0.42 -0.35
 -7 -1 -8 0.45 -0.01
 -7 1 -6 -3.08 0.25
 -7 -1 -6 -3.07 -0.01
 -7 1 -4 6.15 -0.06
 -7 -1 -4 6.10 0.05
 -7 1 -2 -8.42 -0.02
 -7 -1 -2 -8.38 -0.06
 -7 1 0 8.60 -0.05
 -7 -1 0 8.60 0.09
 -7 1 0 8.60 -0.05
 -7 1 2 -6.21 0.16
 -7 -1 2 -6.24 -0.18
 -7 1 2 -6.21 0.16
 -7 -1 4 2.59 0.23
 -7 1 4 2.59 -0.17
 -7 -1 6 -0.41 -0.11
 -7 1 6 -0.44 0.06
 -7 -1 8 1.20 -0.13
 -7 1 8 1.23 0.05
 -7 1 10 -3.16 -0.05
 -7 -1 10 -3.18 0.27
 -7 1 12 3.15 -0.03
 -7 -1 12 3.17 -0.22
 -7 -1 14 -0.52 0.14
 -7 1 14 -0.52 0.05
 -7 -1 16 -2.49 -0.19
 -7 1 16 -2.49 0.03
 -7 1 18 3.53 -0.09
 -7 -1 18 3.50 0.23
 -7 1 20 -1.83 -0.01
 -7 -1 20 -1.79 -0.12
 -7 -1 22 -2.32 -0.05
 -7 1 22 -2.32 0.13
 -7 1 24 7.46 -0.09
 -7 -1 24 7.41 0.08
 -7 -1 26 -10.40 0.04
 -7 1 26 -10.44 -0.08
 -7 1 28 8.25 0.20
 -7 -1 28 8.26 -0.15
 -7 1 30 -1.60 -0.21
 -7 -1 30 -1.64 0.19
 -7 -1 32 -4.61 -0.22
 -7 1 32 -4.63 0.22
 -7 -1 34 5.79 0.21
 -7 1 34 5.77 -0.24
 -7 -1 36 -1.87 -0.13
 -7 1 36 -1.86 0.20
 -7 -1 38 -2.98 0.01
 -7 1 38 -2.97 -0.05
 -7 2 -35 1.29 0.11
 -7 -2 -35 -1.29 0.07
 -7 2 -33 -2.96 -0.01
 -7 -2 -33 2.97 -0.12
 -7 2 -31 1.17 -0.10
 -7 -2 -31 -1.19 0.12
 -7 -2 -29 -1.01 -0.01
 -7 -2 -29 -1.01 -0.01
 -7 2 -29 1.01 0.11
 -7 2 -27 0.70 0.00
 -7 -2 -27 -0.67 -0.13
 -7 -2 -27 -0.67 -0.13
 -7 -2 -25 5.01 0.18
 -7 2 -25 -5.05 -0.08
 -7 -2 -25 5.01 0.18
 -7 2 -23 6.81 0.05
 -7 -2 -23 -6.80 -0.15
 -7 -2 -23 -6.80 -0.15
 -7 2 -21 -4.46 -0.05
 -7 -2 -21 4.48 0.11
 -7 -2 -21 4.48 0.11
 -7 2 -19 1.71 0.15
 -7 -2 -19 -1.72 -0.07
 -7 2 -17 -1.57 -0.20
 -7 -2 -17 1.56 -0.04
 -7 2 -15 3.02 0.05
 -7 -2 -15 -3.01 0.12
 -7 2 -13 -3.90 0.13
 -7 -2 -13 3.91 -0.05
 -7 2 -11 3.40 -0.07
 -7 -2 -11 -3.41 -0.13
 -7 2 -9 -1.35 -0.19
 -7 -2 -9 1.35 0.23
 -7 2 -7 -2.13 0.30
 -7 -2 -7 2.13 -0.11
 -7 2 -5 5.86 -0.11
 -7 -2 -5 -5.85 -0.09
 -7 2 -3 -8.28 -0.12
 -7 2 -3 -8.28 -0.12
 -7 -2 -3 8.25 0.13
 -7 2 -1 8.70 0.13
 -7 -2 -1 -8.68 0.00
 -7 2 -1 8.70 0.13
 -7 -2 1 6.87 -0.07
 -7 2 1 -6.87 0.06
 -7 2 1 -6.87 0.06
 -7 2 3 2.80 -0.19
 -7 2 5 1.49 0.16
 -7 -2 5 -1.51 0.17
 -7 -2 7 2.47 -0.06
 -7 2 7 -2.43 -0.05
 -7 -2 9 0.71 -0.15
 -7 2 9 -0.72 0.01
 -7 -2 11 -4.04 0.19
 -7 2 11 4.02 -0.06
 -7 -2 13 3.43 -0.06
 -7 2 13 -3.43 0.11
 -7 -2 15 0.54 0.05
 -7 2 15 -0.53 -0.05
 -7 2 17 4.05 -0.06
 -7 -2 17 -4.05 -0.22
 -7 -2 19 4.22 0.32
 -7 2 19 -4.25 0.08
 -7 2 21 0.36 0.04
 -7 -2 21 -0.34 -0.17
 -7 2 23 6.45 -0.16
 -7 -2 23 -6.43 -0.06
 -7 2 25 -12.34 0.15
 -7 -2 25 12.30 0.17
 -7 2 27 12.04 -0.07
 -7 -2 27 -12.04 -0.16
 -7 2 29 -4.00 0.00
 -7 -2 29 4.04 0.09
 -7 2 31 -6.46 0.07
 -7 -2 31 6.42 -0.01
 -7 2 33 11.39 -0.16
 -7 -2 33 -11.40 -0.06
 -7 2 35 -7.87 0.21
 -7 -2 35 7.89 0.08
 -7 2 37 0.21 -0.17
 -7 -2 37 -0.23 -0.03
 -7 2 39 5.11 0.07
 -7 -2 39 -5.11 0.01
 -7 3 -36 -0.42 0.11
 -7 -3 -36 -0.42 0.02
 -7 3 -34 -0.37 0.03
 -7 -3 -34 -0.38 -0.06
 -7 3 -32 -0.44 -0.17
 -7 -3 -32 -0.42 -0.03
 -7 3 -30 3.04 0.16
 -7 -3 -30 3.01 0.09
 -7 -3 -28 -3.58 -0.06
 -7 -3 -28 -3.58 -0.06
 -7 3 -28 -3.59 0.02
 -7 3 -26 0.14 -0.12
 -7 -3 -26 0.13 0.03
 -7 -3 -26 0.13 0.03
 -7 3 -24 3.70 0.00
 -7 -3 -24 3.73 -0.04
 -7 -3 -24 3.73 -0.04
 -7 3 -22 -3.76 0.19
 -7 -3 -22 -3.80 0.06
 -7 -3 -22 -3.80 0.06
 -7 3 -20 0.97 -0.14
 -7 -3 -20 1.02 -0.03
 -7 -3 -20 1.02 -0.03
 -7 3 -18 0.91 -0.08
 -7 -3 -18 0.89 0.04
 -7 3 -16 -0.42 0.10
 -7 -3 -16 -0.43 -0.11
 -7 3 -14 -1.43 0.15
 -7 -3 -14 -1.43 0.12
 -7 3 -12 3.20 -0.29
 -7 -3 -12 3.21 0.05
 -7 -3 -10 -3.20 -0.25
 -7 3 -10 -3.19 0.05
 -7 3 -8 0.43 0.26
 -7 -3 -8 0.44 0.21
 -7 -3 -6 3.24 0.05
 -7 3 -6 3.24 -0.20
 -7 3 -4 -4.68 -0.13
 -7 3 -4 -4.68 -0.13
 -7 -3 -4 -4.68 -0.21
 -7 3 -2 3.54 0.28
 -7 -3 -2 3.53 0.03
 -7 3 -2 3.54 0.28
 -7 -3 0 -1.89 0.27
 -7 3 0 -1.91 -0.08
 -7 3 0 -1.91 -0.08
 -7 3 2 0.04 -0.19
 -7 -3 2 0.03 -0.30
 -7 3 2 0.04 -0.19
 -7 3 4 3.31 0.21
 -7 3 6 -6.63 -0.05
 -7 -3 8 6.28 0.01
 -7 3 8 6.27 -0.07
 -7 3 10 -2.09 0.04
 -7 -3 10 -2.07 -0.13
 -7 3 12 -1.59 0.03
 -7 -3 12 -1.61 0.04
 -7 3 14 1.58 -0.02
 -7 -3 14 1.58 0.07
 -7 -3 16 0.89 0.08
 -7 3 16 0.88 -0.08
 -7 -3 18 -2.62 -0.36
 -7 3 18 -2.62 0.11
 -7 -3 20 1.51 0.38
 -7 3 20 1.52 -0.01
 -7 -3 22 2.91 -0.10
 -7 3 22 2.91 -0.14
 -7 3 24 -8.55 0.22
 -7 -3 24 -8.54 -0.19
 -7 3 26 10.57 -0.22
 -7 -3 26 10.56 0.29
 -7 3 28 -5.44 0.16
 -7 -3 28 -5.47 -0.29
 -7 3 30 -4.18 -0.07
 -7 -3 30 -4.14 0.27
 -7 3 32 11.09 -0.06
 -7 -3 32 11.07 -0.21
 -7 3 34 -10.66 0.16
 -7 -3 34 -10.67 0.09
 -7 3 36 4.92 -0.16
 -7 -3 36 4.93 0.00
 -7 -3 38 0.66 0.00
 -7 3 38 0.66 0.10
 -7 4 -35 2.97 0.05
 -7 -4 -35 -2.96 0.16
 -7 4 -33 -3.84 -0.15
 -7 -4 -33 3.82 -0.06
 -7 4 -31 4.78 0.14
 -7 -4 -31 -4.76 -0.12
 -7 -4 -31 -4.76 -0.12
 -7 -4 -29 5.25 0.21
 -7 -4 -29 5.25 0.21
 -7 4 -29 -5.29 0.07
 -7 -4 -27 -3.38 -0.17
 -7 -4 -27 -3.38 -0.17
 -7 4 -27 3.42 -0.28
 -7 -4 -25 -0.15 0.14
 -7 4 -25 0.10 0.20
 -7 -4 -25 -0.15 0.14
 -7 4 -23 -2.03 0.15
 -7 -4 -23 2.09 -0.13
 -7 -4 -23 2.09 -0.13
 -7 4 -21 1.26 -0.37
 -7 -4 -21 -1.32 0.08
 -7 -4 -21 -1.32 0.08
 -7 4 -19 0.33 0.21
 -7 -4 -19 -0.28 0.00
 -7 -4 -19 -0.28 0.00
 -7 4 -17 -1.06 0.01
 -7 -4 -17 1.04 0.00
 -7 -4 -15 -0.65 -0.08
 -7 4 -15 0.65 0.04
 -7 4 -13 0.90 -0.23
 -7 -4 -13 -0.89 0.07
 -7 4 -11 -2.56 0.15
 -7 -4 -11 2.56 0.08
 -7 4 -9 2.03 0.19
 -7 -4 -9 -2.04 -0.18
 -7 4 -7 0.78 -0.30
 -7 -4 -7 -0.78 0.01
 -7 4 -5 -2.46 0.00
 -7 -4 -5 2.47 0.24
 -7 4 -5 -2.46 0.00
 -7 4 -3 0.95 0.29
 -7 4 -3 0.95 0.29
 -7 -4 -3 -0.96 -0.21
 -7 4 -1 1.11 -0.16
 -7 4 -1 1.11 -0.16
 -7 -4 -1 -1.12 -0.14
 -7 4 1 -1.24 -0.17
 -7 4 1 -1.24 -0.17
 -7 -4 1 1.26 0.40
 -7 4 3 1.51 0.26
 -7 -4 3 -1.52 -0.26
 -7 4 5 -4.47 -0.04
 -7 4 7 7.98 -0.15
 -7 4 9 -8.22 0.09
 -7 4 11 5.19 0.05
 -7 -4 13 1.73 -0.07
 -7 4 13 -1.75 -0.04
 -7 4 15 -0.43 -0.08
 -7 -4 15 0.43 0.03
 -7 4 17 1.44 0.12
 -7 -4 17 -1.42 0.26
 -7 -4 19 1.75 -0.42
 -7 4 19 -1.75 -0.02
 -7 -4 21 -2.55 0.27
 -7 4 21 2.54 -0.07
 -7 -4 23 5.01 -0.04
 -7 4 23 -4.99 0.04
 -7 -4 25 -7.71 0.01
 -7 4 25 7.69 0.05
 -7 4 27 -7.18 -0.08
 -7 -4 27 7.20 -0.05
 -7 -4 29 -2.58 -0.07
 -7 4 29 2.56 0.04
 -7 4 31 2.61 -0.07
 -7 -4 31 -2.59 0.27
 -7 4 33 -4.48 0.15
 -7 -4 33 4.48 -0.25
 -7 -4 35 -3.09 0.01
 -7 4 35 3.09 -0.18
 -7 -4 37 1.08 0.17
 -7 4 37 -1.09 0.11
 -7 5 -34 -4.88 -0.06
 -7 -5 -34 -4.88 0.01
 -7 -5 -32 4.73 0.19
 -7 -5 -32 4.73 0.19
 -7 5 -30 -3.58 0.05
 -7 -5 -30 -3.58 -0.30
 -7 -5 -30 -3.58 -0.30
 -7 5 -28 1.62 -0.28
 -7 -5 -28 1.60 0.23
 -7 -5 -28 1.60 0.23
 -7 5 -26 0.79 0.38
 -7 -5 -26 0.83 -0.10
 -7 -5 -26 0.83 -0.10
 -7 5 -24 -2.14 -0.15
 -7 -5 -24 -2.19 0.08
 -7 -5 -24 -2.19 0.08
 -7 5 -22 1.91 -0.19
 -7 -5 -22 1.94 -0.10
 -7 -5 -22 1.94 -0.10
 -7 5 -20 -1.55 0.30
 -7 -5 -20 -1.58 0.04
 -7 -5 -20 -1.58 0.04
 -7 5 -18 1.76 -0.15
 -7 -5 -18 1.78 0.06
 -7 -5 -18 1.78 0.06
 -7 5 -16 -1.38 0.06
 -7 -5 -16 -1.39 -0.07
 -7 5 -14 0.27 -0.17
 -7 -5 -14 0.26 0.00
 -7 5 -12 0.16 0.22
 -7 -5 -12 0.18 -0.01
 -7 5 -10 0.08 -0.02
 -7 -5 -10 0.07 0.08
 -7 5 -8 0.42 -0.17
 -7 -5 -8 0.42 -0.02
 -7 5 -6 -1.08 0.02
 -7 5 -6 -1.08 0.02
 -7 -5 -6 -1.09 -0.22
 -7 5 -4 -0.04 0.26
 -7 -5 -4 -0.02 0.39
 -7 5 -4 -0.04 0.26
 -7 5 -2 1.92 -0.24
 -7 -5 -2 1.90 -0.23
 -7 5 -2 1.92 -0.24
 -7 5 0 -1.43 -0.09
 -7 -5 0 -1.43 -0.09
 -7 5 0 -1.43 -0.09
 -7 5 2 -1.04 0.28
 -7 -5 2 -1.03 0.17
 -7 5 2 -1.04 0.28
 -7 5 4 1.51 -0.08
 -7 -5 4 1.52 0.01
 -7 5 6 1.72 -0.17
 -7 5 8 -6.01 0.10
 -7 5 10 8.30 0.16
 -7 5 12 -7.47 -0.23
 -7 5 14 3.58 0.02
 -7 5 16 1.83 0.14
 -7 5 18 -5.33 -0.06
 -7 -5 18 -5.31 0.28
 -7 -5 20 4.93 -0.23
 -7 5 20 4.94 -0.03
 -7 -5 22 -3.06 0.14
 -7 5 22 -3.04 -0.13
 -7 -5 24 3.16 -0.31
 -7 5 24 3.12 0.45
 -7 -5 26 -5.08 0.58
 -7 5 26 -5.04 -0.55
 -7 -5 28 6.17 -0.46
 -7 5 28 6.16 0.32
 -7 5 30 -5.62 -0.01
 -7 -5 30 -5.60 -0.10
 -7 5 32 4.58 -0.10
 -7 -5 32 4.56 0.52
 -7 -5 34 -3.53 -0.35
 -7 5 34 -3.54 0.04
 -7 -5 36 2.05 -0.13
 -7 5 36 2.05 0.00
 -7 -6 -33 -2.45 -0.17
 -7 6 -33 2.44 0.01
 -7 6 -31 -1.11 -0.02
 -7 -6 -31 1.14 0.27
 -7 -6 -31 1.14 0.27
 -7 6 -29 -0.86 -0.06
 -7 -6 -29 0.85 -0.17
 -7 -6 -29 0.85 -0.17
 -7 6 -27 2.48 0.19
 -7 -6 -27 -2.51 -0.03
 -7 -6 -27 -2.51 -0.03
 -7 -6 -25 2.45 0.09
 -7 6 -25 -2.41 -0.21
 -7 -6 -25 2.45 0.09
 -7 6 -23 0.67 0.06
 -7 -6 -23 -0.69 0.05
 -7 -6 -23 -0.69 0.05
 -7 6 -21 0.23 0.10
 -7 -6 -21 -0.24 -0.16
 -7 6 -19 1.42 -0.13
 -7 -6 -19 -1.42 0.07
 -7 -6 -19 -1.42 0.07
 -7 6 -17 -3.33 0.11
 -7 -6 -17 3.35 0.10
 -7 -6 -17 3.35 0.10
 -7 6 -15 2.25 -0.19
 -7 -6 -15 -2.26 -0.16
 -7 -6 -15 -2.26 -0.16
 -7 -6 -13 -1.10 0.11
 -7 6 -13 1.08 0.31
 -7 -6 -11 3.38 -0.08
 -7 6 -11 -3.36 -0.26
 -7 6 -9 3.29 0.10
 -7 -6 -9 -3.30 0.05
 -7 6 -7 -1.68 -0.09
 -7 -6 -7 1.68 0.12
 -7 6 -7 -1.68 -0.09
 -7 6 -5 -1.03 0.26
 -7 6 -5 -1.03 0.26
 -7 -6 -5 1.01 -0.37
 -7 -6 -3 -3.91 0.44
 -7 6 -3 3.95 -0.30
 -7 6 -3 3.95 -0.30
 -7 6 -1 -4.55 0.03
 -7 -6 -1 4.52 -0.25
 -7 6 -1 -4.55 0.03
 -7 -6 1 -1.57 0.05
 -7 6 1 1.56 0.24
 -7 6 1 1.56 0.24
 -7 -6 3 -2.35 -0.06
 -7 6 3 2.36 -0.18
 -7 6 3 2.36 -0.18
 -7 6 5 -3.42 -0.08
 -7 6 7 0.49 0.11
 -7 6 9 4.79 0.16
 -7 6 11 -9.31 -0.32
 -7 6 13 9.35 0.12
 -7 6 15 -3.67 0.17
 -7 6 17 -3.55 -0.16
 -7 6 19 6.09 -0.03
 -7 6 21 -3.00 -0.06
 -7 -6 23 0.75 0.26
 -7 6 23 -0.78 0.48
 -7 6 25 1.15 -0.77
 -7 -6 25 -1.09 -0.65
 -7 6 27 1.23 0.51
 -7 -6 27 -1.26 0.68
 -7 -6 29 3.75 -0.03
 -7 6 29 -3.78 0.11
 -7 -6 31 -5.15 -0.80
 -7 6 31 5.21 -0.56
 -7 -6 33 5.03 1.02
 -7 6 33 -5.07 0.60
 -7 -6 35 -3.25 -0.52
 -7 6 35 3.28 -0.43
 -7 6 37 -0.97 0.28
 -7 -7 -32 0.30 -0.11
 -7 7 -32 0.32 -0.04
 -7 -7 -32 0.30 -0.11
 -7 -7 -30 -1.24 0.07
 -7 7 -30 -1.26 0.07
 -7 -7 -30 -1.24 0.07
 -7 7 -28 1.90 -0.06
 -7 -7 -28 1.90 0.12
 -7 -7 -28 1.90 0.12
 -7 7 -26 -1.01 0.02
 -7 -7 -26 -1.03 -0.24
 -7 -7 -26 -1.03 -0.24
 -7 7 -24 -1.77 0.01
 -7 -7 -24 -1.75 0.09
 -7 7 -22 4.17 0.00
 -7 -7 -22 4.18 0.17
 -7 -7 -22 4.18 0.17
 -7 7 -20 -3.04 -0.01
 -7 -7 -20 -3.06 -0.23
 -7 -7 -20 -3.06 -0.23
 -7 7 -18 -0.91 0.05
 -7 -7 -18 -0.92 0.03
 -7 -7 -18 -0.92 0.03
 -7 7 -16 3.05 -0.15
 -7 -7 -16 3.09 0.19
 -7 -7 -16 3.09 0.19
 -7 -7 -14 -0.87 -0.20
 -7 7 -14 -0.86 0.28
 -7 -7 -14 -0.87 -0.20
 -7 7 -12 -2.99 -0.30
 -7 -7 -12 -3.02 0.11
 -7 7 -10 4.66 0.17
 -7 -7 -10 4.69 -0.04
 -7 -7 -8 -3.18 -0.03
 -7 7 -8 -3.19 -0.05
 -7 7 -8 -3.19 -0.05
 -7 7 -6 -0.40 0.10
 -7 -7 -6 -0.40 0.18
 -7 7 -6 -0.40 0.10
 -7 -7 -4 4.75 -0.30
 -7 7 -4 4.79 -0.20
 -7 7 -4 4.79 -0.20
 -7 -7 -2 -7.80 0.25
 -7 7 -2 -7.84 0.10
 -7 7 -2 -7.84 0.10
 -7 -7 0 7.19 -0.09
 -7 7 0 7.19 0.18
 -7 7 0 7.19 0.18
 -7 7 2 -2.89 -0.32
 -7 -7 2 -2.92 0.02
 -7 7 2 -2.89 -0.32
 -7 7 4 -1.99 0.19
 -7 7 4 -1.99 0.19
 -7 -7 4 -1.99 -0.08
 -7 7 6 3.88 -0.04
 -7 7 8 -1.03 0.10
 -7 7 10 -5.17 -0.23
 -7 7 12 10.05 0.12
 -7 7 14 -8.92 0.14
 -7 7 16 2.50 -0.19
 -7 7 18 3.13 -0.03
 -7 7 20 -3.45 0.11
 -7 7 22 0.10 0.19
 -7 7 24 2.74 -0.57
 -7 7 26 -3.41 0.54
 -7 7 28 2.55 -0.05
 -7 7 30 -0.85 -0.46
 -7 7 32 -0.81 0.64
 -7 7 34 1.06 -0.55
 -7 7 36 0.12 0.40
 -7 -8 -31 0.73 -0.02
 -7 -8 -31 0.73 -0.02
 -7 8 -31 -0.75 0.06
 -7 -8 -29 -1.14 -0.02
 -7 8 -29 1.17 -0.08
 -7 -8 -29 -1.14 -0.02
 -7 8 -27 -0.41 0.12
 -7 -8 -27 0.40 0.15
 -7 -8 -27 0.40 0.15
 -7 -8 -25 1.67 -0.14
 -7 -8 -25 1.67 -0.14
 -7 8 -25 -1.67 -0.13
 -7 8 -23 3.92 0.08
 -7 -8 -23 -3.94 -0.05
 -7 -8 -23 -3.94 -0.05
 -7 -8 -21 4.10 0.21
 -7 8 -21 -4.09 0.02
 -7 -8 -21 4.10 0.21
 -7 8 -19 1.36 -0.06
 -7 -8 -19 -1.35 -0.11
 -7 -8 -19 -1.35 -0.11
 -7 8 -17 1.74 -0.01
 -7 -8 -17 -1.78 -0.12
 -7 -8 -17 -1.78 -0.12
 -7 8 -15 -2.19 0.13
 -7 -8 -15 2.22 0.20
 -7 -8 -15 2.22 0.20
 -7 -8 -13 -0.26 -0.06
 -7 8 -13 0.27 -0.15
 -7 -8 -13 -0.26 -0.06
 -7 8 -11 1.28 0.02
 -7 -8 -11 -1.32 -0.08
 -7 -8 -11 -1.32 -0.08
 -7 8 -9 -1.03 0.16
 -7 8 -9 -1.03 0.16
 -7 -8 -9 1.04 0.09
 -7 8 -7 -0.60 -0.19
 -7 8 -7 -0.60 -0.19
 -7 -8 -7 0.62 -0.05
 -7 8 -5 3.13 0.04
 -7 -8 -5 -3.13 0.06
 -7 8 -5 3.13 0.04
 -7 8 -3 -6.09 0.08
 -7 8 -3 -6.09 0.08
 -7 -8 -3 6.06 -0.05
 -7 8 -1 7.80 0.05
 -7 8 -1 7.80 0.05
 -7 -8 -1 -7.79 -0.05
 -7 -8 1 6.40 0.11
 -7 8 1 -6.36 -0.32
 -7 8 1 -6.36 -0.32
 -7 -8 3 -1.98 -0.04
 -7 8 3 1.94 0.45
 -7 8 3 1.94 0.45
 -7 -8 5 -2.87 -0.06
 -7 8 5 2.85 -0.35
 -7 8 7 -4.60 0.19
 -7 8 9 1.66 -0.11
 -7 8 11 3.82 0.03
 -7 8 13 -7.15 0.08
 -7 8 15 5.77 -0.07
 -7 8 17 -1.81 -0.11
 -7 8 19 -1.13 0.24
 -7 8 21 2.03 -0.09
 -7 8 23 -1.70 -0.20
 -7 8 25 0.29 0.32
 -7 8 27 1.73 -0.22
 -7 8 29 -2.34 0.12
 -7 8 31 0.50 -0.15
 -7 8 33 1.80 0.19
 -7 8 35 -2.21 -0.10
 -7 9 -30 1.05 -0.05
 -7 -9 -30 1.02 -0.08
 -7 -9 -30 1.02 -0.08
 -7 9 -28 -1.04 0.05
 -7 -9 -28 -1.01 0.09
 -7 -9 -28 -1.01 0.09
 -7 -9 -26 0.24 0.00
 -7 9 -26 0.25 -0.11
 -7 -9 -26 0.24 0.00
 -7 9 -24 0.16 0.10
 -7 -9 -24 0.17 0.00
 -7 -9 -24 0.17 0.00
 -7 -9 -22 0.15 -0.09
 -7 9 -22 0.16 0.01
 -7 -9 -22 0.15 -0.09
 -7 9 -20 -0.76 -0.12
 -7 -9 -20 -0.76 0.10
 -7 -9 -20 -0.76 0.10
 -7 9 -18 0.95 0.11
 -7 -9 -18 0.99 0.04
 -7 -9 -18 0.99 0.04
 -7 9 -16 -0.54 -0.02
 -7 -9 -16 -0.58 -0.12
 -7 -9 -16 -0.58 -0.12
 -7 9 -14 0.34 -0.01
 -7 -9 -14 0.33 0.00
 -7 -9 -14 0.33 0.00
 -7 -9 -12 -1.25 0.19
 -7 9 -12 -1.30 -0.11
 -7 -9 -12 -1.25 0.19
 -7 9 -10 2.90 0.28
 -7 9 -10 2.90 0.28
 -7 -9 -10 2.86 -0.21
 -7 -9 -10 2.86 -0.21
 -7 9 -8 -3.51 -0.34
 -7 9 -8 -3.51 -0.34
 -7 -9 -8 -3.53 0.06
 -7 -9 -8 -3.53 0.06
 -7 9 -6 2.72 0.19
 -7 -9 -6 2.76 0.08
 -7 9 -6 2.72 0.19
 -7 9 -4 -1.92 0.04
 -7 9 -4 -1.92 0.04
 -7 -9 -4 -1.94 -0.14
 -7 9 -2 2.33 -0.10
 -7 9 -2 2.33 -0.10
 -7 -9 -2 2.34 0.16
 -7 -9 0 -3.33 -0.19
 -7 9 0 -3.30 -0.14
 -7 9 0 -3.30 -0.14
 -7 9 2 3.05 0.45
 -7 -9 2 3.08 0.14
 -7 9 2 3.05 0.45
 -7 9 4 -0.71 -0.51
 -7 9 4 -0.71 -0.51
 -7 -9 4 -0.71 -0.01
 -7 9 4 -0.71 -0.51
 -7 9 6 -2.37 0.30
 -7 -9 6 -2.41 -0.04
 -7 9 8 3.59 -0.02
 -7 9 10 -1.69 -0.14
 -7 9 12 -1.75 0.17
 -7 9 14 4.25 -0.05
 -7 9 16 -4.99 -0.15
 -7 9 18 4.15 0.26
 -7 9 20 -1.38 -0.18
 -7 9 22 -2.75 0.05
 -7 9 24 5.32 -0.07
 -7 9 26 -4.32 0.10
 -7 9 28 2.08 0.13
 -7 9 30 -2.33 -0.61
 -7 9 32 4.87 0.91
 -7 -10 -29 0.89 -0.12
 -7 -10 -29 0.89 -0.12
 -7 -10 -27 -0.19 0.11
 -7 -10 -27 -0.19 0.11
 -7 10 -25 -0.93 0.05
 -7 -10 -25 0.95 -0.01
 -7 -10 -25 0.95 -0.01
 -7 10 -23 3.18 0.07
 -7 -10 -23 -3.18 0.01
 -7 10 -21 -4.04 -0.19
 -7 -10 -21 4.04 -0.07
 -7 -10 -21 4.04 -0.07
 -7 -10 -19 -1.61 0.08
 -7 10 -19 1.59 0.15
 -7 -10 -19 -1.61 0.08
 -7 10 -17 2.28 -0.02
 -7 -10 -17 -2.25 -0.02
 -7 -10 -17 -2.25 -0.02
 -7 10 -15 -3.83 -0.02
 -7 -10 -15 3.83 0.04
 -7 -10 -15 3.83 0.04
 -7 10 -13 1.49 -0.08
 -7 -10 -13 -1.54 -0.17
 -7 -10 -13 -1.54 -0.17
 -7 10 -11 2.57 0.21
 -7 -10 -11 -2.51 0.21
 -7 -10 -11 -2.51 0.21
 -7 10 -9 -4.81 -0.25
 -7 10 -9 -4.81 -0.25
 -7 -10 -9 4.79 -0.06
 -7 -10 -9 4.79 -0.06
 -7 -10 -7 -3.65 -0.16
 -7 10 -7 3.63 0.15
 -7 10 -7 3.63 0.15
 -7 -10 -7 -3.65 -0.16
 -7 10 -5 -0.40 0.01
 -7 10 -5 -0.40 0.01
 -7 -10 -5 0.43 0.25
 -7 -10 -5 0.43 0.25
 -7 -10 -3 2.04 -0.19
 -7 10 -3 -2.05 -0.08
 -7 10 -3 -2.05 -0.08
 -7 10 -1 1.79 -0.07
 -7 10 -1 1.79 -0.07
 -7 -10 -1 -1.77 0.11
 -7 -10 1 -0.84 -0.07
 -7 10 1 0.82 0.34
 -7 10 1 0.82 0.34
 -7 10 3 -3.34 -0.45
 -7 10 3 -3.34 -0.45
 -7 -10 3 3.33 0.05
 -7 10 5 3.52 0.27
 -7 -10 5 -3.47 -0.01
 -7 10 5 3.52 0.27
 -7 10 7 -1.63 0.07
 -7 -10 7 1.58 0.03
 -7 -10 9 0.12 -0.17
 -7 10 9 -0.12 -0.33
 -7 10 11 0.10 0.39
 -7 10 13 1.81 -0.27
 -7 10 15 -5.00 0.06
 -7 10 17 7.97 0.10
 -7 10 19 -7.79 -0.09
 -7 10 21 2.86 0.05
 -7 10 23 3.70 -0.22
 -7 10 25 -6.71 0.49
 -7 10 27 5.30 -0.44
 -7 10 29 -3.47 -0.08
 -7 10 31 3.86 0.63
 -7 -11 -26 0.68 0.01
 -7 -11 -26 0.68 0.01
 -7 -11 -24 2.49 0.04
 -7 -11 -24 2.49 0.04
 -7 -11 -22 -5.66 0.04
 -7 -11 -22 -5.66 0.04
 -7 -11 -20 4.10 -0.16
 -7 -11 -20 4.10 -0.16
 -7 -11 -18 1.75 0.18
 -7 -11 -18 1.75 0.18
 -7 -11 -16 -6.24 -0.12
 -7 -11 -16 -6.24 -0.12
 -7 -11 -14 5.24 0.11
 -7 -11 -14 5.24 0.11
 -7 -11 -12 -0.60 -0.12
 -7 -11 -12 -0.60 -0.12
 -7 -11 -10 -2.88 0.03
 -7 -11 -10 -2.88 0.03
 -7 -11 -8 2.79 0.18
 -7 11 -8 2.79 -0.01
 -7 -11 -8 2.79 0.18
 -7 -11 -6 -0.37 -0.31
 -7 11 -6 -0.36 0.06
 -7 -11 -6 -0.37 -0.31
 -7 -11 -4 -1.95 0.23
 -7 11 -4 -1.95 0.01
 -7 -11 -4 -1.95 0.23
 -7 -11 -2 2.39 -0.02
 -7 11 -2 2.40 -0.16
 -7 -11 -2 2.39 -0.02
 -7 11 0 -0.28 0.33
 -7 -11 0 -0.27 -0.11
 -7 11 2 -3.45 -0.37
 -7 -11 2 -3.45 0.07
 -7 -11 4 6.26 0.02
 -7 11 4 6.30 0.19
 -7 11 4 6.30 0.19
 -7 -11 6 -6.18 -0.01
 -7 11 6 -6.24 0.12
 -7 11 6 -6.24 0.12
 -7 -11 8 3.54 -0.06
 -7 11 8 3.56 -0.34
 -7 -11 10 -0.36 0.03
 -7 11 10 -0.32 0.39
 -7 11 12 -1.23 -0.33
 -7 11 14 -0.50 0.22
 -7 11 16 5.17 -0.10
 -7 11 18 -9.01 0.03
 -7 11 20 7.39 -0.03
 -7 11 22 -0.55 -0.07
 -7 11 24 -5.60 0.36
 -7 11 26 6.34 -0.57
 -7 11 28 -3.28 0.40
 -7 11 30 0.64 0.01
 -7 -12 -25 -0.68 -0.02
 -7 -12 -25 -0.68 -0.02
 -7 -12 -23 5.30 0.01
 -7 -12 -23 5.30 0.01
 -7 -12 -21 -7.36 0.13
 -7 -12 -21 -7.36 0.13
 -7 -12 -19 3.45 -0.22
 -7 -12 -19 3.45 -0.22
 -7 -12 -17 2.62 0.19
 -7 -12 -17 2.62 0.19
 -7 -12 -15 -4.48 -0.10
 -7 -12 -15 -4.48 -0.10
 -7 -12 -13 1.23 0.06
 -7 -12 -13 1.23 0.06
 -7 -12 -11 2.20 -0.03
 -7 -12 -11 2.20 -0.03
 -7 -12 -9 -2.11 -0.09
 -7 -12 -9 -2.11 -0.09
 -7 -12 -7 -0.03 0.25
 -7 -12 -7 -0.03 0.25
 -7 12 -5 -0.99 -0.08
 -7 -12 -5 1.01 -0.27
 -7 -12 -5 1.01 -0.27
 -7 -12 -3 0.01 0.08
 -7 -12 -3 0.01 0.08
 -7 12 -3 -0.02 -0.10
 -7 12 -1 1.91 0.22
 -7 -12 -1 -1.91 0.15
 -7 -12 -1 -1.91 0.15
 -7 12 1 -3.82 -0.22
 -7 -12 1 3.84 -0.18
 -7 -12 1 3.84 -0.18
 -7 -12 3 -5.35 0.02
 -7 12 3 5.35 0.09
 -7 -12 3 -5.35 0.02
 -7 -12 5 5.63 0.07
 -7 12 5 -5.65 0.12
 -7 -12 5 5.63 0.07
 -7 -12 7 -3.83 0.10
 -7 12 7 3.84 -0.20
 -7 12 9 0.09 0.10
 -7 -12 9 -0.06 -0.35
 -7 -12 11 4.43 0.33
 -7 12 11 -4.48 0.06
 -7 12 13 6.14 -0.08
 -7 12 15 -2.73 0.02
 -7 12 17 -3.47 0.01
 -7 12 19 6.17 0.00
 -7 12 21 -1.88 0.00
 -7 12 23 -5.27 0.06
 -7 12 25 8.28 -0.16
 -7 12 27 -5.53 0.17
 -7 -13 -22 5.91 0.00
 -7 -13 -22 5.91 0.00
 -7 -13 -20 -6.78 0.10
 -7 -13 -20 -6.78 0.10
 -7 -13 -18 2.80 -0.13
 -7 -13 -18 2.80 -0.13
 -7 -13 -16 1.08 0.08
 -7 -13 -16 1.08 0.08
 -7 -13 -14 -0.34 -0.03
 -7 -13 -14 -0.34 -0.03
 -7 -13 -12 -3.07 0.04
 -7 -13 -12 -3.07 0.04
 -7 -13 -10 4.14 -0.01
 -7 -13 -10 4.14 -0.01
 -7 -13 -8 -1.96 -0.11
 -7 -13 -8 -1.96 -0.11
 -7 -13 -6 0.03 0.24
 -7 -13 -6 0.03 0.24
 -7 -13 -4 -0.81 -0.23
 -7 13 -4 -0.83 0.10
 -7 13 -2 2.98 -0.05
 -7 -13 -2 2.96 0.06
 -7 -13 -2 2.96 0.06
 -7 13 0 -4.17 0.05
 -7 -13 0 -4.17 0.09
 -7 -13 0 -4.17 0.09
 -7 13 2 4.03 -0.06
 -7 -13 2 4.06 -0.02
 -7 -13 2 4.06 -0.02
 -7 -13 4 -3.62 -0.12
 -7 13 4 -3.60 0.11
 -7 -13 4 -3.62 -0.12
 -7 -13 6 3.09 0.05
 -7 13 6 3.08 -0.10
 -7 -13 6 3.09 0.05
 -7 -13 8 -1.25 0.29
 -7 13 8 -1.23 -0.11
 -7 -13 8 -1.25 0.29
 -7 -13 10 -2.67 -0.52
 -7 -13 10 -2.67 -0.52
 -7 13 10 -2.73 0.45
 -7 -13 12 6.51 0.37
 -7 13 12 6.56 -0.60
 -7 -13 12 6.51 0.37
 -7 -13 14 -6.19 0.01
 -7 13 14 -6.19 0.41
 -7 -13 14 -6.19 0.01
 -7 13 16 0.88 -0.13
 -7 -13 16 0.89 -0.18
 -7 13 18 4.06 0.00
 -7 -13 18 4.08 0.02
 -7 13 20 -2.67 -0.01
 -7 -13 20 -2.72 0.16
 -7 13 22 -4.00 0.00
 -7 13 24 8.89 0.06
 -7 13 26 -7.77 -0.13
 -7 -14 -19 -3.64 -0.02
 -7 -14 -19 -3.64 -0.02
 -7 -14 -17 0.59 0.00
 -7 -14 -17 0.59 0.00
 -7 -14 -15 1.13 -0.01
 -7 -14 -15 1.13 -0.01
 -7 -14 -13 1.26 0.00
 -7 -14 -13 1.26 0.00
 -7 -14 -11 -4.89 0.02
 -7 -14 -11 -4.89 0.02
 -7 -14 -9 5.81 0.03
 -7 -14 -9 5.81 0.03
 -7 -14 -7 -4.03 -0.16
 -7 -14 -7 -4.03 -0.16
 -7 -14 -5 2.30 0.28
 -7 -14 -5 2.30 0.28
 -7 -14 -3 -1.91 -0.26
 -7 -14 -3 -1.91 -0.26
 -7 -14 -1 1.98 0.11
 -7 14 -1 -2.00 0.17
 -7 -14 -1 1.98 0.11
 -7 14 1 1.72 -0.10
 -7 -14 1 -1.74 -0.01
 -7 14 3 -1.70 0.01
 -7 -14 3 1.73 0.06
 -7 14 5 2.64 0.01
 -7 -14 5 -2.66 -0.11
 -7 14 7 -3.71 -0.09
 -7 -14 7 3.71 -0.05
 -7 -14 9 -2.97 0.31
 -7 14 9 2.96 0.38
 -7 14 11 -0.24 -0.69
 -7 -14 11 0.28 -0.38
 -7 14 13 -1.40 0.63
 -7 -14 13 1.36 0.17
 -7 14 15 -0.81 -0.21
 -7 -14 15 0.82 0.05
 -7 14 17 4.75 -0.14
 -7 -14 17 -4.75 -0.03
 -7 14 19 -5.02 0.17
 -7 14 21 0.07 -0.02
 -7 14 23 5.21 -0.03
 -7 -15 -16 -2.20 0.07
 -7 -15 -14 2.48 -0.08
 -7 -15 -12 1.10 0.08
 -7 -15 -10 -5.49 -0.07
 -7 -15 -8 7.38 0.10
 -7 -15 -6 -6.26 -0.19
 -7 -15 -4 3.59 0.25
 -7 -15 -2 -1.03 -0.18
 -7 15 0 -0.32 0.00
 -7 -15 0 -0.31 0.02
 -7 15 2 0.10 -0.17
 -7 -15 2 0.06 0.07
 -7 -15 4 1.48 -0.03
 -7 15 4 1.44 0.21
 -7 15 6 -3.54 -0.10
 -7 -15 6 -3.54 -0.01
 -7 15 8 4.94 0.12
 -7 -15 8 4.91 -0.07
 -7 15 10 -4.68 -0.35
 -7 -15 10 -4.68 0.20
 -7 15 12 3.45 0.48
 -7 -15 12 3.49 -0.18
 -7 15 14 -3.25 -0.19
 -7 -15 14 -3.28 0.05
 -7 15 16 4.52 -0.26
 -7 -15 16 4.50 0.00
 -7 15 18 -4.86 0.41
 -7 -16 -11 0.60 0.14
 -7 -16 -9 -4.47 -0.09
 -7 -16 -7 6.55 0.06
 -7 -16 -5 -5.99 -0.10
 -7 -16 -3 3.57 0.11
 -7 -16 -1 -1.35 -0.01
 -7 -16 1 0.86 -0.13
 -7 16 3 1.69 0.30
 -7 -16 3 -1.72 0.15
 -7 16 5 -2.69 -0.18
 -7 -16 5 2.71 -0.04
 -7 16 7 3.37 0.01
 -7 -16 7 -3.36 -0.02
 -7 16 9 -3.76 -0.06
 -7 -16 9 3.74 -0.06
 -7 16 11 3.57 0.24
 -7 -16 11 -3.59 0.15
 -7 16 13 -2.74 -0.18
 -7 -16 13 2.77 -0.12
 -7 -17 -2 3.28 0.01
 -7 -17 0 -2.94 0.06
 -7 -17 2 3.33 -0.11
 -7 -17 4 -3.41 0.04
 -6 0 -38 0.04 0.04
 -6 0 -36 0.46 0.05
 -6 0 -34 -3.36 -0.03
 -6 0 -32 4.65 -0.15
 -6 0 -30 -1.12 0.32
 -6 0 -28 -3.88 -0.27
 -6 0 -26 4.66 0.09
 -6 0 -26 4.66 0.09
 -6 0 -24 -1.50 -0.03
 -6 0 -24 -1.50 -0.03
 -6 0 -22 -0.96 0.10
 -6 0 -22 -0.96 0.10
 -6 0 -20 1.70 -0.10
 -6 0 -18 -3.35 -0.02
 -6 0 -16 5.46 0.03
 -6 0 -14 -4.78 0.20
 -6 0 -12 1.85 -0.41
 -6 0 -10 -1.20 0.33
 -6 0 -8 5.21 -0.07
 -6 0 -6 -12.29 -0.03
 -6 0 -4 19.45 -0.09
 -6 0 -2 -22.21 0.15
 -6 0 0 15.43 -0.01
 -6 0 0 15.43 -0.01
 -6 0 2 -0.36 -0.07
 -6 0 4 -12.42 -0.11
 -6 0 6 13.13 0.32
 -6 0 8 -4.28 -0.27
 -6 0 10 -3.22 0.00
 -6 0 12 2.83 0.16
 -6 0 14 2.97 -0.10
 -6 0 16 -7.72 0.03
 -6 0 18 6.07 -0.10
 -6 0 20 3.28 0.18
 -6 0 22 -14.85 -0.09
 -6 0 24 18.71 -0.09
 -6 0 26 -10.06 0.22
 -6 0 28 -4.26 -0.21
 -6 0 30 12.43 0.12
 -6 0 32 -9.76 -0.01
 -6 0 34 1.95 -0.08
 -6 0 36 3.05 0.09
 -6 0 38 -3.22 0.00
 -6 0 40 1.94 -0.10
 -6 -1 -37 -0.40 0.08
 -6 1 -37 0.39 0.06
 -6 1 -35 -1.39 -0.16
 -6 -1 -35 1.40 -0.03
 -6 1 -33 3.09 0.07
 -6 -1 -33 -3.10 0.10
 -6 1 -31 -2.22 0.13
 -6 -1 -31 2.23 -0.23
 -6 1 -29 -1.55 -0.21
 -6 -1 -29 1.53 0.22
 -6 -1 -29 1.53 0.22
 -6 1 -27 3.95 0.10
 -6 -1 -27 -3.92 -0.04
 -6 -1 -27 -3.92 -0.04
 -6 -1 -25 2.31 -0.10
 -6 1 -25 -2.34 -0.01
 -6 -1 -25 2.31 -0.10
 -6 1 -25 -2.34 -0.01
 -6 1 -23 -0.55 0.07
 -6 -1 -23 0.56 0.05
 -6 -1 -23 0.56 0.05
 -6 1 -23 -0.55 0.07
 -6 1 -21 1.77 -0.13
 -6 -1 -21 -1.77 0.05
 -6 -1 -21 -1.77 0.05
 -6 1 -21 1.77 -0.13
 -6 1 -19 -2.45 -0.01
 -6 -1 -19 2.45 -0.02
 -6 1 -17 3.93 0.20
 -6 -1 -17 -3.93 -0.02
 -6 1 -15 -4.29 -0.16
 -6 -1 -15 4.28 -0.12
 -6 -1 -13 -2.17 0.33
 -6 1 -13 2.19 -0.11
 -6 -1 -11 0.07 -0.29
 -6 1 -11 -0.08 0.30
 -6 -1 -9 -0.65 -0.01
 -6 1 -9 0.65 -0.22
 -6 1 -7 -3.81 0.06
 -6 -1 -7 3.81 0.21
 -6 1 -5 8.71 -0.09
 -6 -1 -5 -8.69 -0.08
 -6 -1 -3 13.76 -0.13
 -6 1 -3 -13.78 0.21
 -6 1 -1 14.19 -0.17
 -6 -1 -1 -14.20 0.09
 -6 1 -1 14.19 -0.17
 -6 -1 1 5.69 0.05
 -6 1 1 -5.67 -0.02
 -6 1 1 -5.67 -0.02
 -6 -1 3 7.36 0.05
 -6 1 3 -7.36 0.12
 -6 -1 5 -13.91 -0.38
 -6 1 5 13.86 -0.06
 -6 -1 7 9.12 0.52
 -6 1 7 -9.04 0.02
 -6 -1 9 0.10 -0.27
 -6 1 9 -0.16 -0.13
 -6 -1 11 -4.26 -0.06
 -6 1 11 4.29 0.21
 -6 1 13 -1.30 -0.13
 -6 -1 13 1.30 0.12
 -6 1 15 -4.17 0.03
 -6 -1 15 4.17 0.03
 -6 -1 17 -6.38 -0.07
 -6 1 17 6.39 -0.08
 -6 -1 19 2.04 -0.06
 -6 1 19 -2.04 0.18
 -6 -1 21 7.14 0.16
 -6 1 21 -7.14 -0.12
 -6 -1 23 -13.76 -0.05
 -6 1 23 13.78 -0.06
 -6 -1 25 10.77 -0.15
 -6 1 25 -10.79 0.17
 -6 -1 27 0.31 0.24
 -6 1 27 -0.31 -0.13
 -6 -1 29 -10.02 -0.17
 -6 1 29 10.03 0.06
 -6 -1 31 10.95 0.03
 -6 1 31 -10.95 0.00
 -6 -1 33 -4.83 0.03
 -6 1 33 4.82 -0.12
 -6 -1 35 -1.19 0.01
 -6 1 35 1.20 0.30
 -6 -1 37 2.82 -0.10
 -6 1 37 -2.82 -0.39
 -6 -1 39 -1.60 0.16
 -6 1 39 1.60 0.30
 -6 2 -36 -2.55 -0.08
 -6 -2 -36 -2.55 0.03
 -6 2 -34 1.66 0.08
 -6 -2 -34 1.66 0.05
 -6 2 -32 -1.01 0.04
 -6 -2 -32 -1.00 -0.02
 -6 2 -30 0.01 -0.11
 -6 -2 -30 0.00 -0.02
 -6 -2 -30 0.00 -0.02
 -6 2 -28 1.04 0.01
 -6 -2 -28 1.03 -0.06
 -6 -2 -28 1.03 -0.06
 -6 2 -26 -0.76 0.12
 -6 -2 -26 -0.74 0.17
 -6 -2 -26 -0.74 0.17
 -6 2 -24 -0.64 -0.09
 -6 -2 -24 -0.64 -0.16
 -6 2 -24 -0.64 -0.09
 -6 -2 -24 -0.64 -0.16
 -6 2 -22 1.50 -0.06
 -6 -2 -22 1.49 0.06
 -6 -2 -22 1.49 0.06
 -6 2 -22 1.50 -0.06
 -6 2 -20 -1.56 0.08
 -6 -2 -20 -1.54 -0.06
 -6 -2 -20 -1.54 -0.06
 -6 2 -18 1.71 0.08
 -6 -2 -18 1.71 0.17
 -6 2 -16 -1.69 -0.21
 -6 -2 -16 -1.70 -0.18
 -6 2 -14 0.80 0.09
 -6 -2 -14 0.80 0.02
 -6 2 -12 0.24 0.14
 -6 -2 -12 0.25 0.07
 -6 2 -10 -0.96 -0.21
 -6 -2 -10 -0.96 0.10
 -6 -2 -8 2.47 -0.31
 -6 2 -8 2.47 0.11
 -6 -2 -6 -4.36 0.23
 -6 2 -6 -4.34 -0.08
 -6 -2 -4 3.41 0.08
 -6 2 -4 3.38 0.20
 -6 2 -4 3.38 0.20
 -6 -2 -2 0.62 -0.21
 -6 2 -2 0.64 -0.28
 -6 2 -2 0.64 -0.28
 -6 2 0 -1.91 0.14
 -6 2 0 -1.91 0.14
 -6 -2 0 -1.93 0.04
 -6 2 2 -3.64 0.08
 -6 -2 2 -3.61 0.09
 -6 2 4 11.02 -0.19
 -6 2 6 -11.95 0.21
 -6 -2 6 -12.02 -0.34
 -6 2 8 5.58 -0.26
 -6 -2 8 5.66 0.29
 -6 -2 10 1.39 0.00
 -6 2 10 1.43 0.29
 -6 2 12 -3.65 -0.15
 -6 -2 12 -3.63 -0.15
 -6 -2 14 1.40 0.02
 -6 2 14 1.41 -0.09
 -6 2 16 1.64 0.16
 -6 -2 16 1.64 0.14
 -6 2 18 -2.00 -0.02
 -6 -2 18 -1.98 -0.07
 -6 2 20 -1.31 -0.07
 -6 -2 20 -1.33 -0.10
 -6 -2 22 5.12 0.14
 -6 2 22 5.13 -0.03
 -6 -2 24 -4.43 0.00
 -6 2 24 -4.47 0.14
 -6 2 26 -1.59 -0.07
 -6 -2 26 -1.61 -0.11
 -6 2 28 7.83 -0.06
 -6 -2 28 7.81 0.04
 -6 -2 30 -8.63 0.08
 -6 2 30 -8.67 0.09
 -6 -2 32 4.26 -0.11
 -6 2 32 4.27 -0.08
 -6 -2 34 0.54 0.04
 -6 2 34 0.56 0.20
 -6 -2 36 -2.08 0.02
 -6 2 36 -2.10 -0.43
 -6 -2 38 0.80 0.00
 -6 2 38 0.79 0.51
 -6 -3 -37 6.50 0.03
 -6 3 -37 -6.51 0.05
 -6 3 -35 4.56 -0.07
 -6 -3 -35 -4.56 -0.20
 -6 3 -33 -1.41 0.15
 -6 -3 -33 1.40 0.27
 -6 -3 -31 0.03 -0.19
 -6 3 -31 0.00 -0.17
 -6 -3 -31 0.03 -0.19
 -6 3 -29 -0.55 0.05
 -6 -3 -29 0.52 0.11
 -6 -3 -29 0.52 0.11
 -6 3 -27 1.46 0.13
 -6 -3 -27 -1.46 -0.10
 -6 -3 -27 -1.46 -0.10
 -6 3 -25 -1.43 -0.20
 -6 -3 -25 1.44 0.09
 -6 -3 -25 1.44 0.09
 -6 3 -23 0.29 0.09
 -6 -3 -23 -0.28 -0.03
 -6 -3 -23 -0.28 -0.03
 -6 3 -23 0.29 0.09
 -6 3 -21 1.01 0.06
 -6 -3 -21 -1.04 0.02
 -6 -3 -21 -1.04 0.02
 -6 3 -19 -1.48 -0.08
 -6 -3 -19 1.50 -0.16
 -6 -3 -19 1.50 -0.16
 -6 3 -17 1.23 0.02
 -6 -3 -17 -1.21 0.32
 -6 3 -15 -0.78 -0.01
 -6 -3 -15 0.74 -0.31
 -6 3 -13 -0.23 0.09
 -6 -3 -13 0.25 0.16
 -6 3 -11 1.63 -0.16
 -6 -3 -11 -1.62 -0.12
 -6 -3 -9 0.91 0.21
 -6 3 -9 -0.91 0.12
 -6 3 -7 -3.63 -0.07
 -6 -3 -7 3.63 -0.19
 -6 3 -5 8.71 0.10
 -6 3 -5 8.71 0.10
 -6 -3 -5 -8.72 -0.07
 -6 3 -3 -9.18 -0.16
 -6 3 -3 -9.18 -0.16
 -6 -3 -3 9.20 0.31
 -6 -3 -1 -5.51 -0.26
 -6 3 -1 5.50 0.12
 -6 3 -1 5.50 0.12
 -6 3 1 -3.51 0.02
 -6 -3 1 3.50 0.03
 -6 3 1 -3.51 0.02
 -6 3 3 6.13 -0.10
 -6 3 5 -9.63 0.10
 -6 3 7 9.26 -0.15
 -6 -3 9 4.92 -0.02
 -6 3 9 -4.90 0.26
 -6 -3 11 0.24 0.12
 -6 3 11 -0.23 -0.22
 -6 -3 13 -3.41 -0.04
 -6 3 13 3.41 -0.05
 -6 -3 15 3.84 -0.14
 -6 3 15 -3.86 0.30
 -6 -3 17 -2.77 0.21
 -6 3 17 2.77 -0.23
 -6 -3 19 2.23 -0.13
 -6 3 19 -2.19 -0.01
 -6 -3 21 -2.53 0.06
 -6 3 21 2.50 0.11
 -6 -3 23 1.58 -0.06
 -6 3 23 -1.60 -0.03
 -6 3 25 -1.75 0.03
 -6 -3 25 1.79 0.03
 -6 3 27 5.03 -0.16
 -6 -3 27 -5.02 0.12
 -6 3 29 -4.72 0.23
 -6 -3 29 4.66 -0.24
 -6 3 31 0.86 -0.13
 -6 -3 31 -0.82 0.17
 -6 3 33 3.02 0.04
 -6 -3 33 -3.03 0.05
 -6 3 35 -4.06 -0.14
 -6 -3 35 4.03 -0.17
 -6 -3 37 -2.33 0.09
 -6 3 37 2.33 0.30
 -6 3 39 0.15 -0.28
 -6 -3 39 -0.13 0.07
 -6 4 -36 6.62 -0.10
 -6 -4 -36 6.62 0.24
 -6 4 -34 -3.14 0.16
 -6 -4 -34 -3.15 -0.35
 -6 4 -32 -0.46 -0.19
 -6 -4 -32 -0.47 0.28
 -6 -4 -32 -0.47 0.28
 -6 -4 -30 0.94 -0.12
 -6 -4 -30 0.94 -0.12
 -6 4 -30 0.91 0.12
 -6 4 -28 1.00 0.02
 -6 -4 -28 0.98 0.01
 -6 -4 -28 0.98 0.01
 -6 4 -26 -1.95 -0.12
 -6 -4 -26 -1.96 0.00
 -6 -4 -26 -1.96 0.00
 -6 4 -24 0.10 0.10
 -6 -4 -24 0.11 0.01
 -6 -4 -24 0.11 0.01
 -6 4 -22 3.11 -0.02
 -6 -4 -22 3.13 0.01
 -6 4 -22 3.11 -0.02
 -6 -4 -22 3.13 0.01
 -6 4 -20 -4.82 -0.05
 -6 -4 -20 -4.86 0.01
 -6 -4 -20 -4.86 0.01
 -6 4 -18 3.90 0.09
 -6 -4 -18 3.91 -0.12
 -6 -4 -18 3.91 -0.12
 -6 4 -16 -1.49 -0.09
 -6 -4 -16 -1.46 0.22
 -6 -4 -16 -1.46 0.22
 -6 -4 -14 -1.22 -0.17
 -6 4 -14 -1.19 0.06
 -6 4 -12 3.81 -0.01
 -6 -4 -12 3.81 0.05
 -6 4 -10 -5.34 0.00
 -6 -4 -10 -5.32 -0.02
 -6 4 -8 3.72 -0.03
 -6 -4 -8 3.72 0.03
 -6 4 -6 1.04 0.03
 -6 4 -6 1.04 0.03
 -6 -4 -6 1.02 0.07
 -6 4 -4 -5.42 0.04
 -6 4 -4 -5.42 0.04
 -6 -4 -4 -5.41 -0.27
 -6 4 -2 5.97 -0.15
 -6 4 -2 5.97 -0.15
 -6 -4 -2 5.99 0.38
 -6 4 0 -3.49 0.20
 -6 4 0 -3.49 0.20
 -6 -4 0 -3.50 -0.31
 -6 -4 2 1.66 0.16
 -6 4 2 1.67 -0.14
 -6 4 4 -2.73 0.01
 -6 4 6 5.45 0.03
 -6 4 8 -6.78 0.10
 -6 4 10 4.50 -0.23
 -6 -4 12 0.68 0.03
 -6 4 12 0.67 0.11
 -6 -4 14 -5.30 0.10
 -6 4 14 -5.31 0.15
 -6 -4 16 6.57 -0.23
 -6 4 16 6.58 -0.21
 -6 -4 18 -5.15 0.32
 -6 4 18 -5.13 -0.01
 -6 -4 20 3.47 -0.33
 -6 4 20 3.42 0.24
 -6 -4 22 -2.23 0.24
 -6 4 22 -2.21 -0.21
 -6 -4 24 0.53 -0.03
 -6 4 24 0.56 0.07
 -6 -4 26 1.17 -0.23
 -6 4 26 1.13 -0.07
 -6 -4 28 -0.92 0.40
 -6 4 28 -0.93 0.15
 -6 -4 30 -1.75 -0.31
 -6 4 30 -1.71 -0.10
 -6 -4 32 4.94 -0.01
 -6 4 32 4.93 -0.06
 -6 -4 34 -6.50 0.33
 -6 4 34 -6.54 0.10
 -6 -4 36 5.80 -0.40
 -6 4 36 5.84 0.02
 -6 4 38 -3.41 -0.10
 -6 5 -35 -2.32 0.03
 -6 -5 -35 2.34 0.18
 -6 -5 -33 0.60 -0.17
 -6 5 -33 -0.62 -0.06
 -6 -5 -33 0.60 -0.17
 -6 -5 -31 -2.33 0.06
 -6 5 -31 2.31 0.04
 -6 -5 -31 -2.33 0.06
 -6 5 -29 -0.79 0.01
 -6 -5 -29 0.81 0.04
 -6 -5 -29 0.81 0.04
 -6 5 -27 -1.83 -0.01
 -6 -5 -27 1.84 0.00
 -6 -5 -27 1.84 0.00
 -6 5 -25 1.94 -0.04
 -6 -5 -25 -1.97 -0.11
 -6 5 -23 1.13 0.06
 -6 -5 -23 -1.11 0.15
 -6 -5 -23 -1.11 0.15
 -6 5 -21 -4.33 -0.03
 -6 -5 -21 4.35 -0.05
 -6 -5 -21 4.35 -0.05
 -6 5 -19 4.41 0.02
 -6 -5 -19 -4.44 -0.04
 -6 -5 -19 -4.44 -0.04
 -6 5 -17 -1.35 -0.03
 -6 -5 -17 1.34 0.04
 -6 -5 -17 1.34 0.04
 -6 5 -15 -2.27 -0.03
 -6 -5 -15 2.30 -0.01
 -6 -5 -15 2.30 -0.01
 -6 5 -13 4.31 0.14
 -6 -5 -13 -4.32 0.03
 -6 5 -11 -4.63 -0.16
 -6 -5 -11 4.63 -0.07
 -6 5 -9 3.99 0.03
 -6 -5 -9 -3.99 0.06
 -6 5 -7 -2.60 0.08
 -6 -5 -7 2.64 -0.04
 -6 5 -7 -2.60 0.08
 -6 5 -5 0.51 0.03
 -6 5 -5 0.51 0.03
 -6 -5 -5 -0.55 0.09
 -6 -5 -3 -1.39 -0.21
 -6 5 -3 1.40 -0.28
 -6 5 -3 1.40 -0.28
 -6 5 -1 -1.70 0.41
 -6 -5 -1 1.71 0.34
 -6 5 -1 -1.70 0.41
 -6 -5 1 -0.11 -0.39
 -6 5 1 0.11 -0.32
 -6 5 1 0.11 -0.32
 -6 -5 3 -1.42 0.33
 -6 5 3 1.39 0.12
 -6 5 5 -0.29 -0.03
 -6 5 7 -3.13 0.12
 -6 5 9 5.22 -0.23
 -6 5 11 -2.99 0.20
 -6 5 13 -2.01 -0.01
 -6 5 15 5.43 -0.11
 -6 5 17 -5.19 -0.01
 -6 -5 17 5.19 -0.20
 -6 5 19 3.04 0.17
 -6 -5 19 -3.07 0.27
 -6 5 21 -1.29 -0.14
 -6 -5 21 1.33 -0.16
 -6 5 23 0.46 -0.02
 -6 -5 23 -0.46 -0.07
 -6 5 25 -0.23 0.06
 -6 -5 25 0.20 0.22
 -6 5 27 0.68 0.05
 -6 -5 27 -0.66 -0.23
 -6 5 29 -1.74 -0.05
 -6 -5 29 1.75 0.17
 -6 -5 31 -2.99 -0.09
 -6 5 31 2.99 -0.13
 -6 5 33 -4.27 0.25
 -6 -5 33 4.22 -0.06
 -6 -5 35 -5.35 0.23
 -6 5 35 5.41 -0.14
 -6 5 37 -5.49 -0.04
 -6 6 -34 -0.88 0.03
 -6 -6 -34 -0.87 -0.04
 -6 6 -32 1.53 -0.02
 -6 -6 -32 1.54 0.05
 -6 -6 -32 1.54 0.05
 -6 -6 -30 -0.56 -0.08
 -6 6 -30 -0.52 0.05
 -6 -6 -30 -0.56 -0.08
 -6 -6 -28 -2.11 0.03
 -6 6 -28 -2.13 -0.03
 -6 -6 -28 -2.11 0.03
 -6 6 -26 3.82 -0.08
 -6 -6 -26 3.83 0.12
 -6 -6 -26 3.83 0.12
 -6 6 -24 -2.65 0.16
 -6 -6 -24 -2.67 -0.25
 -6 -6 -24 -2.67 -0.25
 -6 6 -22 -0.03 -0.12
 -6 -6 -22 -0.03 0.20
 -6 -6 -22 -0.03 0.20
 -6 -6 -20 1.20 -0.02
 -6 6 -20 1.18 0.02
 -6 -6 -20 1.20 -0.02
 -6 6 -18 0.47 0.03
 -6 -6 -18 0.46 -0.11
 -6 -6 -18 0.46 -0.11
 -6 6 -16 -3.23 -0.05
 -6 -6 -16 -3.24 0.10
 -6 6 -16 -3.23 -0.05
 -6 -6 -16 -3.24 0.10
 -6 6 -14 4.26 0.12
 -6 -6 -14 4.29 -0.05
 -6 -6 -14 4.29 -0.05
 -6 6 -12 -2.43 -0.14
 -6 -6 -12 -2.45 0.04
 -6 6 -10 -0.60 -0.04
 -6 -6 -10 -0.58 -0.04
 -6 6 -8 2.12 0.26
 -6 6 -8 2.12 0.26
 -6 -6 -8 2.08 -0.01
 -6 6 -6 -1.43 -0.24
 -6 -6 -6 -1.38 0.07
 -6 6 -6 -1.43 -0.24
 -6 6 -4 0.35 -0.06
 -6 6 -4 0.35 -0.06
 -6 -6 -4 0.32 -0.06
 -6 -6 -2 -0.34 -0.07
 -6 6 -2 -0.34 0.32
 -6 6 -2 -0.34 0.32
 -6 -6 0 0.54 0.26
 -6 6 0 0.54 -0.32
 -6 6 0 0.54 -0.32
 -6 6 2 0.22 0.20
 -6 -6 2 0.24 -0.38
 -6 6 2 0.22 0.20
 -6 -6 4 -0.92 0.33
 -6 6 4 -0.87 -0.21
 -6 6 6 -0.34 0.35
 -6 6 8 2.59 -0.41
 -6 6 10 -3.21 0.25
 -6 6 12 1.42 0.01
 -6 6 14 0.76 -0.13
 -6 6 16 -1.45 0.05
 -6 6 18 0.76 0.04
 -6 6 20 0.31 0.03
 -6 6 22 -0.92 -0.08
 -6 -6 22 -0.89 0.14
 -6 6 24 0.24 -0.18
 -6 -6 24 0.21 0.08
 -6 6 26 1.75 0.67
 -6 -6 26 1.79 -0.72
 -6 6 28 -3.32 -0.90
 -6 -6 28 -3.38 1.19
 -6 6 30 2.80 0.60
 -6 -6 30 2.84 -0.97
 -6 6 32 -1.19 -0.12
 -6 -6 32 -1.18 0.27
 -6 -6 34 0.99 0.20
 -6 6 34 1.03 -0.07
 -6 6 36 -2.64 -0.07
 -6 7 -33 0.47 0.04
 -6 -7 -33 -0.45 -0.06
 -6 -7 -33 -0.45 -0.06
 -6 7 -31 0.57 -0.01
 -6 -7 -31 -0.56 0.03
 -6 -7 -31 -0.56 0.03
 -6 -7 -29 2.15 -0.04
 -6 7 -29 -2.19 -0.05
 -6 -7 -29 2.15 -0.04
 -6 7 -27 3.07 0.01
 -6 -7 -27 -3.05 0.03
 -6 -7 -27 -3.05 0.03
 -6 7 -25 -2.38 0.12
 -6 -7 -25 2.37 0.06
 -6 -7 -25 2.37 0.06
 -6 7 -23 1.32 -0.16
 -6 -7 -23 -1.32 -0.11
 -6 -7 -23 -1.32 -0.11
 -6 7 -21 -1.66 0.08
 -6 -7 -21 1.65 0.05
 -6 -7 -21 1.65 0.05
 -6 7 -19 3.35 0.00
 -6 -7 -19 -3.34 0.05
 -6 -7 -19 -3.34 0.05
 -6 7 -17 -4.77 0.00
 -6 -7 -17 4.78 -0.07
 -6 -7 -17 4.78 -0.07
 -6 7 -15 4.45 -0.02
 -6 -7 -15 -4.47 0.02
 -6 7 -15 4.45 -0.02
 -6 -7 -15 -4.47 0.02
 -6 7 -13 -1.85 0.04
 -6 7 -13 -1.85 0.04
 -6 -7 -13 1.87 0.01
 -6 -7 -13 1.87 0.01
 -6 7 -11 -2.15 -0.18
 -6 -7 -11 2.14 -0.01
 -6 -7 -11 2.14 -0.01
 -6 7 -9 5.08 0.41
 -6 7 -9 5.08 0.41
 -6 -7 -9 -5.06 0.01
 -6 7 -7 -4.73 -0.48
 -6 7 -7 -4.73 -0.48
 -6 -7 -7 4.71 -0.07
 -6 7 -5 2.00 0.24
 -6 7 -5 2.00 0.24
 -6 -7 -5 -1.99 0.16
 -6 7 -3 -0.16 0.07
 -6 7 -3 -0.16 0.07
 -6 -7 -3 0.16 -0.17
 -6 7 -1 0.72 -0.13
 -6 7 -1 0.72 -0.13
 -6 -7 -1 -0.73 0.03
 -6 -7 1 1.91 0.17
 -6 7 1 -1.92 0.04
 -6 7 1 -1.92 0.04
 -6 7 3 1.76 -0.13
 -6 -7 3 -1.74 -0.27
 -6 7 3 1.76 -0.13
 -6 7 5 -0.53 0.41
 -6 -7 5 0.49 0.23
 -6 7 7 -0.61 -0.55
 -6 7 7 -0.61 -0.55
 -6 7 9 1.14 0.32
 -6 7 11 -0.63 0.09
 -6 7 13 -1.15 -0.27
 -6 7 15 3.03 0.13
 -6 7 17 -3.27 0.02
 -6 7 19 1.95 0.06
 -6 7 21 -0.44 -0.10
 -6 7 23 -1.52 -0.46
 -6 7 25 5.22 1.60
 -6 7 27 -9.26 -2.51
 -6 7 29 9.83 2.40
 -6 7 31 -6.07 -1.45
 -6 7 33 1.81 0.56
 -6 7 35 -0.66 -0.25
 -6 8 -32 0.66 -0.06
 -6 -8 -32 0.67 0.09
 -6 -8 -32 0.67 0.09
 -6 -8 -30 -1.45 -0.09
 -6 8 -30 -1.45 0.01
 -6 -8 -30 -1.45 -0.09
 -6 -8 -28 0.90 -0.04
 -6 8 -28 0.92 0.02
 -6 -8 -28 0.90 -0.04
 -6 8 -26 1.27 0.04
 -6 -8 -26 1.29 0.15
 -6 -8 -26 1.29 0.15
 -6 8 -24 -2.66 -0.10
 -6 -8 -24 -2.67 -0.14
 -6 -8 -24 -2.67 -0.14
 -6 -8 -22 0.63 0.06
 -6 8 -22 0.62 0.06
 -6 -8 -22 0.63 0.06
 -6 8 -20 3.66 0.01
 -6 -8 -20 3.66 -0.01
 -6 -8 -20 3.66 -0.01
 -6 8 -18 -6.27 0.00
 -6 -8 -18 -6.28 0.02
 -6 -8 -18 -6.28 0.02
 -6 -8 -16 5.30 -0.03
 -6 8 -16 5.29 -0.08
 -6 -8 -16 5.30 -0.03
 -6 8 -14 -2.08 0.12
 -6 -8 -14 -2.08 0.02
 -6 -8 -14 -2.08 0.02
 -6 -8 -12 -1.32 -0.01
 -6 8 -12 -1.32 -0.18
 -6 -8 -12 -1.32 -0.01
 -6 -8 -10 3.61 0.02
 -6 8 -10 3.60 0.35
 -6 8 -10 3.60 0.35
 -6 -8 -10 3.61 0.02
 -6 8 -8 -3.60 -0.47
 -6 8 -8 -3.60 -0.47
 -6 -8 -8 -3.62 0.02
 -6 -8 -8 -3.62 0.02
 -6 8 -6 1.36 0.33
 -6 8 -6 1.36 0.33
 -6 -8 -6 1.38 -0.11
 -6 8 -4 0.56 -0.03
 -6 8 -4 0.56 -0.03
 -6 -8 -4 0.55 0.22
 -6 8 -2 0.47 -0.09
 -6 8 -2 0.47 -0.09
 -6 -8 -2 0.47 -0.21
 -6 8 0 -3.57 -0.04
 -6 -8 0 -3.57 0.04
 -6 8 0 -3.57 -0.04
 -6 8 2 5.30 0.10
 -6 -8 2 5.31 0.14
 -6 8 2 5.30 0.10
 -6 8 4 -3.66 0.14
 -6 -8 4 -3.66 -0.19
 -6 8 4 -3.66 0.14
 -6 8 4 -3.66 0.14
 -6 8 6 -0.47 -0.42
 -6 -8 6 -0.48 0.13
 -6 8 6 -0.47 -0.42
 -6 8 8 4.54 0.34
 -6 8 8 4.54 0.34
 -6 8 10 -5.53 0.07
 -6 8 12 1.78 -0.33
 -6 8 14 4.44 0.19
 -6 8 16 -8.00 0.08
 -6 8 18 6.31 -0.06
 -6 8 20 -1.68 -0.14
 -6 8 22 -3.03 -0.17
 -6 8 24 7.94 1.41
 -6 8 26 -13.19 -2.90
 -6 8 28 15.81 3.45
 -6 8 30 -13.16 -2.66
 -6 8 32 7.40 1.33
 -6 8 34 -3.17 -0.47
 -6 9 -31 -1.34 -0.02
 -6 -9 -31 1.35 0.15
 -6 -9 -31 1.35 0.15
 -6 9 -29 0.95 -0.01
 -6 -9 -29 -0.95 -0.09
 -6 -9 -29 -0.95 -0.09
 -6 9 -27 2.00 0.07
 -6 -9 -27 -2.00 -0.09
 -6 -9 -27 -2.00 -0.09
 -6 9 -25 -5.37 -0.08
 -6 -9 -25 5.37 0.19
 -6 -9 -25 5.37 0.19
 -6 9 -23 4.81 -0.01
 -6 -9 -23 -4.81 -0.11
 -6 -9 -23 -4.81 -0.11
 -6 9 -21 0.41 0.13
 -6 -9 -21 -0.42 -0.03
 -6 -9 -21 -0.42 -0.03
 -6 9 -19 -5.52 -0.13
 -6 -9 -19 5.53 0.05
 -6 -9 -19 5.53 0.05
 -6 9 -17 5.93 0.04
 -6 -9 -17 -5.94 0.05
 -6 -9 -17 -5.94 0.05
 -6 9 -15 -2.45 0.00
 -6 -9 -15 2.44 -0.13
 -6 -9 -15 2.44 -0.13
 -6 9 -13 -1.13 0.00
 -6 -9 -13 1.14 0.12
 -6 -9 -13 1.14 0.12
 -6 -9 -11 -2.70 -0.06
 -6 9 -11 2.70 0.09
 -6 9 -11 2.70 0.09
 -6 -9 -11 -2.70 -0.06
 -6 9 -9 -2.21 -0.27
 -6 9 -9 -2.21 -0.27
 -6 -9 -9 2.22 0.00
 -6 -9 -9 2.22 0.00
 -6 9 -7 0.27 0.29
 -6 9 -7 0.27 0.29
 -6 -9 -7 -0.30 0.08
 -6 -9 -7 -0.30 0.08
 -6 9 -5 1.33 -0.03
 -6 -9 -5 -1.32 -0.20
 -6 9 -5 1.33 -0.03
 -6 -9 -5 -1.32 -0.20
 -6 -9 -3 0.04 0.28
 -6 9 -3 -0.02 -0.21
 -6 9 -3 -0.02 -0.21
 -6 9 -1 -4.38 0.15
 -6 9 -1 -4.38 0.15
 -6 -9 -1 4.36 -0.17
 -6 9 1 8.53 0.06
 -6 -9 1 -8.53 -0.05
 -6 9 1 8.53 0.06
 -6 9 3 -8.87 -0.05
 -6 9 3 -8.87 -0.05
 -6 -9 3 8.90 0.16
 -6 9 3 -8.87 -0.05
 -6 9 5 4.87 -0.20
 -6 -9 5 -4.88 -0.08
 -6 9 5 4.87 -0.20
 -6 -9 7 -1.27 -0.02
 -6 9 7 1.26 0.33
 -6 9 7 1.26 0.33
 -6 9 9 -5.64 -0.11
 -6 9 11 4.46 -0.17
 -6 9 13 2.48 0.15
 -6 9 15 -9.84 0.12
 -6 9 17 11.42 -0.21
 -6 9 19 -6.66 -0.08
 -6 9 21 -0.03 0.28
 -6 9 23 5.33 0.25
 -6 9 25 -8.93 -1.43
 -6 9 27 10.50 2.36
 -6 9 29 -9.00 -2.24
 -6 9 31 5.35 1.29
 -6 9 33 -2.43 -0.39
 -6 -10 -30 2.54 0.11
 -6 -10 -30 2.54 0.11
 -6 10 -28 -1.16 0.05
 -6 -10 -28 -1.17 -0.06
 -6 -10 -28 -1.17 -0.06
 -6 10 -26 -2.85 -0.10
 -6 -10 -26 -2.85 -0.05
 -6 -10 -26 -2.85 -0.05
 -6 10 -24 5.68 -0.03
 -6 -10 -24 5.68 0.03
 -6 -10 -24 5.68 0.03
 -6 10 -22 -3.54 0.23
 -6 -10 -22 -3.54 0.10
 -6 -10 -22 -3.54 0.10
 -6 10 -20 -1.69 -0.32
 -6 -10 -20 -1.70 -0.14
 -6 -10 -20 -1.70 -0.14
 -6 -10 -18 4.38 -0.01
 -6 10 -18 4.38 0.25
 -6 -10 -18 4.38 -0.01
 -6 10 -16 -2.39 -0.19
 -6 -10 -16 -2.38 0.20
 -6 10 -14 -1.10 0.23
 -6 -10 -14 -1.11 -0.23
 -6 -10 -14 -1.11 -0.23
 -6 10 -12 2.76 -0.21
 -6 -10 -12 2.75 0.08
 -6 -10 -12 2.75 0.08
 -6 -10 -10 -2.31 0.05
 -6 10 -10 -2.32 0.00
 -6 10 -10 -2.32 0.00
 -6 -10 -10 -2.31 0.05
 -6 10 -8 0.85 0.19
 -6 -10 -8 0.86 -0.10
 -6 10 -8 0.85 0.19
 -6 -10 -8 0.86 -0.10
 -6 -10 -6 0.61 0.17
 -6 10 -6 0.62 -0.10
 -6 10 -6 0.62 -0.10
 -6 -10 -6 0.61 0.17
 -6 -10 -4 -0.49 -0.27
 -6 10 -4 -0.47 -0.21
 -6 -10 -4 -0.49 -0.27
 -6 10 -4 -0.47 -0.21
 -6 10 -2 -2.47 0.36
 -6 10 -2 -2.47 0.36
 -6 -10 -2 -2.43 0.25
 -6 -10 -2 -2.43 0.25
 -6 10 0 6.83 -0.20
 -6 10 0 6.83 -0.20
 -6 10 0 6.83 -0.20
 -6 -10 0 6.80 -0.04
 -6 -10 2 -9.51 -0.14
 -6 10 2 -9.50 0.02
 -6 10 2 -9.50 0.02
 -6 10 2 -9.50 0.02
 -6 10 4 8.47 -0.10
 -6 10 4 8.47 -0.10
 -6 10 4 8.47 -0.10
 -6 -10 4 8.49 0.07
 -6 10 6 -3.89 0.28
 -6 -10 6 -3.89 0.12
 -6 10 6 -3.89 0.28
 -6 10 8 -2.02 -0.26
 -6 -10 8 -2.04 -0.11
 -6 10 10 5.12 0.06
 -6 10 12 -2.08 0.04
 -6 10 14 -5.22 0.09
 -6 10 16 10.28 -0.22
 -6 10 18 -8.96 0.07
 -6 10 20 3.67 0.27
 -6 10 22 0.53 -0.38
 -6 10 24 -1.37 0.03
 -6 10 26 -0.35 0.51
 -6 10 28 3.05 -0.72
 -6 10 30 -4.96 0.46
 -6 10 32 4.55 -0.06
 -6 -11 -29 3.57 0.08
 -6 -11 -29 3.57 0.08
 -6 -11 -27 -1.37 -0.06
 -6 -11 -27 -1.37 -0.06
 -6 -11 -25 -3.27 0.05
 -6 -11 -25 -3.27 0.05
 -6 -11 -23 5.85 -0.13
 -6 -11 -23 5.85 -0.13
 -6 -11 -21 -3.77 0.20
 -6 -11 -21 -3.77 0.20
 -6 -11 -19 0.20 -0.08
 -6 -11 -19 0.20 -0.08
 -6 -11 -17 0.47 -0.14
 -6 -11 -17 0.47 -0.14
 -6 -11 -15 1.43 0.22
 -6 -11 -15 1.43 0.22
 -6 -11 -13 -2.48 -0.07
 -6 -11 -13 -2.48 -0.07
 -6 -11 -11 1.49 -0.13
 -6 -11 -11 1.49 -0.13
 -6 -11 -9 0.02 0.16
 -6 11 -9 -0.01 0.03
 -6 -11 -9 0.02 0.16
 -6 11 -7 0.89 -0.07
 -6 -11 -7 -0.86 -0.10
 -6 -11 -7 -0.86 -0.10
 -6 -11 -5 1.04 0.12
 -6 -11 -5 1.04 0.12
 -6 11 -5 -1.05 -0.16
 -6 11 -3 0.40 0.39
 -6 -11 -3 -0.43 -0.18
 -6 -11 -3 -0.43 -0.18
 -6 11 -1 1.21 -0.33
 -6 -11 -1 -1.18 0.11
 -6 -11 -1 -1.18 0.11
 -6 11 1 -3.28 0.12
 -6 -11 1 3.28 0.07
 -6 -11 1 3.28 0.07
 -6 -11 3 -4.67 -0.11
 -6 11 3 4.65 -0.03
 -6 11 3 4.65 -0.03
 -6 -11 3 -4.67 -0.11
 -6 11 5 -3.84 0.11
 -6 -11 5 3.83 -0.09
 -6 11 5 -3.84 0.11
 -6 -11 7 0.05 0.21
 -6 11 7 -0.03 -0.11
 -6 -11 9 -5.10 0.03
 -6 11 9 5.09 -0.03
 -6 11 11 -6.98 0.14
 -6 11 13 3.53 -0.08
 -6 11 15 1.83 -0.04
 -6 11 17 -4.03 0.03
 -6 11 19 2.45 0.11
 -6 11 21 -0.74 -0.25
 -6 11 23 1.75 0.27
 -6 11 25 -5.04 -0.22
 -6 11 27 8.50 0.19
 -6 11 29 -9.96 -0.18
 -6 11 31 8.15 0.16
 -6 -12 -26 -0.68 -0.03
 -6 -12 -26 -0.68 -0.03
 -6 -12 -24 -4.55 0.07
 -6 -12 -24 -4.55 0.07
 -6 -12 -22 6.86 -0.15
 -6 -12 -22 6.86 -0.15
 -6 -12 -20 -4.95 0.15
 -6 -12 -20 -4.95 0.15
 -6 -12 -18 2.64 -0.01
 -6 -12 -18 2.64 -0.01
 -6 -12 -16 -2.78 -0.11
 -6 -12 -16 -2.78 -0.11
 -6 -12 -14 3.40 0.03
 -6 -12 -14 3.40 0.03
 -6 -12 -12 -1.67 0.16
 -6 -12 -12 -1.67 0.16
 -6 -12 -10 -1.64 -0.20
 -6 -12 -10 -1.64 -0.20
 -6 -12 -8 3.70 0.04
 -6 -12 -8 3.70 0.04
 -6 -12 -6 -3.43 0.10
 -6 -12 -6 -3.43 0.10
 -6 12 -6 -3.47 -0.17
 -6 12 -4 2.15 0.35
 -6 -12 -4 2.15 -0.05
 -6 -12 -4 2.15 -0.05
 -6 12 -2 -1.34 -0.31
 -6 -12 -2 -1.37 -0.06
 -6 -12 -2 -1.37 -0.06
 -6 12 0 1.06 0.10
 -6 -12 0 1.07 0.03
 -6 -12 0 1.07 0.03
 -6 12 2 -0.17 0.06
 -6 -12 2 -0.15 0.07
 -6 -12 2 -0.15 0.07
 -6 -12 4 -1.43 -0.02
 -6 12 4 -1.41 -0.10
 -6 -12 4 -1.43 -0.02
 -6 -12 6 1.65 -0.14
 -6 -12 6 1.65 -0.14
 -6 12 6 1.65 0.19
 -6 -12 8 1.07 0.14
 -6 12 8 1.10 -0.38
 -6 -12 8 1.07 0.14
 -6 -12 10 -4.90 0.15
 -6 12 10 -4.97 0.47
 -6 -12 10 -4.90 0.15
 -6 12 12 6.32 -0.30
 -6 -12 12 6.26 -0.48
 -6 12 14 -4.46 0.04
 -6 -12 14 -4.47 0.55
 -6 -12 16 2.19 -0.40
 -6 12 16 2.14 0.04
 -6 -12 18 -1.20 0.29
 -6 12 18 -1.18 0.05
 -6 12 20 0.52 -0.11
 -6 -12 20 0.49 -0.29
 -6 12 22 1.14 0.07
 -6 12 24 -3.38 -0.06
 -6 12 26 5.15 0.17
 -6 12 28 -5.65 -0.24
 -6 -13 -25 0.14 0.02
 -6 -13 -25 0.14 0.02
 -6 -13 -23 -4.50 0.05
 -6 -13 -23 -4.50 0.05
 -6 -13 -21 5.45 -0.12
 -6 -13 -21 5.45 -0.12
 -6 -13 -19 -3.61 0.10
 -6 -13 -19 -3.61 0.10
 -6 -13 -17 2.88 -0.01
 -6 -13 -17 2.88 -0.01
 -6 -13 -15 -4.07 0.00
 -6 -13 -15 -4.07 0.00
 -6 -13 -13 3.86 -0.12
 -6 -13 -13 3.86 -0.12
 -6 -13 -11 -0.19 0.18
 -6 -13 -11 -0.19 0.18
 -6 -13 -9 -4.49 -0.04
 -6 -13 -9 -4.49 -0.04
 -6 -13 -7 6.19 -0.20
 -6 -13 -7 6.19 -0.20
 -6 -13 -5 -3.95 0.26
 -6 13 -5 3.97 0.26
 -6 -13 -5 -3.95 0.26
 -6 13 -3 -0.52 -0.22
 -6 -13 -3 0.55 -0.07
 -6 -13 -3 0.55 -0.07
 -6 13 -1 -1.00 0.02
 -6 -13 -1 0.96 -0.10
 -6 -13 -1 0.96 -0.10
 -6 13 1 0.69 0.12
 -6 -13 1 -0.70 0.08
 -6 -13 1 -0.70 0.08
 -6 13 3 -1.18 -0.15
 -6 -13 3 1.21 0.03
 -6 -13 3 1.21 0.03
 -6 -13 5 -3.51 -0.01
 -6 13 5 3.49 0.25
 -6 -13 7 5.36 -0.11
 -6 13 7 -5.31 -0.50
 -6 -13 7 5.36 -0.11
 -6 -13 9 -4.40 0.12
 -6 -13 9 -4.40 0.12
 -6 13 9 4.30 0.65
 -6 -13 11 1.29 0.05
 -6 -13 11 1.29 0.05
 -6 13 11 -1.20 -0.42
 -6 -13 13 1.55 -0.25
 -6 -13 13 1.55 -0.25
 -6 13 13 -1.56 -0.08
 -6 -13 15 -2.76 0.32
 -6 13 15 2.67 0.41
 -6 -13 17 2.28 -0.26
 -6 13 17 -2.19 -0.35
 -6 13 19 0.52 0.13
 -6 -13 19 -0.53 0.21
 -6 13 21 1.29 -0.05
 -6 13 23 -1.92 0.07
 -6 13 25 1.33 -0.01
 -6 13 27 -0.62 -0.10
 -6 -14 -22 -2.44 0.05
 -6 -14 -20 1.83 -0.09
 -6 -14 -20 1.83 -0.09
 -6 -14 -18 -0.70 0.07
 -6 -14 -18 -0.70 0.07
 -6 -14 -16 1.50 -0.02
 -6 -14 -16 1.50 -0.02
 -6 -14 -14 -3.12 0.05
 -6 -14 -14 -3.12 0.05
 -6 -14 -12 2.28 -0.11
 -6 -14 -12 2.28 -0.11
 -6 -14 -10 1.68 0.06
 -6 -14 -10 1.68 0.06
 -6 -14 -8 -5.31 0.14
 -6 -14 -8 -5.31 0.14
 -6 -14 -6 4.67 -0.28
 -6 -14 -4 0.09 0.17
 -6 14 -2 -4.60 -0.05
 -6 -14 -2 -4.56 0.09
 -6 14 0 4.99 0.12
 -6 -14 0 4.98 -0.22
 -6 14 2 -2.67 -0.06
 -6 -14 2 -2.71 0.10
 -6 14 4 2.23 0.05
 -6 -14 4 2.27 0.07
 -6 -14 6 -5.35 -0.06
 -6 14 6 -5.32 -0.22
 -6 -14 8 8.72 -0.09
 -6 14 8 8.65 0.45
 -6 -14 10 -8.40 0.15
 -6 14 10 -8.32 -0.38
 -6 14 12 4.20 -0.09
 -6 -14 12 4.21 -0.02
 -6 -14 14 0.49 -0.19
 -6 14 14 0.37 0.63
 -6 -14 16 -2.29 0.29
 -6 14 16 -2.12 -0.82
 -6 -14 18 0.69 -0.23
 -6 14 18 0.58 0.62
 -6 14 20 1.67 -0.33
 -6 14 22 -1.85 0.17
 -6 14 24 0.19 -0.08
 -6 -15 -19 -0.46 -0.03
 -6 -15 -17 1.27 0.02
 -6 -15 -15 -0.88 -0.02
 -6 -15 -13 0.25 0.07
 -6 -15 -11 -0.97 -0.08
 -6 -15 -9 2.76 -0.02
 -6 -15 -7 -2.92 0.18
 -6 -15 -5 -0.80 -0.18
 -6 -15 -3 6.51 -0.01
 -6 15 -1 9.12 0.08
 -6 -15 -1 -9.10 0.20
 -6 15 1 -6.19 0.01
 -6 -15 1 6.21 -0.17
 -6 -15 3 -1.61 -0.02
 -6 15 3 1.57 -0.11
 -6 15 5 -0.81 0.08
 -6 -15 5 0.84 0.15
 -6 15 7 4.31 0.08
 -6 -15 7 -4.32 -0.08
 -6 -15 9 7.16 -0.07
 -6 15 9 -7.15 -0.19
 -6 15 11 5.34 0.10
 -6 -15 11 -5.34 0.09
 -6 15 13 -0.33 0.21
 -6 -15 13 0.27 0.07
 -6 -15 15 3.29 -0.24
 -6 15 15 -3.16 -0.51
 -6 15 17 2.60 0.60
 -6 15 19 -0.09 -0.48
 -6 15 21 -0.70 0.31
 -6 -16 -14 -3.17 -0.07
 -6 -16 -12 3.20 0.09
 -6 -16 -10 -2.70 -0.04
 -6 -16 -8 1.83 -0.08
 -6 -16 -6 0.79 0.15
 -6 -16 -4 -5.79 -0.07
 -6 -16 -2 10.30 -0.07
 -6 -16 0 -10.19 0.12
 -6 16 2 5.51 -0.14
 -6 -16 2 5.55 0.00
 -6 16 4 -1.28 0.19
 -6 -16 4 -1.32 -0.15
 -6 -16 6 1.40 0.18
 -6 16 6 1.41 -0.17
 -6 -16 8 -4.06 -0.07
 -6 16 8 -4.11 0.10
 -6 -16 10 4.74 -0.04
 -6 16 10 4.76 0.07
 -6 16 12 -1.84 -0.25
 -6 -16 12 -1.86 0.03
 -6 -16 14 -1.71 0.06
 -6 16 14 -1.74 0.29
 -6 16 16 2.73 -0.16
 -6 -17 -7 1.26 -0.10
 -6 -17 -5 1.48 0.08
 -6 -17 -3 -5.93 0.00
 -6 -17 -1 8.91 -0.05
 -6 -17 1 -7.85 0.02
 -6 -17 3 4.38 0.09
 -6 17 5 2.43 -0.24
 -6 -17 5 -2.41 -0.17
 -6 -17 7 3.31 0.15
 -6 17 7 -3.40 0.33
 -6 -17 9 -4.84 -0.04
 -6 17 9 4.93 -0.27
 -5 1 -38 -4.23 -0.11
 -5 -1 -38 -4.20 0.02
 -5 1 -36 5.58 -0.02
 -5 -1 -36 5.56 0.01
 -5 1 -34 -4.20 0.17
 -5 -1 -34 -4.21 -0.04
 -5 1 -32 1.34 -0.20
 -5 -1 -32 1.35 0.05
 -5 1 -30 0.43 0.05
 -5 -1 -30 0.43 0.00
 -5 1 -28 -0.49 0.10
 -5 -1 -28 -0.50 -0.12
 -5 -1 -28 -0.50 -0.12
 -5 1 -26 0.21 -0.13
 -5 -1 -26 0.20 0.24
 -5 1 -26 0.21 -0.13
 -5 -1 -26 0.20 0.24
 -5 1 -24 0.19 0.07
 -5 -1 -24 0.20 -0.29
 -5 1 -24 0.19 0.07
 -5 -1 -24 0.20 -0.29
 -5 -1 -22 -1.95 0.24
 -5 1 -22 -1.96 -0.03
 -5 -1 -22 -1.95 0.24
 -5 1 -22 -1.96 -0.03
 -5 1 -20 4.47 0.04
 -5 -1 -20 4.44 -0.16
 -5 -1 -20 4.44 -0.16
 -5 1 -20 4.47 0.04
 -5 1 -18 -4.74 0.01
 -5 -1 -18 -4.72 0.09
 -5 -1 -18 -4.72 0.09
 -5 1 -16 1.97 -0.15
 -5 -1 -16 1.97 -0.04
 -5 1 -14 0.15 0.24
 -5 -1 -14 0.17 0.00
 -5 1 -12 2.08 -0.16
 -5 -1 -12 2.03 -0.01
 -5 1 -10 -7.53 0.01
 -5 -1 -10 -7.48 0.05
 -5 1 -8 11.92 0.08
 -5 -1 -8 11.91 -0.08
 -5 1 -6 -12.33 -0.08
 -5 -1 -6 -12.34 0.07
 -5 1 -4 8.49 0.07
 -5 -1 -4 8.49 -0.08
 -5 -1 -2 -1.79 0.13
 -5 1 -2 -1.82 -0.03
 -5 1 -2 -1.82 -0.03
 -5 -1 0 -4.83 -0.23
 -5 1 0 -4.79 -0.04
 -5 1 0 -4.79 -0.04
 -5 -1 2 7.89 0.29
 -5 1 2 7.87 0.12
 -5 -1 4 -6.51 -0.22
 -5 1 4 -6.50 -0.13
 -5 -1 6 3.59 0.04
 -5 1 6 3.56 0.07
 -5 1 8 -2.46 0.02
 -5 -1 8 -2.51 0.07
 -5 1 10 3.68 -0.07
 -5 -1 10 3.70 -0.02
 -5 -1 12 -5.44 -0.07
 -5 1 12 -5.45 0.04
 -5 -1 14 6.16 0.02
 -5 1 14 6.19 0.07
 -5 -1 16 -4.89 0.10
 -5 1 16 -4.90 -0.14
 -5 -1 18 1.17 -0.12
 -5 1 18 1.17 0.08
 -5 -1 20 3.59 -0.01
 -5 1 20 3.57 0.08
 -5 -1 22 -6.06 0.16
 -5 1 22 -6.06 -0.19
 -5 1 24 4.24 0.20
 -5 -1 24 4.22 -0.21
 -5 1 26 0.11 -0.16
 -5 -1 26 0.15 0.16
 -5 -1 28 -3.28 -0.03
 -5 1 28 -3.26 0.08
 -5 -1 30 3.33 -0.16
 -5 1 30 3.33 0.12
 -5 -1 32 -1.41 0.26
 -5 1 32 -1.40 -0.37
 -5 -1 34 -0.67 -0.14
 -5 1 34 -0.70 0.47
 -5 -1 36 2.20 -0.10
 -5 1 36 2.22 -0.38
 -5 -1 38 -3.11 0.24
 -5 1 38 -3.11 0.20
 -5 -1 40 3.03 -0.20
 -5 1 40 3.01 -0.07
 -5 2 -37 5.49 0.22
 -5 -2 -37 -5.47 0.12
 -5 2 -35 -6.33 -0.05
 -5 -2 -35 6.34 -0.09
 -5 2 -33 3.76 -0.12
 -5 -2 -33 -3.80 -0.01
 -5 2 -31 -0.41 0.13
 -5 -2 -31 0.43 0.13
 -5 -2 -29 0.83 -0.12
 -5 -2 -29 0.83 -0.12
 -5 2 -29 -0.82 -0.01
 -5 2 -27 0.40 -0.06
 -5 -2 -27 -0.40 -0.06
 -5 -2 -27 -0.40 -0.06
 -5 2 -25 0.03 0.01
 -5 -2 -25 -0.05 0.24
 -5 -2 -25 -0.05 0.24
 -5 2 -25 0.03 0.01
 -5 2 -23 -1.19 0.02
 -5 -2 -23 1.20 -0.26
 -5 2 -23 -1.19 0.02
 -5 -2 -23 1.20 -0.26
 -5 -2 -21 -3.96 0.18
 -5 2 -21 3.97 0.05
 -5 -2 -21 -3.96 0.18
 -5 2 -21 3.97 0.05
 -5 2 -19 -5.58 -0.10
 -5 -2 -19 5.56 -0.14
 -5 -2 -19 5.56 -0.14
 -5 2 -17 2.63 0.00
 -5 -2 -17 -2.62 0.15
 -5 -2 -17 -2.62 0.15
 -5 -2 -15 -2.62 -0.13
 -5 2 -15 2.62 0.16
 -5 2 -13 -3.86 -0.17
 -5 -2 -13 3.88 0.05
 -5 -2 -11 1.37 -0.01
 -5 2 -11 -1.41 -0.02
 -5 -2 -9 -9.52 0.06
 -5 2 -9 9.55 0.20
 -5 2 -7 -15.54 -0.24
 -5 -2 -7 15.55 -0.13
 -5 2 -5 16.21 0.24
 -5 -2 -5 -16.24 0.17
 -5 2 -3 -10.16 -0.30
 -5 2 -3 -10.16 -0.30
 -5 -2 -3 10.16 -0.25
 -5 2 -1 -0.59 0.35
 -5 2 -1 -0.59 0.35
 -5 -2 -1 0.66 0.49
 -5 2 1 9.30 -0.29
 -5 2 1 9.30 -0.29
 -5 -2 1 -9.42 -0.80
 -5 2 3 -9.93 0.16
 -5 2 5 4.17 -0.06
 -5 -2 5 -4.24 -0.54
 -5 -2 7 -0.64 0.07
 -5 2 7 0.68 0.03
 -5 -2 9 0.43 0.10
 -5 2 9 -0.44 -0.04
 -5 -2 11 2.88 0.05
 -5 2 11 -2.89 0.05
 -5 2 13 5.83 -0.03
 -5 -2 13 -5.82 -0.18
 -5 2 15 -6.71 -0.04
 -5 -2 15 6.71 0.06
 -5 -2 17 -4.55 0.09
 -5 2 17 4.54 0.07
 -5 -2 19 -0.64 -0.04
 -5 2 19 0.64 -0.01
 -5 -2 21 5.82 -0.14
 -5 2 21 -5.80 -0.07
 -5 -2 23 -6.61 0.19
 -5 2 23 6.61 0.09
 -5 -2 25 2.36 -0.06
 -5 2 25 -2.39 -0.06
 -5 -2 27 2.96 -0.12
 -5 2 27 -2.93 0.01
 -5 -2 29 -5.35 0.25
 -5 2 29 5.33 0.06
 -5 -2 31 4.39 -0.27
 -5 2 31 -4.38 -0.17
 -5 -2 33 -1.94 0.15
 -5 2 33 1.92 0.26
 -5 -2 35 -0.66 0.07
 -5 2 35 0.68 -0.27
 -5 -2 37 2.90 -0.21
 -5 2 37 -2.91 0.24
 -5 -2 39 -3.94 0.17
 -5 2 39 3.94 -0.22
 -5 3 -38 1.70 0.25
 -5 -3 -38 1.69 -0.12
 -5 3 -36 -3.92 -0.19
 -5 -3 -36 -3.93 0.14
 -5 3 -34 4.41 0.03
 -5 -3 -34 4.45 -0.06
 -5 3 -32 -2.40 0.07
 -5 -3 -32 -2.43 -0.14
 -5 3 -30 0.07 -0.06
 -5 -3 -30 0.07 0.28
 -5 -3 -30 0.07 0.28
 -5 3 -28 0.63 0.02
 -5 -3 -28 0.65 -0.18
 -5 -3 -28 0.65 -0.18
 -5 3 -26 -0.41 -0.06
 -5 -3 -26 -0.41 -0.03
 -5 -3 -26 -0.41 -0.03
 -5 -3 -24 0.13 0.11
 -5 3 -24 0.16 0.10
 -5 -3 -24 0.13 0.11
 -5 3 -22 0.82 -0.03
 -5 -3 -22 0.84 -0.01
 -5 3 -22 0.82 -0.03
 -5 -3 -22 0.84 -0.01
 -5 3 -20 -2.01 -0.09
 -5 -3 -20 -2.02 -0.07
 -5 -3 -20 -2.02 -0.07
 -5 3 -20 -2.01 -0.09
 -5 3 -18 0.63 0.06
 -5 -3 -18 0.63 -0.01
 -5 -3 -18 0.63 -0.01
 -5 3 -16 4.02 0.12
 -5 -3 -16 4.01 0.09
 -5 -3 -16 4.01 0.09
 -5 3 -14 -8.12 -0.22
 -5 -3 -14 -8.11 -0.01
 -5 -3 -12 7.78 -0.14
 -5 3 -12 7.77 0.08
 -5 3 -10 -2.98 0.13
 -5 -3 -10 -3.00 0.14
 -5 3 -8 -4.20 -0.19
 -5 -3 -8 -4.20 -0.01
 -5 3 -6 11.22 0.16
 -5 -3 -6 11.25 -0.06
 -5 3 -4 -13.43 -0.23
 -5 3 -4 -13.43 -0.23
 -5 -3 -4 -13.46 0.04
 -5 3 -2 6.91 0.41
 -5 -3 -2 6.87 -0.16
 -5 3 -2 6.91 0.41
 -5 3 0 4.53 -0.48
 -5 -3 0 4.66 0.58
 -5 3 0 4.53 -0.48
 -5 3 2 -10.61 0.34
 -5 3 4 6.44 -0.13
 -5 3 6 1.76 -0.02
 -5 -3 8 -5.53 -0.17
 -5 3 8 -5.52 0.09
 -5 -3 10 3.76 0.13
 -5 3 10 3.75 -0.11
 -5 -3 12 -0.43 0.12
 -5 3 12 -0.42 0.10
 -5 -3 14 -2.04 -0.14
 -5 3 14 -2.02 -0.07
 -5 3 16 3.09 0.04
 -5 -3 16 3.11 -0.07
 -5 -3 18 -1.95 0.09
 -5 3 18 -1.93 -0.02
 -5 3 20 -1.15 0.00
 -5 -3 20 -1.16 0.13
 -5 3 22 3.32 0.03
 -5 -3 22 3.35 -0.25
 -5 3 24 -2.33 -0.05
 -5 -3 24 -2.35 0.07
 -5 -3 26 -0.60 0.18
 -5 3 26 -0.58 0.01
 -5 -3 28 2.92 -0.24
 -5 3 28 2.89 0.08
 -5 -3 30 -3.93 0.14
 -5 3 30 -3.90 -0.16
 -5 3 32 4.18 0.16
 -5 -3 32 4.20 -0.04
 -5 3 34 -3.48 -0.08
 -5 -3 34 -3.49 -0.02
 -5 3 36 1.39 0.04
 -5 -3 36 1.38 0.08
 -5 3 38 1.11 -0.13
 -5 -3 38 1.12 -0.08
 -5 3 40 -2.10 0.22
 -5 4 -37 -0.92 -0.16
 -5 -4 -37 0.94 -0.07
 -5 4 -35 1.74 0.08
 -5 -4 -35 -1.76 0.12
 -5 4 -33 -2.13 0.00
 -5 -4 -33 2.14 -0.02
 -5 4 -31 0.91 -0.01
 -5 -4 -31 -0.90 -0.14
 -5 -4 -31 -0.90 -0.14
 -5 4 -29 0.70 0.00
 -5 -4 -29 -0.73 0.17
 -5 -4 -29 -0.73 0.17
 -5 -4 -27 1.44 -0.03
 -5 4 -27 -1.42 -0.04
 -5 -4 -27 1.44 -0.03
 -5 4 -25 1.62 0.12
 -5 -4 -25 -1.62 -0.06
 -5 -4 -25 -1.62 -0.06
 -5 4 -23 -1.69 -0.11
 -5 -4 -23 1.66 -0.07
 -5 -4 -23 1.66 -0.07
 -5 4 -21 1.36 0.00
 -5 -4 -21 -1.33 0.23
 -5 -4 -21 -1.33 0.23
 -5 4 -21 1.36 0.00
 -5 4 -19 -1.30 0.07
 -5 -4 -19 1.29 -0.18
 -5 -4 -19 1.29 -0.18
 -5 -4 -17 -2.55 0.01
 -5 4 -17 2.55 0.04
 -5 -4 -17 -2.55 0.01
 -5 4 -15 -4.43 -0.19
 -5 -4 -15 4.44 0.03
 -5 -4 -15 4.44 0.03
 -5 4 -13 5.69 0.16
 -5 -4 -13 -5.69 0.13
 -5 4 -11 -6.34 -0.01
 -5 -4 -11 6.34 -0.24
 -5 -4 -9 -5.75 0.13
 -5 4 -9 5.76 -0.05
 -5 4 -7 -1.58 -0.03
 -5 4 -7 -1.58 -0.03
 -5 -4 -7 1.56 0.01
 -5 4 -5 -5.30 0.04
 -5 4 -5 -5.30 0.04
 -5 -4 -5 5.32 0.07
 -5 4 -3 8.16 0.11
 -5 4 -3 8.16 0.11
 -5 -4 -3 -8.15 -0.22
 -5 4 -1 -2.54 -0.25
 -5 4 -1 -2.54 -0.25
 -5 -4 -1 2.47 0.06
 -5 4 1 -5.93 0.17
 -5 -4 1 6.06 0.40
 -5 4 1 -5.93 0.17
 -5 4 3 7.95 0.02
 -5 4 5 -2.55 -0.13
 -5 4 7 -3.36 0.13
 -5 4 9 5.26 -0.14
 -5 4 11 -4.55 0.20
 -5 -4 11 4.55 -0.04
 -5 4 13 3.31 -0.16
 -5 -4 13 -3.30 0.20
 -5 4 15 -1.66 0.00
 -5 -4 15 1.65 -0.05
 -5 4 17 0.09 0.15
 -5 -4 17 -0.08 -0.05
 -5 4 19 0.48 -0.18
 -5 -4 19 -0.47 -0.13
 -5 4 21 -0.60 0.15
 -5 -4 21 0.58 0.30
 -5 4 23 1.05 -0.14
 -5 -4 23 -1.02 -0.15
 -5 4 25 -0.75 0.15
 -5 -4 25 0.72 -0.07
 -5 4 27 -1.12 -0.06
 -5 -4 27 1.10 -0.08
 -5 4 29 2.41 -0.16
 -5 -4 29 -2.36 0.52
 -5 4 31 -0.63 0.30
 -5 -4 31 0.57 -0.75
 -5 -4 33 3.09 0.55
 -5 4 33 -3.06 -0.23
 -5 -4 35 -5.09 -0.23
 -5 4 35 5.10 0.04
 -5 4 37 -4.03 0.00
 -5 4 39 1.61 0.13
 -5 5 -36 -1.57 0.10
 -5 -5 -36 -1.55 -0.06
 -5 5 -34 1.88 -0.03
 -5 -5 -34 1.88 0.13
 -5 5 -32 -1.27 0.02
 -5 -5 -32 -1.27 -0.09
 -5 -5 -32 -1.27 -0.09
 -5 5 -30 1.28 -0.06
 -5 -5 -30 1.28 0.01
 -5 -5 -30 1.28 0.01
 -5 5 -28 -1.77 0.06
 -5 -5 -28 -1.78 -0.04
 -5 -5 -28 -1.78 -0.04
 -5 -5 -26 2.34 0.10
 -5 5 -26 2.33 0.02
 -5 -5 -26 2.34 0.10
 -5 -5 -24 -2.87 -0.04
 -5 5 -24 -2.87 -0.09
 -5 -5 -24 -2.87 -0.04
 -5 5 -22 2.82 0.05
 -5 -5 -22 2.80 -0.13
 -5 -5 -22 2.80 -0.13
 -5 -5 -20 -1.70 0.20
 -5 5 -20 -1.71 0.06
 -5 -5 -20 -1.70 0.20
 -5 5 -18 -0.06 -0.09
 -5 -5 -18 -0.05 -0.06
 -5 -5 -18 -0.05 -0.06
 -5 5 -18 -0.06 -0.09
 -5 5 -16 2.08 0.03
 -5 -5 -16 2.05 -0.09
 -5 -5 -16 2.05 -0.09
 -5 -5 -14 -3.83 0.02
 -5 5 -14 -3.86 0.02
 -5 -5 -14 -3.83 0.02
 -5 5 -12 3.31 0.02
 -5 -5 -12 3.31 0.13
 -5 -5 -12 3.31 0.13
 -5 5 -10 1.05 -0.03
 -5 -5 -10 1.03 -0.12
 -5 5 -8 -5.76 -0.07
 -5 5 -8 -5.76 -0.07
 -5 -5 -8 -5.75 -0.05
 -5 5 -6 5.05 0.17
 -5 5 -6 5.05 0.17
 -5 -5 -6 5.05 0.09
 -5 5 -4 0.78 -0.14
 -5 5 -4 0.78 -0.14
 -5 -5 -4 0.75 0.13
 -5 -5 -2 -4.63 -0.30
 -5 5 -2 -4.68 0.07
 -5 5 -2 -4.68 0.07
 -5 5 0 2.60 -0.14
 -5 5 0 2.60 -0.14
 -5 -5 0 2.53 0.11
 -5 5 2 1.56 0.32
 -5 -5 2 1.63 0.25
 -5 5 4 -2.65 -0.36
 -5 5 6 0.71 0.19
 -5 5 8 1.66 -0.03
 -5 5 8 1.66 -0.03
 -5 5 10 -3.51 0.08
 -5 5 12 4.51 -0.16
 -5 5 14 -3.85 0.05
 -5 5 16 1.98 0.19
 -5 -5 16 1.98 0.04
 -5 5 18 -0.21 -0.27
 -5 -5 18 -0.22 -0.02
 -5 -5 20 -1.69 -0.04
 -5 5 20 -1.68 0.10
 -5 5 22 4.13 0.09
 -5 -5 22 4.13 -0.16
 -5 5 24 -4.48 -0.09
 -5 -5 24 -4.48 0.37
 -5 5 26 -0.15 0.03
 -5 -5 26 -0.14 0.02
 -5 5 28 7.11 -0.15
 -5 -5 28 7.07 -1.01
 -5 -5 30 -9.73 1.78
 -5 5 30 -9.82 0.40
 -5 -5 32 5.63 -1.65
 -5 5 32 5.72 -0.49
 -5 -5 34 1.05 0.90
 -5 5 34 1.01 0.28
 -5 5 36 -5.12 -0.02
 -5 5 38 5.35 -0.02
 -5 6 -35 4.82 -0.03
 -5 -6 -35 -4.83 -0.07
 -5 6 -33 -4.40 -0.01
 -5 -6 -33 4.41 0.12
 -5 -6 -33 4.41 0.12
 -5 6 -31 2.10 -0.04
 -5 -6 -31 -2.09 -0.05
 -5 -6 -31 -2.09 -0.05
 -5 6 -29 -0.18 0.08
 -5 -6 -29 0.16 -0.04
 -5 -6 -29 0.16 -0.04
 -5 -6 -27 0.04 0.03
 -5 6 -27 -0.03 -0.05
 -5 -6 -27 0.04 0.03
 -5 6 -25 -1.46 -0.03
 -5 -6 -25 1.46 0.02
 -5 -6 -25 1.46 0.02
 -5 -6 -23 -3.02 0.00
 -5 6 -23 3.02 0.06
 -5 -6 -23 -3.02 0.00
 -5 6 -21 -2.65 0.00
 -5 -6 -21 2.64 -0.07
 -5 -6 -21 2.64 -0.07
 -5 6 -19 0.11 -0.11
 -5 6 -19 0.11 -0.11
 -5 -6 -19 -0.11 0.05
 -5 -6 -19 -0.11 0.05
 -5 6 -17 3.56 0.17
 -5 -6 -17 -3.55 0.06
 -5 6 -17 3.56 0.17
 -5 -6 -17 -3.55 0.06
 -5 6 -15 -7.59 -0.16
 -5 6 -15 -7.59 -0.16
 -5 -6 -15 7.57 -0.09
 -5 -6 -15 7.57 -0.09
 -5 6 -13 10.27 0.13
 -5 6 -13 10.27 0.13
 -5 -6 -13 -10.26 -0.03
 -5 -6 -13 -10.26 -0.03
 -5 6 -11 -8.16 -0.09
 -5 6 -11 -8.16 -0.09
 -5 -6 -11 8.17 0.14
 -5 -6 -11 8.17 0.14
 -5 6 -9 0.51 0.01
 -5 6 -9 0.51 0.01
 -5 6 -9 0.51 0.01
 -5 -6 -9 -0.53 -0.04
 -5 -6 -7 -6.99 -0.13
 -5 6 -7 6.98 0.08
 -5 6 -7 6.98 0.08
 -5 6 -7 6.98 0.08
 -5 6 -5 -7.57 -0.11
 -5 6 -5 -7.57 -0.11
 -5 -6 -5 7.61 0.10
 -5 6 -3 1.70 0.10
 -5 6 -3 1.70 0.10
 -5 -6 -3 -1.74 0.12
 -5 6 -1 4.05 -0.19
 -5 6 -1 4.05 -0.19
 -5 -6 -1 -4.03 -0.20
 -5 6 1 -5.21 0.39
 -5 -6 1 5.19 0.01
 -5 6 1 -5.21 0.39
 -5 6 3 2.80 -0.50
 -5 -6 3 -2.77 0.20
 -5 6 5 0.08 0.33
 -5 6 7 -1.14 -0.05
 -5 6 7 -1.14 -0.05
 -5 6 9 -0.36 -0.03
 -5 6 9 -0.36 -0.03
 -5 6 11 2.75 -0.10
 -5 6 13 -3.15 0.17
 -5 6 15 1.14 -0.03
 -5 6 17 0.98 -0.06
 -5 6 19 -2.60 -0.17
 -5 6 21 5.35 0.59
 -5 -6 23 8.03 -1.09
 -5 6 23 -7.97 -0.79
 -5 6 25 5.65 0.64
 -5 -6 25 -5.69 0.81
 -5 6 27 2.74 -0.45
 -5 -6 27 -2.71 0.38
 -5 6 29 -11.12 0.47
 -5 -6 29 11.06 -1.75
 -5 6 31 12.85 -0.56
 -5 -6 31 -12.76 2.21
 -5 6 33 -7.97 0.43
 -5 -6 33 7.90 -1.57
 -5 6 35 1.35 -0.09
 -5 6 37 3.19 -0.14
 -5 7 -34 -4.10 -0.04
 -5 -7 -34 -4.13 -0.04
 -5 -7 -34 -4.13 -0.04
 -5 7 -32 1.54 0.01
 -5 -7 -32 1.55 0.00
 -5 -7 -32 1.55 0.00
 -5 7 -30 2.31 0.05
 -5 -7 -30 2.34 0.16
 -5 -7 -30 2.34 0.16
 -5 -7 -28 -4.51 -0.28
 -5 -7 -28 -4.51 -0.28
 -5 7 -26 3.15 0.00
 -5 -7 -26 3.17 0.20
 -5 -7 -26 3.17 0.20
 -5 7 -24 0.52 0.03
 -5 -7 -24 0.53 -0.03
 -5 -7 -24 0.53 -0.03
 -5 7 -22 -3.21 -0.01
 -5 -7 -22 -3.21 -0.04
 -5 -7 -22 -3.21 -0.04
 -5 7 -20 2.80 -0.05
 -5 -7 -20 2.79 -0.01
 -5 -7 -20 2.79 -0.01
 -5 7 -18 -0.20 0.09
 -5 -7 -18 -0.18 0.03
 -5 -7 -18 -0.18 0.03
 -5 7 -16 -3.09 -0.10
 -5 -7 -16 -3.10 0.01
 -5 7 -16 -3.09 -0.10
 -5 -7 -16 -3.10 0.01
 -5 7 -14 6.45 0.08
 -5 -7 -14 6.47 0.03
 -5 -7 -14 6.47 0.03
 -5 7 -14 6.45 0.08
 -5 7 -12 -8.09 -0.05
 -5 -7 -12 -8.12 -0.16
 -5 7 -12 -8.09 -0.05
 -5 -7 -12 -8.12 -0.16
 -5 7 -10 4.99 0.03
 -5 -7 -10 5.03 0.21
 -5 7 -10 4.99 0.03
 -5 7 -10 4.99 0.03
 -5 -7 -10 5.03 0.21
 -5 7 -8 2.32 -0.02
 -5 -7 -8 2.31 -0.07
 -5 7 -8 2.32 -0.02
 -5 -7 -8 2.31 -0.07
 -5 7 -6 -8.11 0.02
 -5 7 -6 -8.11 0.02
 -5 -7 -6 -8.14 -0.08
 -5 7 -4 7.41 -0.06
 -5 7 -4 7.41 -0.06
 -5 -7 -4 7.44 0.04
 -5 -7 -2 -1.65 0.10
 -5 7 -2 -1.65 0.05
 -5 7 -2 -1.65 0.05
 -5 -7 0 -3.66 -0.09
 -5 7 0 -3.64 0.08
 -5 7 0 -3.64 0.08
 -5 -7 2 4.73 -0.10
 -5 7 2 4.73 -0.26
 -5 7 2 4.73 -0.26
 -5 -7 4 -2.03 0.22
 -5 7 4 -2.05 0.31
 -5 7 4 -2.05 0.31
 -5 7 6 -1.16 -0.17
 -5 7 6 -1.16 -0.17
 -5 7 8 1.63 0.04
 -5 7 8 1.63 0.04
 -5 7 10 0.67 -0.09
 -5 7 12 -2.24 0.23
 -5 7 14 0.58 -0.24
 -5 7 16 2.44 0.16
 -5 7 18 -4.10 -0.25
 -5 7 20 5.08 0.58
 -5 7 22 -6.80 -0.85
 -5 7 24 7.16 0.82
 -5 7 26 -3.14 -0.61
 -5 7 28 -3.84 0.46
 -5 7 30 9.12 -0.43
 -5 7 32 -10.20 0.31
 -5 7 34 7.88 -0.05
 -5 7 36 -3.76 -0.19
 -5 8 -33 0.25 -0.03
 -5 -8 -33 -0.29 -0.03
 -5 -8 -33 -0.29 -0.03
 -5 8 -31 2.84 0.07
 -5 -8 -31 -2.84 -0.08
 -5 -8 -31 -2.84 -0.08
 -5 8 -29 -5.76 -0.05
 -5 -8 -29 5.79 0.29
 -5 -8 -29 5.79 0.29
 -5 8 -27 6.14 -0.02
 -5 -8 -27 -6.18 -0.33
 -5 -8 -27 -6.18 -0.33
 -5 8 -25 -3.25 0.03
 -5 -8 -25 3.26 0.13
 -5 -8 -25 3.26 0.13
 -5 -8 -23 0.86 0.08
 -5 -8 -23 0.86 0.08
 -5 8 -23 -0.85 0.01
 -5 8 -21 3.14 -0.02
 -5 -8 -21 -3.14 -0.07
 -5 -8 -21 -3.14 -0.07
 -5 8 -19 -2.90 -0.03
 -5 -8 -19 2.88 -0.05
 -5 -8 -19 2.88 -0.05
 -5 8 -17 1.65 0.09
 -5 -8 -17 -1.62 0.09
 -5 -8 -17 -1.62 0.09
 -5 8 -15 -0.21 -0.12
 -5 -8 -15 0.18 -0.06
 -5 -8 -15 0.18 -0.06
 -5 8 -15 -0.21 -0.12
 -5 8 -13 -1.56 0.07
 -5 -8 -13 1.59 0.11
 -5 -8 -13 1.59 0.11
 -5 8 -13 -1.56 0.07
 -5 8 -11 2.45 0.00
 -5 -8 -11 -2.48 -0.22
 -5 8 -11 2.45 0.00
 -5 -8 -11 -2.48 -0.22
 -5 8 -9 -0.64 -0.07
 -5 8 -9 -0.64 -0.07
 -5 -8 -9 0.65 0.21
 -5 -8 -9 0.65 0.21
 -5 8 -7 -2.93 0.12
 -5 -8 -7 2.96 -0.03
 -5 8 -7 -2.93 0.12
 -5 -8 -7 2.96 -0.03
 -5 8 -5 4.75 -0.15
 -5 -8 -5 -4.78 -0.08
 -5 8 -5 4.75 -0.15
 -5 -8 -5 -4.78 -0.08
 -5 8 -3 -2.90 0.19
 -5 -8 -3 2.89 0.01
 -5 8 -3 -2.90 0.19
 -5 8 -1 -0.84 -0.19
 -5 8 -1 -0.84 -0.19
 -5 -8 -1 0.90 0.07
 -5 8 1 3.26 0.09
 -5 -8 1 -3.30 0.03
 -5 8 1 3.26 0.09
 -5 -8 3 2.68 -0.23
 -5 8 3 -2.69 0.08
 -5 8 3 -2.69 0.08
 -5 8 3 -2.69 0.08
 -5 8 5 0.22 -0.18
 -5 -8 5 -0.18 0.28
 -5 8 5 0.22 -0.18
 -5 8 7 1.24 0.17
 -5 8 7 1.24 0.17
 -5 8 9 0.07 -0.16
 -5 8 9 0.07 -0.16
 -5 8 11 -2.19 0.21
 -5 8 13 1.72 -0.26
 -5 8 15 1.43 0.21
 -5 8 17 -3.89 -0.12
 -5 8 19 3.59 0.08
 -5 8 21 -1.82 -0.05
 -5 8 23 0.24 -0.04
 -5 8 25 1.00 0.07
 -5 8 27 -2.07 0.04
 -5 8 29 3.01 -0.19
 -5 8 31 -4.52 0.15
 -5 8 33 6.61 0.05
 -5 8 35 -7.13 -0.20
 -5 9 -32 0.84 0.14
 -5 -9 -32 0.80 -0.08
 -5 -9 -32 0.80 -0.08
 -5 9 -30 -2.18 -0.08
 -5 -9 -30 -2.19 -0.04
 -5 -9 -30 -2.19 -0.04
 -5 -9 -28 3.27 0.19
 -5 9 -28 3.24 -0.03
 -5 -9 -28 3.27 0.19
 -5 -9 -26 -3.11 -0.14
 -5 9 -26 -3.10 0.08
 -5 -9 -26 -3.11 -0.14
 -5 9 -24 1.52 -0.02
 -5 -9 -24 1.50 -0.06
 -5 -9 -24 1.50 -0.06
 -5 9 -22 0.41 -0.01
 -5 -9 -22 0.43 0.13
 -5 -9 -22 0.43 0.13
 -5 9 -20 -1.49 -0.09
 -5 -9 -20 -1.49 0.01
 -5 -9 -20 -1.49 0.01
 -5 9 -18 2.01 0.24
 -5 -9 -18 2.00 -0.15
 -5 -9 -18 2.00 -0.15
 -5 9 -16 -2.72 -0.29
 -5 -9 -16 -2.72 0.12
 -5 -9 -16 -2.72 0.12
 -5 9 -14 3.20 0.20
 -5 -9 -14 3.19 -0.05
 -5 -9 -14 3.19 -0.05
 -5 9 -12 -2.61 -0.04
 -5 -9 -12 -2.58 0.08
 -5 -9 -12 -2.58 0.08
 -5 -9 -10 1.43 -0.14
 -5 9 -10 1.44 -0.11
 -5 9 -10 1.44 -0.11
 -5 -9 -10 1.43 -0.14
 -5 -9 -8 -0.82 0.06
 -5 9 -8 -0.80 0.18
 -5 -9 -8 -0.82 0.06
 -5 9 -8 -0.80 0.18
 -5 9 -6 0.60 -0.16
 -5 9 -6 0.60 -0.16
 -5 -9 -6 0.64 0.09
 -5 -9 -6 0.64 0.09
 -5 9 -4 0.16 0.10
 -5 9 -4 0.16 0.10
 -5 -9 -4 0.15 -0.09
 -5 -9 -4 0.15 -0.09
 -5 9 -2 -1.71 -0.08
 -5 9 -2 -1.71 -0.08
 -5 -9 -2 -1.77 -0.02
 -5 -9 -2 -1.77 -0.02
 -5 -9 0 3.06 0.03
 -5 9 0 3.00 0.09
 -5 9 0 3.00 0.09
 -5 9 0 3.00 0.09
 -5 -9 2 -2.72 0.14
 -5 9 2 -2.71 -0.05
 -5 9 2 -2.71 -0.05
 -5 9 2 -2.71 -0.05
 -5 9 4 0.77 -0.08
 -5 -9 4 0.74 -0.30
 -5 9 4 0.77 -0.08
 -5 9 4 0.77 -0.08
 -5 9 6 1.00 0.18
 -5 9 6 1.00 0.18
 -5 -9 6 1.03 0.23
 -5 9 8 -0.59 -0.18
 -5 9 8 -0.59 -0.18
 -5 9 10 -1.46 0.16
 -5 9 10 -1.46 0.16
 -5 9 12 2.16 -0.16
 -5 9 14 -0.09 0.17
 -5 9 16 -2.43 -0.12
 -5 9 18 2.12 -0.04
 -5 9 20 1.60 0.37
 -5 9 22 -6.54 -0.74
 -5 9 24 9.72 0.85
 -5 9 26 -8.97 -0.52
 -5 9 28 4.77 0.00
 -5 9 30 -0.96 0.22
 -5 9 32 1.10 -0.07
 -5 9 34 -3.80 -0.12
 -5 10 -31 1.75 -0.08
 -5 -10 -31 -1.78 -0.16
 -5 -10 -31 -1.78 -0.16
 -5 10 -29 -2.03 -0.03
 -5 -10 -29 2.04 0.06
 -5 -10 -29 2.04 0.06
 -5 10 -27 1.22 0.08
 -5 -10 -27 -1.23 0.04
 -5 -10 -27 -1.23 0.04
 -5 10 -25 0.25 -0.02
 -5 -10 -25 -0.22 0.03
 -5 -10 -25 -0.22 0.03
 -5 10 -23 -1.20 -0.02
 -5 -10 -23 1.16 -0.12
 -5 -10 -23 1.16 -0.12
 -5 -10 -21 -1.08 0.04
 -5 10 -21 1.09 -0.09
 -5 -10 -21 -1.08 0.04
 -5 10 -19 -0.01 0.27
 -5 -10 -19 0.01 0.14
 -5 -10 -19 0.01 0.14
 -5 10 -17 -1.98 -0.33
 -5 -10 -17 1.99 -0.20
 -5 -10 -17 1.99 -0.20
 -5 -10 -15 -4.41 0.09
 -5 -10 -15 -4.41 0.09
 -5 10 -15 4.41 0.24
 -5 10 -13 -5.91 -0.08
 -5 -10 -13 5.88 0.00
 -5 -10 -13 5.88 0.00
 -5 10 -11 5.38 -0.06
 -5 10 -11 5.38 -0.06
 -5 -10 -11 -5.35 0.02
 -5 -10 -11 -5.35 0.02
 -5 -10 -9 3.34 -0.03
 -5 10 -9 -3.34 0.17
 -5 10 -9 -3.34 0.17
 -5 -10 -9 3.34 -0.03
 -5 10 -7 1.30 -0.19
 -5 -10 -7 -1.34 -0.04
 -5 -10 -7 -1.34 -0.04
 -5 10 -7 1.30 -0.19
 -5 10 -5 -0.07 0.05
 -5 -10 -5 0.10 0.09
 -5 -10 -5 0.10 0.09
 -5 10 -5 -0.07 0.05
 -5 -10 -3 0.77 -0.01
 -5 -10 -3 0.77 -0.01
 -5 10 -3 -0.74 0.13
 -5 -10 -1 -1.50 -0.09
 -5 -10 -1 -1.50 -0.09
 -5 10 -1 1.44 -0.15
 -5 10 1 -1.28 0.03
 -5 -10 1 1.32 0.04
 -5 10 1 -1.28 0.03
 -5 -10 1 1.32 0.04
 -5 10 1 -1.28 0.03
 -5 -10 3 0.47 0.14
 -5 10 3 -0.47 0.06
 -5 10 3 -0.47 0.06
 -5 10 3 -0.47 0.06
 -5 -10 3 0.47 0.14
 -5 -10 5 -2.74 -0.22
 -5 10 5 2.72 -0.03
 -5 10 5 2.72 -0.03
 -5 10 5 2.72 -0.03
 -5 10 7 -3.25 -0.04
 -5 -10 7 3.24 0.09
 -5 10 7 -3.25 -0.04
 -5 10 9 1.61 0.05
 -5 10 9 1.61 0.05
 -5 10 11 -0.15 -0.03
 -5 10 13 0.76 0.05
 -5 10 15 -2.21 -0.11
 -5 10 17 1.89 0.13
 -5 10 19 1.02 0.03
 -5 10 21 -5.46 -0.40
 -5 10 23 9.64 0.70
 -5 10 25 -11.11 -0.54
 -5 10 27 8.01 -0.02
 -5 10 29 -2.12 0.46
 -5 10 31 -1.69 -0.41
 -5 10 33 1.01 0.12
 -5 -11 -30 -4.25 -0.19
 -5 -11 -30 -4.25 -0.19
 -5 -11 -28 4.98 0.11
 -5 -11 -28 4.98 0.11
 -5 -11 -26 -3.27 -0.05
 -5 -11 -26 -3.27 -0.05
 -5 -11 -24 0.22 0.09
 -5 -11 -24 0.22 0.09
 -5 -11 -22 1.84 -0.09
 -5 -11 -22 1.84 -0.09
 -5 -11 -20 -1.74 -0.05
 -5 -11 -20 -1.74 -0.05
 -5 -11 -18 -0.12 0.21
 -5 -11 -18 -0.12 0.21
 -5 11 -16 2.77 0.16
 -5 -11 -16 2.78 -0.20
 -5 -11 -16 2.78 -0.20
 -5 11 -14 -5.15 -0.05
 -5 -11 -14 -5.13 0.06
 -5 -11 -14 -5.13 0.06
 -5 -11 -12 5.80 0.03
 -5 -11 -12 5.80 0.03
 -5 11 -12 5.84 0.01
 -5 -11 -10 -4.25 0.00
 -5 11 -10 -4.28 0.04
 -5 -11 -10 -4.25 0.00
 -5 11 -10 -4.28 0.04
 -5 11 -8 1.83 -0.13
 -5 -11 -8 1.85 -0.03
 -5 -11 -8 1.85 -0.03
 -5 -11 -6 -0.67 0.02
 -5 11 -6 -0.62 0.10
 -5 -11 -6 -0.67 0.02
 -5 -11 -4 1.08 -0.04
 -5 -11 -4 1.08 -0.04
 -5 11 -4 1.07 0.11
 -5 -11 -2 -1.60 0.12
 -5 11 -2 -1.65 -0.25
 -5 -11 -2 -1.60 0.12
 -5 11 0 1.46 0.12
 -5 -11 0 1.41 -0.17
 -5 -11 0 1.41 -0.17
 -5 11 2 -1.48 0.14
 -5 -11 2 -1.46 0.08
 -5 -11 2 -1.46 0.08
 -5 -11 4 2.42 0.12
 -5 11 4 2.42 -0.24
 -5 -11 4 2.42 0.12
 -5 -11 6 -3.16 -0.22
 -5 11 6 -3.17 0.13
 -5 11 6 -3.17 0.13
 -5 -11 6 -3.16 -0.22
 -5 -11 8 2.68 0.11
 -5 11 8 2.70 0.03
 -5 -11 8 2.68 0.11
 -5 11 10 -2.02 -0.08
 -5 -11 10 -2.03 0.13
 -5 11 12 2.42 0.06
 -5 -11 12 2.45 -0.24
 -5 11 14 -2.95 -0.05
 -5 -11 14 -2.95 0.14
 -5 11 16 2.06 0.11
 -5 -11 16 2.01 0.00
 -5 11 18 -0.37 -0.15
 -5 -11 18 -0.33 -0.04
 -5 11 20 -0.63 0.07
 -5 -11 20 -0.64 0.10
 -5 11 22 1.45 0.13
 -5 11 24 -3.07 -0.18
 -5 11 26 4.00 -0.08
 -5 11 28 -2.05 0.44
 -5 11 30 -1.38 -0.51
 -5 11 32 2.63 0.28
 -5 -12 -27 5.92 0.08
 -5 -12 -27 5.92 0.08
 -5 -12 -25 -3.36 -0.06
 -5 -12 -25 -3.36 -0.06
 -5 -12 -23 -0.20 0.10
 -5 -12 -23 -0.20 0.10
 -5 -12 -21 1.73 -0.07
 -5 -12 -21 1.73 -0.07
 -5 -12 -19 -0.87 -0.10
 -5 -12 -19 -0.87 -0.10
 -5 -12 -17 -0.64 0.25
 -5 -12 -17 -0.64 0.25
 -5 -12 -15 1.50 -0.21
 -5 -12 -15 1.50 -0.21
 -5 -12 -13 -1.42 0.05
 -5 -12 -13 -1.42 0.05
 -5 -12 -11 0.13 0.03
 -5 -12 -11 0.13 0.03
 -5 -12 -9 2.06 0.02
 -5 -12 -9 2.06 0.02
 -5 -12 -7 -3.32 -0.09
 -5 12 -7 3.36 0.07
 -5 -12 -7 -3.32 -0.09
 -5 -12 -5 1.91 0.11
 -5 12 -5 -1.94 0.02
 -5 -12 -5 1.91 0.11
 -5 -12 -3 1.13 -0.12
 -5 12 -3 -1.14 -0.20
 -5 -12 -3 1.13 -0.12
 -5 12 -1 2.93 0.18
 -5 -12 -1 -2.89 0.16
 -5 -12 -1 -2.89 0.16
 -5 12 1 -2.06 0.05
 -5 -12 1 2.03 -0.18
 -5 -12 1 2.03 -0.18
 -5 12 3 -0.09 -0.18
 -5 -12 3 0.10 0.06
 -5 -12 5 -1.72 0.19
 -5 12 5 1.74 0.02
 -5 -12 5 -1.72 0.19
 -5 12 7 -2.07 0.24
 -5 -12 7 2.05 -0.34
 -5 -12 7 2.05 -0.34
 -5 -12 9 -0.72 0.19
 -5 12 9 0.75 -0.35
 -5 -12 9 -0.72 0.19
 -5 12 11 1.64 0.32
 -5 -12 11 -1.69 0.11
 -5 12 13 -2.90 -0.25
 -5 -12 13 2.95 -0.22
 -5 12 15 1.48 0.17
 -5 -12 15 -1.47 0.08
 -5 12 17 0.58 -0.09
 -5 -12 17 -0.63 0.05
 -5 12 19 0.23 0.01
 -5 -12 19 -0.19 0.02
 -5 12 21 -3.42 0.05
 -5 12 23 4.80 -0.07
 -5 12 25 -2.72 0.00
 -5 12 27 0.38 0.14
 -5 12 29 -0.59 -0.20
 -5 -13 -26 5.70 0.00
 -5 -13 -26 5.70 0.00
 -5 -13 -24 -2.65 -0.03
 -5 -13 -24 -2.65 -0.03
 -5 -13 -22 0.10 0.11
 -5 -13 -22 0.10 0.11
 -5 -13 -20 -0.52 -0.04
 -5 -13 -20 -0.52 -0.04
 -5 -13 -18 1.87 -0.16
 -5 -13 -18 1.87 -0.16
 -5 -13 -16 -1.12 0.28
 -5 -13 -16 -1.12 0.28
 -5 -13 -14 -1.71 -0.19
 -5 -13 -14 -1.71 -0.19
 -5 -13 -12 4.60 0.02
 -5 -13 -12 4.60 0.02
 -5 -13 -10 -6.68 0.03
 -5 -13 -10 -6.68 0.03
 -5 -13 -8 7.77 0.05
 -5 -13 -8 7.77 0.05
 -5 13 -6 -6.74 0.07
 -5 -13 -6 -6.72 -0.13
 -5 -13 -6 -6.72 -0.13
 -5 -13 -4 2.79 0.12
 -5 13 -4 2.80 -0.21
 -5 -13 -4 2.79 0.12
 -5 13 -2 1.86 0.26
 -5 -13 -2 1.85 -0.10
 -5 -13 -2 1.85 -0.10
 -5 -13 0 -3.62 0.15
 -5 13 0 -3.62 -0.12
 -5 -13 0 -3.62 0.15
 -5 13 2 1.29 0.05
 -5 -13 2 1.31 -0.17
 -5 -13 2 1.31 -0.17
 -5 13 4 2.88 -0.24
 -5 -13 4 2.83 0.01
 -5 -13 4 2.83 0.01
 -5 -13 6 -5.31 0.24
 -5 13 6 -5.37 0.44
 -5 -13 6 -5.31 0.24
 -5 -13 8 4.07 -0.33
 -5 13 8 4.11 -0.39
 -5 -13 8 4.07 -0.33
 -5 -13 10 -0.05 0.09
 -5 13 10 -0.08 0.19
 -5 -13 10 -0.05 0.09
 -5 -13 12 -2.95 0.20
 -5 13 12 -2.92 -0.16
 -5 -13 12 -2.95 0.20
 -5 13 14 1.74 0.26
 -5 -13 14 1.78 -0.22
 -5 13 16 1.93 -0.24
 -5 -13 16 1.91 0.00
 -5 13 18 -2.94 0.01
 -5 -13 18 -2.96 0.13
 -5 13 20 -0.52 0.19
 -5 13 22 4.30 -0.21
 -5 13 24 -4.09 0.11
 -5 13 26 1.27 -0.04
 -5 13 28 0.02 0.07
 -5 -14 -23 -1.41 -0.02
 -5 -14 -21 1.72 0.10
 -5 -14 -19 -4.50 0.00
 -5 -14 -17 5.05 -0.18
 -5 -14 -15 -1.08 0.23
 -5 -14 -13 -4.32 -0.09
 -5 -14 -11 7.47 -0.05
 -5 -14 -9 -8.16 0.03
 -5 -14 -7 7.58 0.07
 -5 14 -5 5.35 -0.26
 -5 -14 -5 -5.37 -0.12
 -5 -14 -3 1.16 0.08
 -5 14 -3 -1.16 0.31
 -5 14 -1 -2.98 -0.20
 -5 -14 -1 2.99 -0.06
 -5 14 1 4.11 0.11
 -5 -14 1 -4.14 0.12
 -5 14 3 -1.71 -0.25
 -5 -14 3 1.76 -0.13
 -5 14 5 -1.66 0.34
 -5 -14 5 1.60 -0.04
 -5 14 7 2.60 0.07
 -5 -14 7 -2.61 0.26
 -5 14 9 -0.05 -0.79
 -5 -14 9 0.17 -0.28
 -5 14 11 -3.31 1.10
 -5 -14 11 3.14 0.05
 -5 14 13 3.31 -0.68
 -5 -14 13 -3.22 0.17
 -5 14 15 0.71 0.06
 -5 -14 15 -0.69 -0.16
 -5 14 17 -4.55 0.14
 -5 -14 17 4.51 0.00
 -5 14 19 4.25 0.08
 -5 14 21 -1.10 -0.23
 -5 14 23 -0.64 0.12
 -5 14 25 -0.10 0.03
 -5 -15 -20 3.28 0.10
 -5 -15 -18 -6.06 0.00
 -5 -15 -16 4.29 -0.11
 -5 -15 -14 1.01 0.09
 -5 -15 -12 -4.98 0.02
 -5 -15 -10 5.53 -0.08
 -5 -15 -8 -4.77 0.01
 -5 -15 -6 4.39 0.09
 -5 -15 -4 -3.54 -0.09
 -5 15 -2 1.30 -0.19
 -5 -15 -2 1.29 0.01
 -5 15 0 1.27 0.02
 -5 -15 0 1.29 0.00
 -5 15 2 -2.40 -0.06
 -5 -15 2 -2.43 0.05
 -5 15 4 1.54 0.10
 -5 -15 4 1.57 -0.02
 -5 15 6 0.10 0.45
 -5 -15 6 0.16 -0.18
 -5 15 8 -0.56 -1.66
 -5 -15 8 -0.81 0.41
 -5 15 10 -0.76 2.64
 -5 -15 10 -0.34 -0.43
 -5 15 12 1.91 -2.47
 -5 -15 12 1.51 0.23
 -5 -15 14 -0.28 0.00
 -5 15 14 -0.47 1.34
 -5 15 16 -2.98 -0.29
 -5 -15 16 -2.98 -0.09
 -5 15 18 5.20 -0.04
 -5 15 20 -4.50 -0.06
 -5 15 22 2.51 0.05
 -5 -16 -15 -0.36 -0.02
 -5 -16 -13 2.97 -0.02
 -5 -16 -11 -2.70 0.07
 -5 -16 -9 1.16 -0.05
 -5 -16 -7 -0.99 -0.05
 -5 -16 -5 2.23 0.10
 -5 -16 -3 -3.12 -0.03
 -5 -16 -1 2.64 -0.06
 -5 16 1 1.13 0.06
 -5 -16 1 -1.14 0.05
 -5 16 3 0.20 0.03
 -5 -16 3 -0.19 0.00
 -5 16 5 0.06 0.24
 -5 -16 5 -0.10 0.07
 -5 16 7 -2.01 -1.30
 -5 -16 7 2.20 -0.31
 -5 16 9 3.71 2.66
 -5 -16 9 -4.13 0.53
 -5 16 11 -3.41 -3.20
 -5 -16 11 3.93 -0.52
 -5 16 13 2.01 2.42
 -5 -16 13 -2.39 0.29
 -5 16 15 -1.80 -1.04
 -5 16 17 3.09 0.10
 -5 -17 -10 1.03 0.05
 -5 -17 -8 -1.77 0.02
 -5 -17 -6 0.66 -0.08
 -5 -17 -4 0.75 0.06
 -5 -17 -2 -1.54 0.04
 -5 -17 0 1.47 -0.09
 -5 17 2 -0.39 0.00
 -5 -17 2 -0.41 0.02
 -5 17 4 -0.56 -0.11
 -5 -17 4 -0.54 0.04
 -5 17 6 -0.58 -0.28
 -5 -17 6 -0.62 0.05
 -5 -17 8 3.86 -0.26
 -5 17 8 3.69 1.25
 -5 17 10 -5.81 -2.09
 -5 -17 10 -6.13 0.39
 -5 17 12 4.80 2.03
 -5 -17 12 5.12 -0.31
 -4 0 -38 -1.42 0.21
 -4 0 -36 -1.89 -0.21
 -4 0 -34 3.23 0.04
 -4 0 -32 -3.47 0.06
 -4 0 -30 5.07 0.03
 -4 0 -28 -6.83 -0.15
 -4 0 -28 -6.83 -0.15
 -4 0 -26 3.91 0.10
 -4 0 -26 3.91 0.10
 -4 0 -24 4.32 0.01
 -4 0 -24 4.32 0.01
 -4 0 -22 -10.40 0.03
 -4 0 -22 -10.40 0.03
 -4 0 -20 7.68 -0.21
 -4 0 -20 7.68 -0.21
 -4 0 -18 0.35 0.27
 -4 0 -18 0.35 0.27
 -4 0 -16 -5.34 -0.09
 -4 0 -16 -5.34 -0.09
 -4 0 -14 5.05 -0.11
 -4 0 -12 -2.51 0.11
 -4 0 -10 -1.26 0.04
 -4 0 -8 4.79 -0.13
 -4 0 -6 -0.94 0.11
 -4 0 -4 -14.73 -0.09
 -4 0 -2 32.68 0.11
 -4 0 0 -37.95 -0.04
 -4 0 0 -37.95 -0.04
 -4 0 2 29.01 -0.14
 -4 0 4 -17.48 0.23
 -4 0 6 10.36 -0.10
 -4 0 8 -4.17 -0.10
 -4 0 10 -3.57 0.09
 -4 0 12 9.12 0.09
 -4 0 14 -10.98 -0.20
 -4 0 16 13.12 0.12
 -4 0 18 -16.54 0.01
 -4 0 20 16.05 -0.05
 -4 0 22 -9.03 0.03
 -4 0 24 0.78 -0.06
 -4 0 26 2.71 0.12
 -4 0 28 -2.14 -0.12
 -4 0 30 1.50 0.11
 -4 0 32 -1.21 -0.14
 -4 0 34 -1.29 0.16
 -4 0 36 5.70 -0.08
 -4 0 38 -7.89 -0.07
 -4 0 40 5.18 0.16
 -4 1 -39 -1.38 0.04
 -4 -1 -39 1.38 -0.15
 -4 1 -37 -1.23 -0.12
 -4 -1 -37 1.24 0.26
 -4 1 -35 2.91 0.08
 -4 -1 -35 -2.93 -0.09
 -4 1 -33 -3.13 -0.02
 -4 -1 -33 3.14 -0.12
 -4 1 -31 3.63 0.05
 -4 -1 -31 -3.63 0.11
 -4 1 -29 -5.32 -0.14
 -4 -1 -29 5.31 0.07
 -4 -1 -29 5.31 0.07
 -4 1 -27 5.29 0.16
 -4 -1 -27 -5.28 -0.11
 -4 1 -27 5.29 0.16
 -4 -1 -27 -5.28 -0.11
 -4 1 -25 -0.36 -0.08
 -4 -1 -25 0.35 -0.02
 -4 1 -25 -0.36 -0.08
 -4 -1 -25 0.35 -0.02
 -4 1 -23 -6.45 0.03
 -4 -1 -23 6.46 0.03
 -4 -1 -23 6.46 0.03
 -4 1 -23 -6.45 0.03
 -4 1 -21 7.92 -0.07
 -4 1 -21 7.92 -0.07
 -4 -1 -21 -7.92 0.22
 -4 -1 -21 -7.92 0.22
 -4 -1 -19 2.19 -0.46
 -4 1 -19 -2.19 0.07
 -4 -1 -19 2.19 -0.46
 -4 1 -19 -2.19 0.07
 -4 1 -17 -4.56 0.06
 -4 -1 -17 4.56 0.37
 -4 -1 -17 4.56 0.37
 -4 1 -17 -4.56 0.06
 -4 1 -15 6.84 -0.24
 -4 -1 -15 -6.85 -0.04
 -4 -1 -15 -6.85 -0.04
 -4 1 -13 -5.18 0.27
 -4 -1 -13 5.20 -0.13
 -4 1 -11 1.47 -0.12
 -4 -1 -11 -1.50 0.04
 -4 1 -9 3.31 -0.04
 -4 -1 -9 -3.29 0.10
 -4 1 -7 -4.29 0.07
 -4 -1 -7 4.29 -0.12
 -4 1 -5 -5.02 0.01
 -4 -1 -5 5.03 0.16
 -4 1 -3 21.06 -0.09
 -4 -1 -3 -21.11 -0.34
 -4 1 -1 -29.77 0.16
 -4 1 -1 -29.77 0.16
 -4 -1 -1 29.82 0.44
 -4 1 1 23.72 -0.24
 -4 1 3 -11.49 0.27
 -4 -1 3 11.48 -0.07
 -4 -1 5 -4.17 0.16
 -4 1 5 4.19 -0.19
 -4 -1 7 1.35 0.09
 -4 1 7 -1.33 0.07
 -4 -1 9 2.89 -0.33
 -4 1 9 -2.92 -0.08
 -4 -1 11 -7.97 0.28
 -4 1 11 7.97 0.24
 -4 -1 13 9.96 -0.07
 -4 1 13 -9.92 -0.32
 -4 -1 15 -10.23 -0.03
 -4 1 15 10.19 0.18
 -4 -1 17 12.27 -0.04
 -4 1 17 -12.26 0.04
 -4 -1 19 -13.90 0.08
 -4 1 19 13.90 -0.10
 -4 -1 21 10.44 -0.03
 -4 1 21 -10.44 0.02
 -4 -1 23 -3.21 0.01
 -4 1 23 3.20 0.02
 -4 -1 25 -1.75 -0.10
 -4 1 25 1.76 0.01
 -4 -1 27 2.15 0.20
 -4 1 27 -2.15 0.02
 -4 -1 29 -1.10 -0.22
 -4 1 29 1.11 -0.12
 -4 1 31 -0.99 0.14
 -4 -1 31 0.98 0.15
 -4 -1 33 -0.18 -0.04
 -4 1 33 0.17 0.02
 -4 -1 35 -2.88 -0.09
 -4 1 35 2.91 -0.17
 -4 -1 37 5.98 0.21
 -4 1 37 -6.01 0.14
 -4 -1 39 -5.59 -0.26
 -4 1 39 5.58 0.03
 -4 1 41 -1.67 -0.14
 -4 2 -38 -2.41 -0.05
 -4 -2 -38 -2.43 -0.13
 -4 2 -36 2.54 0.07
 -4 -2 -36 2.57 0.06
 -4 2 -34 -2.08 -0.10
 -4 -2 -34 -2.09 0.18
 -4 2 -32 1.84 0.15
 -4 -2 -32 1.83 -0.26
 -4 2 -30 -2.55 -0.18
 -4 -2 -30 -2.53 0.09
 -4 -2 -30 -2.53 0.09
 -4 2 -28 3.55 0.14
 -4 -2 -28 3.53 0.08
 -4 -2 -28 3.53 0.08
 -4 2 -26 -2.75 -0.05
 -4 -2 -26 -2.73 -0.03
 -4 -2 -26 -2.73 -0.03
 -4 2 -24 -0.41 0.02
 -4 -2 -24 -0.44 -0.05
 -4 2 -24 -0.41 0.02
 -4 -2 -24 -0.44 -0.05
 -4 2 -22 2.87 -0.06
 -4 -2 -22 2.89 -0.10
 -4 2 -22 2.87 -0.06
 -4 -2 -22 2.89 -0.10
 -4 2 -20 -1.25 0.08
 -4 -2 -20 -1.26 0.36
 -4 2 -20 -1.25 0.08
 -4 -2 -20 -1.26 0.36
 -4 2 -18 -3.43 0.04
 -4 -2 -18 -3.41 -0.37
 -4 -2 -18 -3.41 -0.37
 -4 2 -18 -3.43 0.04
 -4 2 -16 7.15 -0.21
 -4 -2 -16 7.12 0.03
 -4 -2 -16 7.12 0.03
 -4 2 -14 -7.68 0.28
 -4 -2 -14 -7.67 0.28
 -4 -2 -14 -7.67 0.28
 -4 2 -12 5.08 -0.18
 -4 -2 -12 5.11 -0.26
 -4 2 -10 -0.27 0.02
 -4 -2 -10 -0.32 0.07
 -4 2 -8 -3.06 0.07
 -4 -2 -8 -3.05 -0.02
 -4 2 -6 -0.85 -0.05
 -4 -2 -6 -0.84 0.07
 -4 2 -4 11.46 0.00
 -4 2 -4 11.46 0.00
 -4 -2 -4 11.48 0.04
 -4 2 -2 -18.08 0.03
 -4 2 -2 -18.08 0.03
 -4 -2 -2 -18.12 -0.30
 -4 -2 0 11.76 0.35
 -4 2 0 11.73 -0.07
 -4 2 0 11.73 -0.07
 -4 2 2 2.06 0.11
 -4 -2 4 -10.38 -0.22
 -4 2 4 -10.36 -0.10
 -4 2 6 9.81 0.02
 -4 -2 6 9.79 0.13
 -4 -2 8 -7.71 0.20
 -4 2 8 -7.76 -0.01
 -4 -2 10 8.79 -0.36
 -4 2 10 8.81 0.15
 -4 2 12 -9.96 -0.28
 -4 -2 12 -9.99 0.24
 -4 -2 14 8.87 -0.08
 -4 2 14 8.81 0.17
 -4 -2 16 -7.67 0.06
 -4 2 16 -7.65 0.11
 -4 2 18 7.54 -0.24
 -4 -2 18 7.52 -0.08
 -4 2 20 -5.84 0.11
 -4 -2 20 -5.83 0.00
 -4 -2 22 1.69 0.09
 -4 2 22 1.68 0.07
 -4 2 24 1.57 -0.07
 -4 -2 24 1.56 -0.03
 -4 2 26 -1.48 0.03
 -4 -2 26 -1.48 -0.16
 -4 -2 28 -0.02 0.26
 -4 2 28 -0.01 -0.16
 -4 -2 30 0.23 -0.16
 -4 2 30 0.20 0.38
 -4 -2 32 0.36 -0.04
 -4 2 32 0.38 -0.37
 -4 -2 34 0.38 0.22
 -4 2 34 0.40 0.09
 -4 -2 36 -2.41 -0.32
 -4 2 36 -2.45 0.14
 -4 -2 38 3.39 0.34
 -4 2 38 3.41 -0.10
 -4 2 40 -1.93 -0.08
 -4 3 -39 -4.69 -0.05
 -4 -3 -39 4.70 0.00
 -4 3 -37 3.41 0.05
 -4 -3 -37 -3.45 -0.04
 -4 3 -35 -0.83 -0.06
 -4 -3 -35 0.86 -0.09
 -4 3 -33 -0.90 0.12
 -4 -3 -33 0.91 0.24
 -4 -3 -31 -0.91 -0.19
 -4 -3 -31 -0.91 -0.19
 -4 3 -31 0.89 -0.16
 -4 -3 -29 -0.32 0.01
 -4 3 -29 0.34 0.08
 -4 -3 -29 -0.32 0.01
 -4 3 -27 -1.70 0.08
 -4 -3 -27 1.68 0.09
 -4 -3 -27 1.68 0.09
 -4 3 -25 2.18 -0.16
 -4 -3 -25 -2.15 -0.03
 -4 -3 -25 -2.15 -0.03
 -4 3 -23 -1.64 0.10
 -4 -3 -23 1.62 0.03
 -4 -3 -23 1.62 0.03
 -4 3 -21 1.11 0.00
 -4 -3 -21 -1.10 -0.18
 -4 3 -21 1.11 0.00
 -4 -3 -21 -1.10 -0.18
 -4 3 -19 -1.56 -0.01
 -4 -3 -19 1.56 0.24
 -4 -3 -19 1.56 0.24
 -4 3 -17 2.86 -0.08
 -4 -3 -17 -2.83 -0.03
 -4 -3 -17 -2.83 -0.03
 -4 3 -15 -4.13 0.13
 -4 -3 -15 4.09 -0.30
 -4 -3 -15 4.09 -0.30
 -4 3 -13 4.36 -0.08
 -4 -3 -13 -4.35 0.37
 -4 -3 -13 -4.35 0.37
 -4 3 -11 -2.82 0.01
 -4 -3 -11 2.86 -0.17
 -4 3 -9 0.90 0.03
 -4 -3 -9 -0.95 0.05
 -4 3 -7 -2.51 -0.06
 -4 -3 -7 2.51 -0.17
 -4 3 -5 8.89 0.10
 -4 3 -5 8.89 0.10
 -4 -3 -5 -8.86 0.31
 -4 3 -3 -13.78 -0.15
 -4 3 -3 -13.78 -0.15
 -4 -3 -3 13.76 -0.20
 -4 3 -1 9.18 0.14
 -4 3 -1 9.18 0.14
 -4 -3 -1 -9.19 -0.01
 -4 3 1 3.36 -0.08
 -4 -3 1 -3.36 0.01
 -4 3 3 -13.21 0.02
 -4 3 5 13.82 -0.05
 -4 -3 7 9.61 0.00
 -4 3 7 -9.66 0.09
 -4 3 7 -9.66 0.09
 -4 -3 9 -7.79 0.22
 -4 3 9 7.83 -0.03
 -4 3 9 7.83 -0.03
 -4 3 11 -8.93 -0.14
 -4 -3 11 8.94 -0.22
 -4 -3 13 -9.55 0.09
 -4 3 13 9.50 0.19
 -4 3 15 -8.16 -0.01
 -4 -3 15 8.19 -0.02
 -4 3 17 5.46 -0.20
 -4 -3 17 -5.43 0.01
 -4 -3 19 1.44 0.04
 -4 3 19 -1.47 0.15
 -4 -3 21 2.66 -0.10
 -4 3 21 -2.66 0.07
 -4 3 23 3.98 -0.12
 -4 -3 23 -3.97 0.05
 -4 -3 25 1.38 0.12
 -4 3 25 -1.37 -0.05
 -4 -3 27 2.06 -0.25
 -4 3 27 -2.09 0.11
 -4 -3 29 -2.71 0.17
 -4 3 29 2.70 0.13
 -4 -3 31 0.63 0.05
 -4 3 31 -0.58 -0.39
 -4 3 33 -1.35 0.32
 -4 -3 33 1.31 -0.22
 -4 -3 35 -1.27 0.29
 -4 3 35 1.27 -0.02
 -4 -3 37 -0.02 -0.29
 -4 3 37 0.05 -0.16
 -4 3 39 -0.96 0.07
 -4 4 -38 5.70 0.02
 -4 -4 -38 5.73 0.06
 -4 4 -36 -2.15 0.03
 -4 -4 -36 -2.19 -0.10
 -4 4 -34 -2.33 -0.05
 -4 -4 -34 -2.33 0.02
 -4 4 -32 4.47 0.02
 -4 -4 -32 4.51 0.07
 -4 -4 -32 4.51 0.07
 -4 4 -30 -3.61 -0.02
 -4 -4 -30 -3.63 -0.04
 -4 -4 -30 -3.63 -0.04
 -4 -4 -28 1.27 -0.07
 -4 4 -28 1.27 0.13
 -4 -4 -28 1.27 -0.07
 -4 4 -26 0.82 -0.24
 -4 -4 -26 0.82 0.12
 -4 -4 -26 0.82 0.12
 -4 4 -24 -1.72 0.24
 -4 -4 -24 -1.70 -0.09
 -4 -4 -24 -1.70 -0.09
 -4 4 -22 1.08 -0.16
 -4 -4 -22 1.08 0.08
 -4 -4 -22 1.08 0.08
 -4 4 -20 0.78 0.10
 -4 -4 -20 0.77 -0.13
 -4 -4 -20 0.77 -0.13
 -4 4 -18 -2.86 -0.09
 -4 -4 -18 -2.85 0.09
 -4 -4 -18 -2.85 0.09
 -4 4 -16 3.75 0.06
 -4 -4 -16 3.77 0.10
 -4 -4 -16 3.77 0.10
 -4 4 -14 -2.66 0.00
 -4 -4 -14 -2.68 -0.25
 -4 -4 -14 -2.68 -0.25
 -4 4 -12 0.20 -0.02
 -4 -4 -12 0.18 0.15
 -4 -4 -12 0.18 0.15
 -4 4 -10 2.46 -0.03
 -4 -4 -10 2.52 0.05
 -4 -4 -8 -5.29 -0.05
 -4 4 -8 -5.26 0.04
 -4 4 -6 8.60 0.06
 -4 4 -6 8.60 0.06
 -4 -4 -6 8.57 -0.17
 -4 4 -4 -10.63 -0.19
 -4 4 -4 -10.63 -0.19
 -4 -4 -4 -10.57 0.32
 -4 -4 -2 7.92 -0.24
 -4 4 -2 7.96 0.23
 -4 4 -2 7.96 0.23
 -4 -4 0 -0.62 0.07
 -4 4 0 -0.63 -0.15
 -4 4 0 -0.63 -0.15
 -4 4 2 -6.06 0.06
 -4 4 4 7.31 -0.04
 -4 4 6 -4.39 0.10
 -4 4 6 -4.39 0.10
 -4 4 8 2.30 -0.12
 -4 4 8 2.30 -0.12
 -4 4 10 -3.53 0.01
 -4 4 10 -3.53 0.01
 -4 -4 12 6.64 -0.05
 -4 4 12 6.61 0.13
 -4 -4 14 -8.83 -0.07
 -4 4 14 -8.79 -0.09
 -4 -4 16 7.72 0.16
 -4 4 16 7.72 -0.08
 -4 -4 18 -2.53 -0.19
 -4 4 18 -2.57 0.14
 -4 -4 20 -4.05 0.13
 -4 4 20 -4.03 0.00
 -4 4 22 6.76 -0.09
 -4 -4 22 6.74 0.00
 -4 4 24 -3.00 -0.11
 -4 -4 24 -3.01 -0.12
 -4 4 26 -3.56 0.40
 -4 -4 26 -3.51 0.13
 -4 4 28 6.83 -0.38
 -4 -4 28 6.78 -0.02
 -4 4 30 -4.59 0.04
 -4 -4 30 -4.59 -0.14
 -4 4 32 -0.33 0.21
 -4 -4 32 -0.29 0.22
 -4 4 34 3.88 -0.13
 -4 -4 34 3.86 -0.21
 -4 4 36 -4.29 -0.07
 -4 4 38 2.35 0.12
 -4 4 40 0.03 -0.03
 -4 5 -37 -4.38 0.03
 -4 -5 -37 4.41 0.16
 -4 5 -35 -0.54 -0.13
 -4 -5 -35 0.53 -0.23
 -4 5 -33 5.34 0.18
 -4 -5 -33 -5.36 0.14
 -4 -5 -33 -5.36 0.14
 -4 5 -31 -6.43 -0.16
 -4 -5 -31 6.45 0.00
 -4 -5 -31 6.45 0.00
 -4 5 -29 3.96 0.14
 -4 -5 -29 -3.95 -0.01
 -4 -5 -29 -3.95 -0.01
 -4 -5 -27 0.77 -0.09
 -4 5 -27 -0.79 -0.13
 -4 -5 -27 0.77 -0.09
 -4 5 -25 -0.80 0.11
 -4 -5 -25 0.79 0.13
 -4 -5 -25 0.79 0.13
 -4 5 -23 0.35 -0.08
 -4 -5 -23 -0.33 -0.07
 -4 -5 -23 -0.33 -0.07
 -4 5 -21 1.64 0.08
 -4 -5 -21 -1.64 0.04
 -4 -5 -21 -1.64 0.04
 -4 5 -19 -4.51 -0.10
 -4 -5 -19 4.49 -0.08
 -4 -5 -19 4.49 -0.08
 -4 5 -17 7.03 0.07
 -4 -5 -17 -7.02 0.06
 -4 -5 -17 -7.02 0.06
 -4 5 -15 -7.45 0.00
 -4 5 -15 -7.45 0.00
 -4 -5 -15 7.46 0.07
 -4 -5 -15 7.46 0.07
 -4 5 -13 4.62 -0.01
 -4 -5 -13 -4.61 -0.15
 -4 -5 -13 -4.61 -0.15
 -4 5 -13 4.62 -0.01
 -4 -5 -11 -0.84 0.05
 -4 5 -11 0.80 -0.08
 -4 -5 -11 -0.84 0.05
 -4 5 -11 0.80 -0.08
 -4 -5 -9 6.57 0.11
 -4 5 -9 -6.54 0.15
 -4 5 -9 -6.54 0.15
 -4 -5 -9 6.57 0.11
 -4 5 -7 9.94 -0.06
 -4 -5 -7 -9.92 -0.09
 -4 5 -7 9.94 -0.06
 -4 5 -5 -9.33 -0.13
 -4 5 -5 -9.33 -0.13
 -4 -5 -5 9.27 -0.08
 -4 5 -3 5.02 0.22
 -4 5 -3 5.02 0.22
 -4 -5 -3 -4.98 0.18
 -4 5 -1 0.29 -0.16
 -4 -5 -1 -0.30 -0.07
 -4 5 -1 0.29 -0.16
 -4 -5 1 3.09 -0.13
 -4 5 1 -3.10 0.09
 -4 5 1 -3.10 0.09
 -4 5 3 2.00 -0.09
 -4 5 5 1.14 0.15
 -4 5 5 1.14 0.15
 -4 5 7 -3.25 -0.17
 -4 5 7 -3.25 -0.17
 -4 5 9 2.67 0.12
 -4 5 9 2.67 0.12
 -4 5 11 0.45 -0.04
 -4 5 13 -4.68 0.05
 -4 -5 15 -7.25 -0.37
 -4 5 15 7.23 -0.18
 -4 -5 17 5.22 0.51
 -4 5 17 -5.24 0.28
 -4 5 19 -0.75 -0.19
 -4 -5 19 0.77 -0.39
 -4 5 21 5.81 0.02
 -4 -5 21 -5.79 0.08
 -4 -5 23 5.01 0.09
 -4 5 23 -5.04 -0.10
 -4 5 25 -1.17 0.42
 -4 -5 25 1.15 0.04
 -4 -5 27 -7.50 -0.29
 -4 5 27 7.58 -0.60
 -4 -5 29 9.15 0.37
 -4 5 29 -9.21 0.41
 -4 -5 31 -5.29 -0.27
 -4 5 31 5.29 -0.07
 -4 5 33 0.96 -0.09
 -4 -5 33 -0.93 0.14
 -4 5 35 -5.18 0.03
 -4 5 37 5.16 0.02
 -4 5 39 -2.18 0.00
 -4 6 -36 0.86 -0.07
 -4 -6 -36 0.87 0.22
 -4 6 -34 3.15 0.14
 -4 -6 -34 3.16 -0.22
 -4 -6 -34 3.16 -0.22
 -4 6 -32 -5.70 -0.18
 -4 -6 -32 -5.72 0.05
 -4 -6 -32 -5.72 0.05
 -4 6 -30 4.45 0.15
 -4 -6 -30 4.45 0.07
 -4 -6 -30 4.45 0.07
 -4 6 -28 -1.00 -0.08
 -4 -6 -28 -0.99 0.01
 -4 -6 -28 -0.99 0.01
 -4 -6 -26 -1.42 -0.14
 -4 -6 -26 -1.42 -0.14
 -4 6 -26 -1.42 -0.02
 -4 -6 -24 1.49 0.12
 -4 -6 -24 1.49 0.12
 -4 6 -24 1.52 0.11
 -4 -6 -22 -0.08 -0.01
 -4 -6 -22 -0.08 -0.01
 -4 6 -22 -0.11 -0.13
 -4 6 -20 -1.77 0.07
 -4 -6 -20 -1.79 -0.01
 -4 -6 -20 -1.79 -0.01
 -4 6 -18 3.56 0.00
 -4 -6 -18 3.56 -0.07
 -4 -6 -18 3.56 -0.07
 -4 6 -16 -4.54 0.00
 -4 6 -16 -4.54 0.00
 -4 -6 -16 -4.55 0.02
 -4 -6 -16 -4.55 0.02
 -4 6 -14 3.71 0.01
 -4 -6 -14 3.71 0.17
 -4 6 -14 3.71 0.01
 -4 -6 -14 3.71 0.17
 -4 6 -12 -0.41 -0.13
 -4 -6 -12 -0.40 -0.27
 -4 -6 -12 -0.40 -0.27
 -4 6 -12 -0.41 -0.13
 -4 -6 -10 -4.82 0.15
 -4 6 -10 -4.82 0.27
 -4 -6 -10 -4.82 0.15
 -4 6 -10 -4.82 0.27
 -4 6 -8 9.66 -0.24
 -4 -6 -8 9.64 0.03
 -4 6 -8 9.66 -0.24
 -4 6 -8 9.66 -0.24
 -4 -6 -8 9.64 0.03
 -4 -6 -6 -10.88 -0.05
 -4 6 -6 -10.92 0.05
 -4 6 -6 -10.92 0.05
 -4 6 -6 -10.92 0.05
 -4 6 -4 7.26 0.09
 -4 6 -4 7.26 0.09
 -4 6 -4 7.26 0.09
 -4 -6 -4 7.22 -0.06
 -4 6 -2 -1.31 -0.08
 -4 6 -2 -1.31 -0.08
 -4 -6 -2 -1.32 0.09
 -4 -6 0 -2.23 0.07
 -4 6 0 -2.26 0.05
 -4 6 0 -2.26 0.05
 -4 -6 2 1.36 -0.27
 -4 6 2 1.38 -0.14
 -4 6 4 1.83 0.28
 -4 6 4 1.83 0.28
 -4 6 6 -4.18 -0.30
 -4 6 6 -4.18 -0.30
 -4 6 8 4.39 0.20
 -4 6 8 4.39 0.20
 -4 6 10 -2.85 -0.11
 -4 6 10 -2.85 -0.11
 -4 6 12 0.15 0.14
 -4 6 14 2.64 -0.28
 -4 6 16 -3.70 0.37
 -4 6 18 1.98 -0.24
 -4 6 20 1.33 -0.04
 -4 -6 22 -3.51 -0.17
 -4 6 22 -3.59 0.15
 -4 -6 24 2.66 -0.02
 -4 6 24 2.71 0.04
 -4 -6 26 1.40 0.46
 -4 6 26 1.41 -0.32
 -4 -6 28 -6.35 -0.58
 -4 6 28 -6.41 0.37
 -4 -6 30 8.42 0.29
 -4 6 30 8.45 -0.22
 -4 -6 32 -5.53 -0.01
 -4 6 32 -5.52 0.12
 -4 6 34 0.09 -0.14
 -4 6 36 3.00 0.12
 -4 6 38 -1.82 -0.01
 -4 -7 -35 -1.29 0.18
 -4 7 -35 1.29 0.08
 -4 -7 -35 -1.29 0.18
 -4 -7 -33 2.26 -0.08
 -4 7 -33 -2.24 -0.04
 -4 -7 -33 2.26 -0.08
 -4 -7 -31 -1.91 -0.07
 -4 7 -31 1.90 0.05
 -4 -7 -31 -1.91 -0.07
 -4 7 -29 -0.03 -0.06
 -4 -7 -29 0.03 0.04
 -4 -7 -29 0.03 0.04
 -4 7 -27 -1.50 0.01
 -4 -7 -27 1.50 0.13
 -4 -7 -27 1.50 0.13
 -4 7 -25 1.50 0.11
 -4 -7 -25 -1.49 -0.20
 -4 -7 -25 -1.49 -0.20
 -4 7 -23 -0.61 -0.22
 -4 -7 -23 0.58 0.06
 -4 -7 -21 0.17 0.07
 -4 -7 -21 0.17 0.07
 -4 7 -21 -0.14 0.22
 -4 -7 -19 -0.42 -0.03
 -4 -7 -19 -0.42 -0.03
 -4 7 -19 0.41 -0.11
 -4 7 -17 -0.23 0.01
 -4 -7 -17 0.24 -0.05
 -4 -7 -17 0.24 -0.05
 -4 7 -17 -0.23 0.01
 -4 7 -15 -0.09 0.04
 -4 -7 -15 0.09 -0.05
 -4 7 -15 -0.09 0.04
 -4 -7 -15 0.09 -0.05
 -4 7 -13 0.26 -0.15
 -4 -7 -13 -0.26 0.25
 -4 7 -13 0.26 -0.15
 -4 -7 -13 -0.26 0.25
 -4 7 -11 -0.84 0.31
 -4 -7 -11 0.84 -0.29
 -4 -7 -11 0.84 -0.29
 -4 7 -11 -0.84 0.31
 -4 7 -9 3.04 -0.36
 -4 -7 -9 -3.02 0.13
 -4 7 -9 3.04 -0.36
 -4 7 -9 3.04 -0.36
 -4 -7 -9 -3.02 0.13
 -4 7 -7 -6.33 0.22
 -4 -7 -7 6.29 0.02
 -4 -7 -7 6.29 0.02
 -4 7 -7 -6.33 0.22
 -4 7 -7 -6.33 0.22
 -4 -7 -5 -7.90 0.00
 -4 7 -5 7.92 -0.04
 -4 -7 -5 -7.90 0.00
 -4 7 -5 7.92 -0.04
 -4 7 -3 -6.10 0.02
 -4 7 -3 -6.10 0.02
 -4 -7 -3 6.11 -0.09
 -4 7 -1 2.77 -0.06
 -4 -7 -1 -2.81 0.05
 -4 7 -1 2.77 -0.06
 -4 7 1 -0.99 -0.06
 -4 7 1 -0.99 -0.06
 -4 -7 1 1.03 0.12
 -4 7 3 1.18 0.32
 -4 -7 3 -1.20 -0.23
 -4 7 3 1.18 0.32
 -4 7 5 -1.55 -0.46
 -4 7 5 -1.55 -0.46
 -4 7 7 1.18 0.34
 -4 7 7 1.18 0.34
 -4 7 9 -0.70 -0.12
 -4 7 9 -0.70 -0.12
 -4 7 11 0.74 0.05
 -4 7 11 0.74 0.05
 -4 7 13 -1.11 -0.17
 -4 7 15 1.12 0.26
 -4 7 17 -0.17 -0.11
 -4 7 19 -1.30 -0.28
 -4 7 21 1.35 0.59
 -4 7 23 1.14 -0.53
 -4 7 25 -3.70 0.20
 -4 7 27 2.50 0.05
 -4 7 29 2.16 -0.15
 -4 7 31 -5.39 0.27
 -4 7 33 4.14 -0.46
 -4 7 35 -1.11 0.51
 -4 7 37 0.40 -0.33
 -4 8 -34 0.24 0.02
 -4 -8 -34 0.23 0.08
 -4 -8 -34 0.23 0.08
 -4 8 -32 -1.53 -0.11
 -4 -8 -32 -1.52 0.04
 -4 -8 -32 -1.52 0.04
 -4 8 -30 2.12 0.08
 -4 -8 -30 2.11 -0.09
 -4 -8 -30 2.11 -0.09
 -4 8 -28 -1.22 -0.03
 -4 -8 -28 -1.20 -0.02
 -4 -8 -28 -1.20 -0.02
 -4 8 -26 -0.96 0.07
 -4 -8 -26 -0.97 0.14
 -4 8 -24 2.70 -0.18
 -4 -8 -24 2.71 -0.08
 -4 -8 -24 2.71 -0.08
 -4 8 -22 -2.80 0.22
 -4 -8 -22 -2.80 -0.09
 -4 -8 -22 -2.80 -0.09
 -4 8 -20 1.70 -0.13
 -4 -8 -20 1.70 0.15
 -4 -8 -20 1.70 0.15
 -4 8 -18 -0.20 0.01
 -4 -8 -18 -0.20 -0.03
 -4 -8 -18 -0.20 -0.03
 -4 8 -16 -1.18 0.05
 -4 -8 -16 -1.18 -0.06
 -4 -8 -16 -1.18 -0.06
 -4 8 -16 -1.18 0.05
 -4 8 -14 1.24 -0.09
 -4 -8 -14 1.24 0.00
 -4 8 -14 1.24 -0.09
 -4 -8 -14 1.24 0.00
 -4 8 -12 0.93 0.21
 -4 -8 -12 0.93 0.11
 -4 8 -12 0.93 0.21
 -4 -8 -12 0.93 0.11
 -4 8 -10 -3.55 -0.30
 -4 8 -10 -3.55 -0.30
 -4 -8 -10 -3.55 -0.10
 -4 8 -10 -3.55 -0.30
 -4 -8 -10 -3.55 -0.10
 -4 8 -8 3.28 0.20
 -4 -8 -8 3.30 -0.01
 -4 -8 -8 3.30 -0.01
 -4 8 -8 3.28 0.20
 -4 8 -6 0.36 0.00
 -4 8 -6 0.36 0.00
 -4 -8 -6 0.34 0.06
 -4 -8 -6 0.34 0.06
 -4 -8 -4 -4.34 -0.01
 -4 8 -4 -4.34 -0.06
 -4 8 -4 -4.34 -0.06
 -4 -8 -4 -4.34 -0.01
 -4 8 -2 6.03 -0.07
 -4 8 -2 6.03 -0.07
 -4 -8 -2 6.06 -0.03
 -4 -8 -2 6.06 -0.03
 -4 8 0 -5.49 0.10
 -4 8 0 -5.49 0.10
 -4 -8 0 -5.52 -0.03
 -4 8 0 -5.49 0.10
 -4 8 2 3.52 0.14
 -4 -8 2 3.53 0.12
 -4 8 2 3.52 0.14
 -4 8 2 3.52 0.14
 -4 8 4 -0.41 -0.44
 -4 -8 4 -0.42 -0.12
 -4 8 4 -0.41 -0.44
 -4 8 6 -2.78 0.46
 -4 8 6 -2.78 0.46
 -4 8 8 4.04 -0.22
 -4 8 8 4.04 -0.22
 -4 8 10 -2.44 0.00
 -4 8 10 -2.44 0.00
 -4 8 12 -1.04 -0.02
 -4 8 14 4.25 0.18
 -4 8 16 -4.70 -0.17
 -4 8 18 1.19 -0.16
 -4 8 20 3.67 0.58
 -4 8 22 -4.71 -0.72
 -4 8 24 0.20 0.46
 -4 8 26 5.11 -0.10
 -4 8 28 -5.80 -0.12
 -4 8 30 2.45 0.28
 -4 8 32 0.36 -0.51
 -4 8 34 -0.79 0.68
 -4 8 36 0.78 -0.58
 -4 9 -33 -2.03 -0.11
 -4 -9 -33 2.05 -0.01
 -4 -9 -33 2.05 -0.01
 -4 9 -31 3.22 0.14
 -4 -9 -31 -3.22 0.10
 -4 -9 -31 -3.22 0.10
 -4 9 -29 -1.76 -0.09
 -4 -9 -29 1.74 -0.14
 -4 -9 -29 1.74 -0.14
 -4 9 -27 -2.29 0.09
 -4 -9 -27 2.31 0.08
 -4 -9 -27 2.31 0.08
 -4 9 -25 5.95 -0.15
 -4 -9 -25 -5.97 -0.04
 -4 -9 -25 -5.97 -0.04
 -4 9 -23 -6.42 0.18
 -4 -9 -23 6.41 0.12
 -4 -9 -23 6.41 0.12
 -4 -9 -21 -4.24 -0.21
 -4 -9 -21 -4.24 -0.21
 -4 9 -21 4.26 -0.10
 -4 -9 -19 1.84 0.16
 -4 -9 -19 1.84 0.16
 -4 9 -19 -1.85 0.00
 -4 -9 -17 -0.07 0.03
 -4 -9 -17 -0.07 0.03
 -4 9 -17 0.06 -0.01
 -4 -9 -15 -1.07 -0.15
 -4 -9 -15 -1.07 -0.15
 -4 9 -15 1.09 0.06
 -4 9 -15 1.09 0.06
 -4 -9 -13 0.44 0.10
 -4 -9 -13 0.44 0.10
 -4 9 -13 -0.43 -0.02
 -4 9 -13 -0.43 -0.02
 -4 9 -11 -2.53 -0.10
 -4 9 -11 -2.53 -0.10
 -4 -9 -11 2.52 0.00
 -4 -9 -11 2.52 0.00
 -4 9 -9 5.28 0.09
 -4 9 -9 5.28 0.09
 -4 -9 -9 -5.27 -0.04
 -4 -9 -9 -5.27 -0.04
 -4 -9 -7 4.65 -0.01
 -4 -9 -7 4.65 -0.01
 -4 9 -7 -4.65 0.11
 -4 9 -7 -4.65 0.11
 -4 -9 -5 -0.73 0.06
 -4 -9 -5 -0.73 0.06
 -4 9 -5 0.73 -0.22
 -4 9 -5 0.73 -0.22
 -4 9 -3 3.79 0.05
 -4 -9 -3 -3.80 -0.07
 -4 -9 -3 -3.80 -0.07
 -4 -9 -1 6.64 0.07
 -4 9 -1 -6.63 0.20
 -4 -9 -1 6.64 0.07
 -4 -9 1 -6.53 -0.11
 -4 9 1 6.53 -0.17
 -4 -9 1 -6.53 -0.11
 -4 9 3 -2.95 -0.14
 -4 -9 3 2.95 0.13
 -4 9 3 -2.95 -0.14
 -4 9 3 -2.95 -0.14
 -4 -9 3 2.95 0.13
 -4 9 5 -2.46 0.35
 -4 9 5 -2.46 0.35
 -4 -9 5 2.44 -0.05
 -4 9 7 5.94 -0.23
 -4 9 7 5.94 -0.23
 -4 9 9 -5.11 -0.05
 -4 9 9 -5.11 -0.05
 -4 9 11 1.04 0.14
 -4 9 11 1.04 0.14
 -4 9 13 3.61 0.06
 -4 9 15 -6.46 -0.32
 -4 9 17 5.41 0.31
 -4 9 19 -0.12 -0.02
 -4 9 21 -5.58 -0.26
 -4 9 23 6.30 0.22
 -4 9 25 -1.30 0.06
 -4 9 27 -4.55 -0.31
 -4 9 29 6.77 0.37
 -4 9 31 -5.40 -0.37
 -4 9 33 2.78 0.39
 -4 9 35 -0.37 -0.36
 -4 10 -32 1.44 0.01
 -4 -10 -32 1.48 0.00
 -4 -10 -32 1.48 0.00
 -4 10 -30 -1.59 -0.01
 -4 -10 -30 -1.59 0.10
 -4 -10 -30 -1.59 0.10
 -4 10 -28 -1.53 0.03
 -4 -10 -28 -1.56 -0.18
 -4 -10 -28 -1.56 -0.18
 -4 -10 -26 5.97 0.15
 -4 -10 -26 5.97 0.15
 -4 10 -26 5.95 -0.08
 -4 10 -24 -7.43 0.09
 -4 -10 -24 -7.44 -0.11
 -4 -10 -24 -7.44 -0.11
 -4 -10 -22 5.01 0.14
 -4 -10 -22 5.01 0.14
 -4 10 -22 5.02 -0.01
 -4 10 -20 -2.10 -0.05
 -4 -10 -20 -2.09 -0.16
 -4 -10 -20 -2.09 -0.16
 -4 10 -18 1.21 -0.02
 -4 -10 -18 1.22 0.07
 -4 -10 -18 1.22 0.07
 -4 10 -16 -1.18 0.19
 -4 -10 -16 -1.20 0.10
 -4 -10 -16 -1.20 0.10
 -4 10 -14 0.48 -0.23
 -4 -10 -14 0.49 -0.17
 -4 -10 -14 0.49 -0.17
 -4 -10 -12 0.02 0.04
 -4 10 -12 0.02 0.09
 -4 -10 -12 0.02 0.04
 -4 10 -12 0.02 0.09
 -4 -10 -10 0.53 0.13
 -4 -10 -10 0.53 0.13
 -4 10 -10 0.54 0.05
 -4 10 -10 0.54 0.05
 -4 -10 -8 -0.97 -0.16
 -4 -10 -8 -0.97 -0.16
 -4 10 -8 -0.97 0.02
 -4 10 -8 -0.97 0.02
 -4 -10 -6 0.06 0.02
 -4 -10 -6 0.06 0.02
 -4 10 -6 0.06 -0.17
 -4 -10 -4 1.79 0.11
 -4 -10 -4 1.79 0.11
 -4 10 -2 -3.67 0.21
 -4 -10 -2 -3.65 -0.15
 -4 -10 -2 -3.65 -0.15
 -4 10 0 4.70 -0.36
 -4 -10 0 4.67 0.15
 -4 -10 0 4.67 0.15
 -4 10 2 -3.57 0.16
 -4 -10 2 -3.56 -0.17
 -4 -10 2 -3.56 -0.17
 -4 10 4 0.06 0.12
 -4 10 4 0.06 0.12
 -4 10 4 0.06 0.12
 -4 -10 4 0.07 0.16
 -4 -10 4 0.07 0.16
 -4 10 6 3.38 -0.13
 -4 -10 6 3.36 -0.05
 -4 10 6 3.38 -0.13
 -4 -10 6 3.36 -0.05
 -4 10 8 -3.88 -0.13
 -4 10 8 -3.88 -0.13
 -4 -10 8 -3.88 -0.06
 -4 10 10 1.59 0.33
 -4 10 10 1.59 0.33
 -4 -10 10 1.62 0.04
 -4 10 12 1.47 -0.22
 -4 -10 12 1.43 -0.04
 -4 10 14 -4.38 -0.10
 -4 -10 14 -4.36 0.29
 -4 10 16 6.50 0.38
 -4 -10 16 6.51 -0.64
 -4 -10 18 -5.81 0.63
 -4 10 18 -5.79 -0.41
 -4 10 20 1.30 0.24
 -4 -10 20 1.32 -0.16
 -4 10 22 3.78 -0.11
 -4 -10 22 3.78 -0.20
 -4 10 24 -4.96 0.20
 -4 10 26 1.61 -0.41
 -4 10 28 2.82 0.51
 -4 10 30 -4.86 -0.37
 -4 10 32 3.59 0.13
 -4 10 34 -0.42 0.03
 -4 -11 -31 0.79 0.06
 -4 -11 -31 0.79 0.06
 -4 -11 -29 0.01 0.05
 -4 -11 -29 0.01 0.05
 -4 -11 -27 -3.44 -0.09
 -4 -11 -27 -3.44 -0.09
 -4 -11 -25 5.73 0.02
 -4 -11 -25 5.73 0.02
 -4 11 -23 3.95 0.07
 -4 -11 -23 -3.93 0.03
 -4 -11 -23 -3.93 0.03
 -4 11 -21 -0.75 -0.11
 -4 -11 -21 0.74 0.03
 -4 -11 -21 0.74 0.03
 -4 11 -19 0.76 0.01
 -4 -11 -19 -0.77 -0.10
 -4 -11 -19 -0.77 -0.10
 -4 11 -17 -3.74 0.19
 -4 -11 -17 3.76 0.05
 -4 -11 -17 3.76 0.05
 -4 11 -15 5.29 -0.29
 -4 -11 -15 -5.30 0.07
 -4 -11 -15 -5.30 0.07
 -4 11 -13 -3.36 0.16
 -4 -11 -13 3.36 -0.05
 -4 11 -11 0.03 0.06
 -4 11 -11 0.03 0.06
 -4 -11 -11 -0.03 -0.12
 -4 -11 -11 -0.03 -0.12
 -4 -11 -9 -2.29 0.25
 -4 11 -9 2.30 -0.13
 -4 -11 -9 -2.29 0.25
 -4 11 -7 -3.10 0.05
 -4 -11 -7 3.11 -0.15
 -4 -11 -7 3.11 -0.15
 -4 11 -5 2.55 -0.02
 -4 -11 -5 -2.56 -0.07
 -4 -11 -3 1.02 0.19
 -4 11 -3 -1.03 0.16
 -4 -11 -3 1.02 0.19
 -4 11 -1 -0.38 -0.24
 -4 -11 -1 0.42 -0.15
 -4 -11 -1 0.42 -0.15
 -4 11 1 0.97 0.09
 -4 -11 1 -1.00 0.11
 -4 -11 1 -1.00 0.11
 -4 -11 3 1.08 -0.15
 -4 11 3 -1.10 0.16
 -4 -11 3 1.08 -0.15
 -4 -11 5 -0.91 0.15
 -4 -11 5 -0.91 0.15
 -4 -11 7 0.21 -0.06
 -4 11 7 -0.22 -0.02
 -4 -11 7 0.21 -0.06
 -4 11 9 -0.55 0.24
 -4 -11 9 0.54 0.00
 -4 11 11 0.50 -0.25
 -4 -11 11 -0.48 -0.06
 -4 11 13 -0.69 0.10
 -4 -11 13 0.68 0.06
 -4 11 15 3.10 0.08
 -4 -11 15 -3.09 0.18
 -4 11 17 -6.74 -0.20
 -4 -11 17 6.75 -0.46
 -4 11 19 7.87 0.23
 -4 -11 19 -7.90 0.42
 -4 11 21 -4.89 -0.17
 -4 -11 21 4.92 -0.11
 -4 11 23 0.50 0.12
 -4 11 25 1.80 -0.19
 -4 11 27 -1.33 0.34
 -4 11 29 -0.16 -0.36
 -4 11 31 0.62 0.15
 -4 -12 -28 -0.53 -0.01
 -4 -12 -28 -0.53 -0.01
 -4 -12 -26 -2.08 0.04
 -4 -12 -26 -2.08 0.04
 -4 -12 -24 1.58 -0.12
 -4 -12 -24 1.58 -0.12
 -4 -12 -22 1.76 0.09
 -4 -12 -22 1.76 0.09
 -4 -12 -20 -2.63 0.08
 -4 -12 -20 -2.63 0.08
 -4 -12 -18 -1.67 -0.20
 -4 -12 -18 -1.67 -0.20
 -4 -12 -16 6.83 0.15
 -4 -12 -16 6.83 0.15
 -4 -12 -14 -7.32 -0.03
 -4 -12 -14 -7.32 -0.03
 -4 -12 -12 3.23 0.04
 -4 -12 -12 3.23 0.04
 -4 -12 -10 1.30 -0.16
 -4 -12 -10 1.30 -0.16
 -4 12 -10 1.32 -0.13
 -4 12 -8 -3.49 0.11
 -4 -12 -8 -3.49 0.17
 -4 -12 -8 -3.49 0.17
 -4 12 -6 3.09 -0.08
 -4 -12 -6 3.12 0.01
 -4 -12 -6 3.12 0.01
 -4 -12 -4 -0.90 -0.18
 -4 12 -4 -0.88 0.11
 -4 -12 -4 -0.90 -0.18
 -4 12 -2 -1.96 -0.06
 -4 -12 -2 -1.97 0.16
 -4 -12 -2 -1.97 0.16
 -4 12 0 3.65 -0.13
 -4 -12 0 3.68 -0.02
 -4 -12 0 3.68 -0.02
 -4 -12 2 -2.96 -0.03
 -4 12 2 -2.97 0.34
 -4 -12 2 -2.96 -0.03
 -4 -12 4 0.20 -0.04
 -4 12 4 0.25 -0.33
 -4 -12 4 0.20 -0.04
 -4 -12 6 2.85 0.05
 -4 12 6 2.81 0.12
 -4 -12 6 2.85 0.05
 -4 -12 8 -3.85 0.01
 -4 12 8 -3.84 0.01
 -4 -12 8 -3.85 0.01
 -4 -12 10 1.64 -0.02
 -4 12 10 1.61 0.08
 -4 -12 10 1.64 -0.02
 -4 12 12 1.88 -0.21
 -4 -12 12 1.82 -0.06
 -4 12 14 -2.54 0.17
 -4 -12 14 -2.49 0.09
 -4 12 16 -1.17 -0.05
 -4 -12 16 -1.18 0.04
 -4 -12 18 6.18 -0.18
 -4 12 18 6.18 0.03
 -4 12 20 -8.46 -0.09
 -4 12 22 7.04 0.07
 -4 12 24 -3.58 0.01
 -4 12 26 0.07 -0.01
 -4 12 28 2.02 -0.10
 -4 12 30 -2.21 0.12
 -4 -13 -27 -1.71 -0.01
 -4 -13 -27 -1.71 -0.01
 -4 -13 -25 0.37 0.06
 -4 -13 -25 0.37 0.06
 -4 -13 -23 -2.47 -0.10
 -4 -13 -23 -2.47 -0.10
 -4 -13 -21 5.18 -0.02
 -4 -13 -21 5.18 -0.02
 -4 -13 -19 -3.56 0.22
 -4 -13 -19 -3.56 0.22
 -4 -13 -17 -1.77 -0.30
 -4 -13 -17 -1.77 -0.30
 -4 -13 -15 4.99 0.18
 -4 -13 -15 4.99 0.18
 -4 -13 -13 -2.92 -0.02
 -4 -13 -13 -2.92 -0.02
 -4 -13 -11 -1.48 0.02
 -4 -13 -11 -1.48 0.02
 -4 -13 -9 3.87 -0.09
 -4 -13 -9 3.87 -0.09
 -4 13 -7 3.23 0.01
 -4 -13 -7 -3.25 0.03
 -4 -13 -7 -3.25 0.03
 -4 13 -5 -1.14 0.08
 -4 -13 -5 1.18 0.14
 -4 -13 -5 1.18 0.14
 -4 13 -3 -0.81 -0.11
 -4 -13 -3 0.79 -0.21
 -4 -13 -3 0.79 -0.21
 -4 13 -1 1.71 -0.02
 -4 -13 -1 -1.73 0.09
 -4 -13 -1 -1.73 0.09
 -4 13 1 -1.00 0.15
 -4 -13 1 1.01 0.07
 -4 -13 1 1.01 0.07
 -4 13 3 -1.34 -0.06
 -4 -13 3 1.35 -0.08
 -4 -13 3 1.35 -0.08
 -4 13 5 4.24 -0.19
 -4 -13 5 -4.22 -0.01
 -4 -13 5 -4.22 -0.01
 -4 -13 7 5.49 0.02
 -4 13 7 -5.53 0.26
 -4 -13 7 5.49 0.02
 -4 -13 9 -3.36 0.07
 -4 -13 9 -3.36 0.07
 -4 13 9 3.37 0.03
 -4 -13 11 -1.44 -0.14
 -4 13 11 1.53 -0.44
 -4 -13 11 -1.44 -0.14
 -4 13 13 -5.56 0.54
 -4 -13 13 5.43 0.11
 -4 13 15 5.49 -0.29
 -4 -13 15 -5.42 -0.05
 -4 13 17 -1.61 0.05
 -4 -13 17 1.61 0.06
 -4 13 19 -3.19 -0.05
 -4 13 21 6.26 0.12
 -4 13 23 -6.21 -0.05
 -4 13 25 3.01 -0.12
 -4 13 27 1.19 0.15
 -4 -14 -24 -0.65 0.01
 -4 -14 -22 -1.05 -0.02
 -4 -14 -20 2.74 -0.09
 -4 -14 -18 -1.52 0.24
 -4 -14 -16 -0.81 -0.23
 -4 -14 -14 0.39 0.05
 -4 -14 -12 2.96 0.07
 -4 -14 -10 -5.65 -0.02
 -4 -14 -8 4.99 -0.03
 -4 14 -6 -1.85 -0.01
 -4 -14 -6 -1.87 -0.06
 -4 14 -4 -0.98 -0.19
 -4 -14 -4 -0.95 0.22
 -4 14 -2 1.59 0.27
 -4 -14 -2 1.59 -0.25
 -4 14 0 -0.22 -0.28
 -4 -14 0 -0.25 0.13
 -4 14 2 -1.62 0.41
 -4 -14 2 -1.59 -0.03
 -4 14 4 2.75 -0.66
 -4 -14 4 2.69 0.07
 -4 14 6 -2.85 0.77
 -4 -14 6 -2.73 -0.16
 -4 14 8 1.71 -0.50
 -4 -14 8 1.60 0.12
 -4 14 10 0.90 -0.03
 -4 -14 10 0.91 0.05
 -4 14 12 -4.32 0.42
 -4 -14 12 -4.22 -0.19
 -4 14 14 6.78 -0.43
 -4 -14 14 6.67 0.19
 -4 14 16 -6.75 0.20
 -4 -14 16 -6.72 -0.11
 -4 14 18 3.96 -0.06
 -4 14 20 0.40 0.09
 -4 14 22 -3.72 -0.10
 -4 14 24 3.35 -0.03
 -4 14 26 0.32 0.16
 -4 -15 -21 4.56 -0.02
 -4 -15 -19 -2.44 -0.07
 -4 -15 -17 1.35 0.14
 -4 -15 -15 -0.67 -0.07
 -4 -15 -13 -1.47 -0.07
 -4 -15 -11 4.81 0.08
 -4 -15 -9 -6.65 0.03
 -4 -15 -7 4.94 -0.04
 -4 -15 -5 -0.75 -0.10
 -4 -15 -3 -2.50 0.25
 -4 15 -3 2.49 0.25
 -4 15 -1 -2.62 -0.36
 -4 -15 -1 2.65 -0.24
 -4 15 1 0.98 0.45
 -4 -15 1 -1.01 0.12
 -4 15 3 -0.48 -0.56
 -4 -15 3 0.52 -0.07
 -4 15 5 1.93 0.62
 -4 -15 5 -2.01 0.13
 -4 15 7 -3.55 -0.51
 -4 -15 7 3.67 -0.20
 -4 15 9 3.88 0.26
 -4 -15 9 -3.97 0.12
 -4 15 11 -3.66 0.03
 -4 -15 11 3.65 0.04
 -4 15 13 4.37 -0.20
 -4 -15 13 -4.30 -0.13
 -4 15 15 -6.02 0.20
 -4 -15 15 5.97 0.09
 -4 15 17 6.67 -0.12
 -4 15 19 -4.47 0.06
 -4 15 21 0.37 -0.03
 -4 15 23 2.03 -0.02
 -4 -16 -18 -3.69 -0.05
 -4 -16 -16 2.24 0.06
 -4 -16 -14 -1.73 0.04
 -4 -16 -12 -0.37 -0.09
 -4 -16 -10 4.37 -0.01
 -4 -16 -8 -7.01 0.14
 -4 -16 -6 5.25 -0.10
 -4 -16 -4 -0.52 -0.04
 -4 -16 -2 -2.65 0.12
 -4 16 -2 -2.63 -0.10
 -4 16 0 2.25 0.11
 -4 -16 0 2.26 -0.03
 -4 16 2 -0.99 -0.05
 -4 -16 2 -0.98 -0.09
 -4 16 4 2.17 -0.10
 -4 -16 4 2.15 0.11
 -4 16 6 -5.22 0.24
 -4 -16 6 -5.21 -0.03
 -4 16 8 6.85 -0.23
 -4 -16 8 6.87 -0.02
 -4 16 10 -5.65 0.08
 -4 -16 10 -5.67 -0.03
 -4 16 12 3.68 0.04
 -4 -16 12 3.68 0.09
 -4 16 14 -3.65 0.01
 -4 -16 14 -3.62 -0.07
 -4 16 16 5.41 -0.11
 -4 16 18 -6.10 0.12
 -4 -17 -13 -3.39 0.10
 -4 -17 -11 0.92 -0.06
 -4 -17 -9 3.79 -0.10
 -4 -17 -7 -5.84 0.20
 -4 -17 -5 2.94 -0.14
 -4 -17 -3 1.42 0.04
 -4 -17 -1 -2.47 -0.06
 -4 -17 1 0.23 0.18
 -4 17 1 -0.25 0.15
 -4 17 3 -1.04 -0.37
 -4 -17 3 1.10 -0.27
 -4 17 5 -1.12 0.66
 -4 -17 5 1.03 0.23
 -4 17 7 4.65 -0.74
 -4 -17 7 -4.57 -0.13
 -4 17 9 -5.96 0.43
 -4 -17 9 5.94 0.09
 -4 17 11 4.36 0.05
 -4 -17 11 -4.39 -0.12
 -4 17 13 -2.42 -0.27
 -4 -18 -2 4.63 0.01
 -4 -18 0 -2.65 -0.09
 -4 -18 2 -0.63 0.21
 -4 -18 4 1.39 -0.24
 -4 18 4 1.34 0.27
 -3 1 -40 0.85 -0.10
 -3 -1 -40 0.88 0.12
 -3 1 -38 -0.74 -0.03
 -3 -1 -38 -0.74 -0.13
 -3 1 -36 0.72 0.16
 -3 -1 -36 0.69 0.08
 -3 1 -34 0.07 -0.16
 -3 -1 -34 0.09 -0.01
 -3 1 -32 -1.25 0.08
 -3 -1 -32 -1.24 -0.07
 -3 1 -30 0.90 -0.07
 -3 -1 -30 0.89 0.15
 -3 -1 -30 0.89 0.15
 -3 1 -28 1.81 0.13
 -3 -1 -28 1.81 -0.17
 -3 -1 -28 1.81 -0.17
 -3 1 -26 -4.74 -0.13
 -3 -1 -26 -4.73 0.10
 -3 -1 -26 -4.73 0.10
 -3 1 -24 4.99 0.00
 -3 -1 -24 4.98 0.02
 -3 1 -24 4.99 0.00
 -3 -1 -24 4.98 0.02
 -3 1 -22 -2.61 0.13
 -3 -1 -22 -2.60 -0.11
 -3 -1 -22 -2.60 -0.11
 -3 1 -22 -2.61 0.13
 -3 -1 -20 0.01 0.07
 -3 1 -20 0.03 -0.11
 -3 -1 -20 0.01 0.07
 -3 1 -20 0.03 -0.11
 -3 1 -18 1.52 0.03
 -3 -1 -18 1.54 -0.01
 -3 1 -18 1.52 0.03
 -3 -1 -18 1.54 -0.01
 -3 1 -16 -2.02 -0.07
 -3 -1 -16 -2.01 0.04
 -3 -1 -16 -2.01 0.04
 -3 1 -16 -2.02 -0.07
 -3 1 -14 -0.22 0.19
 -3 -1 -14 -0.25 -0.16
 -3 -1 -14 -0.25 -0.16
 -3 1 -12 6.65 -0.20
 -3 -1 -12 6.65 0.20
 -3 1 -10 -12.60 0.03
 -3 -1 -10 -12.58 -0.10
 -3 1 -8 9.08 0.14
 -3 -1 -8 9.07 -0.03
 -3 1 -6 6.02 -0.16
 -3 -1 -6 6.00 0.07
 -3 1 -4 -22.52 0.11
 -3 -1 -4 -22.49 -0.09
 -3 -1 -2 28.13 0.15
 -3 1 -2 28.13 -0.12
 -3 1 -2 28.13 -0.12
 -3 1 0 -21.20 0.13
 -3 -1 0 -21.21 -0.19
 -3 1 0 -21.20 0.13
 -3 -1 2 9.25 0.11
 -3 1 2 9.25 -0.05
 -3 -1 4 1.52 0.03
 -3 1 4 1.51 -0.04
 -3 1 6 -9.93 0.00
 -3 -1 6 -9.92 -0.07
 -3 -1 8 15.21 0.01
 -3 1 8 15.23 0.13
 -3 -1 10 -15.45 0.06
 -3 1 10 -15.46 -0.21
 -3 -1 12 11.32 -0.05
 -3 1 12 11.28 0.16
 -3 1 14 -6.87 -0.04
 -3 -1 14 -6.93 -0.02
 -3 -1 16 5.22 0.10
 -3 1 16 5.21 -0.07
 -3 1 18 -5.21 0.17
 -3 -1 18 -5.17 -0.15
 -3 1 20 4.42 -0.21
 -3 -1 20 4.37 0.17
 -3 1 22 -2.26 0.19
 -3 -1 22 -2.26 -0.17
 -3 -1 22 -2.26 -0.17
 -3 1 24 -0.21 -0.11
 -3 -1 24 -0.20 0.16
 -3 1 26 1.90 0.03
 -3 -1 26 1.90 -0.12
 -3 -1 28 -1.93 0.02
 -3 1 28 -1.91 0.02
 -3 -1 30 -0.27 0.07
 -3 1 30 -0.26 -0.02
 -3 -1 32 3.69 -0.03
 -3 1 32 3.67 -0.10
 -3 -1 34 -5.84 -0.10
 -3 1 34 -5.86 0.28
 -3 1 36 4.93 -0.36
 -3 -1 36 4.88 0.18
 -3 -1 38 -1.59 -0.13
 -3 1 38 -1.63 0.24
 -3 1 40 -1.42 -0.06
 -3 2 -39 0.34 -0.09
 -3 -2 -39 -0.34 0.04
 -3 2 -37 -0.06 0.15
 -3 -2 -37 0.08 -0.14
 -3 2 -35 -0.58 -0.13
 -3 -2 -35 0.56 0.10
 -3 2 -33 0.55 -0.01
 -3 -2 -33 -0.54 0.02
 -3 2 -31 -0.76 0.14
 -3 -2 -31 0.77 -0.08
 -3 -2 -31 0.77 -0.08
 -3 -2 -29 -3.20 0.06
 -3 -2 -29 -3.20 0.06
 -3 2 -29 3.21 -0.15
 -3 2 -27 -7.26 0.08
 -3 -2 -27 7.24 -0.05
 -3 -2 -27 7.24 -0.05
 -3 2 -25 8.98 -0.03
 -3 -2 -25 -8.96 0.09
 -3 -2 -25 -8.96 0.09
 -3 2 -23 -5.90 0.00
 -3 -2 -23 5.89 -0.13
 -3 -2 -23 5.89 -0.13
 -3 2 -21 0.45 0.05
 -3 -2 -21 -0.43 0.09
 -3 -2 -21 -0.43 0.09
 -3 2 -21 0.45 0.05
 -3 2 -19 3.64 -0.05
 -3 2 -19 3.64 -0.05
 -3 -2 -19 -3.66 0.00
 -3 -2 -19 -3.66 0.00
 -3 -2 -17 5.25 -0.09
 -3 2 -17 -5.24 -0.08
 -3 -2 -17 5.25 -0.09
 -3 2 -17 -5.24 -0.08
 -3 -2 -15 -3.32 0.19
 -3 2 -15 3.34 0.31
 -3 -2 -15 -3.32 0.19
 -3 2 -15 3.34 0.31
 -3 2 -13 4.82 -0.40
 -3 -2 -13 -4.86 -0.25
 -3 -2 -13 -4.86 -0.25
 -3 2 -11 -17.17 0.22
 -3 -2 -11 17.19 0.18
 -3 -2 -11 17.19 0.18
 -3 2 -9 22.26 0.09
 -3 -2 -9 -22.25 0.02
 -3 2 -7 -10.28 -0.29
 -3 -2 -7 10.27 -0.29
 -3 2 -5 -12.29 0.32
 -3 -2 -5 12.30 0.48
 -3 2 -3 27.64 -0.30
 -3 2 -3 27.64 -0.30
 -3 -2 -3 -27.64 -0.53
 -3 2 -1 -26.60 0.31
 -3 -2 -1 26.61 0.46
 -3 2 -1 -26.60 0.31
 -3 2 1 15.80 -0.25
 -3 2 3 -4.54 0.14
 -3 -2 5 5.50 -0.16
 -3 2 5 -5.49 -0.11
 -3 -2 7 -14.61 0.16
 -3 2 7 14.61 0.17
 -3 -2 9 18.82 -0.14
 -3 2 9 -18.80 -0.21
 -3 -2 11 -15.35 0.11
 -3 2 11 15.31 0.13
 -3 -2 13 8.74 -0.08
 -3 2 13 -8.69 -0.04
 -3 2 13 -8.69 -0.04
 -3 -2 15 -5.55 0.03
 -3 2 15 5.52 0.01
 -3 -2 17 6.21 0.04
 -3 2 17 -6.22 -0.01
 -3 -2 19 -6.45 -0.09
 -3 2 19 6.47 -0.05
 -3 -2 21 4.09 0.10
 -3 2 21 -4.09 0.14
 -3 -2 23 -0.59 -0.14
 -3 2 23 0.58 -0.18
 -3 2 25 2.11 0.13
 -3 -2 25 -2.12 0.23
 -3 -2 25 -2.12 0.23
 -3 2 27 -3.02 -0.02
 -3 -2 27 3.04 -0.27
 -3 2 29 1.36 -0.06
 -3 -2 29 -1.38 0.19
 -3 2 31 2.60 0.03
 -3 -2 31 -2.62 -0.07
 -3 2 33 -6.31 0.13
 -3 -2 33 6.33 0.05
 -3 -2 35 -6.47 -0.10
 -3 2 35 6.48 -0.29
 -3 -2 37 2.53 0.11
 -3 2 37 -2.55 0.29
 -3 2 39 -2.51 -0.15
 -3 2 41 5.24 0.03
 -3 3 -38 -1.90 0.04
 -3 -3 -38 -1.89 0.18
 -3 3 -36 0.82 -0.01
 -3 -3 -36 0.82 -0.18
 -3 3 -34 1.17 -0.04
 -3 -3 -34 1.17 -0.04
 -3 -3 -32 -2.88 0.22
 -3 3 -32 -2.88 0.08
 -3 -3 -32 -2.88 0.22
 -3 3 -30 4.43 -0.10
 -3 -3 -30 4.42 -0.16
 -3 -3 -30 4.42 -0.16
 -3 3 -28 -6.55 0.12
 -3 -3 -28 -6.54 0.03
 -3 -3 -28 -6.54 0.03
 -3 3 -26 7.99 -0.14
 -3 -3 -26 7.98 -0.05
 -3 -3 -26 7.98 -0.05
 -3 3 -24 -5.99 0.07
 -3 -3 -24 -5.99 0.19
 -3 -3 -24 -5.99 0.19
 -3 3 -22 0.45 0.08
 -3 -3 -22 0.45 -0.20
 -3 -3 -22 0.45 -0.20
 -3 3 -20 5.09 -0.16
 -3 -3 -20 5.09 0.02
 -3 -3 -20 5.09 0.02
 -3 3 -18 -7.63 0.02
 -3 -3 -18 -7.63 0.15
 -3 -3 -18 -7.63 0.15
 -3 3 -16 6.50 0.30
 -3 -3 -16 6.48 -0.20
 -3 -3 -16 6.48 -0.20
 -3 3 -14 -0.51 -0.53
 -3 -3 -14 -0.47 0.22
 -3 -3 -14 -0.47 0.22
 -3 3 -12 -10.80 0.44
 -3 -3 -12 -10.84 -0.26
 -3 -3 -12 -10.84 -0.26
 -3 3 -10 21.11 -0.12
 -3 -3 -10 21.15 0.22
 -3 -3 -10 21.15 0.22
 -3 3 -8 -20.12 -0.14
 -3 -3 -8 -20.13 0.03
 -3 3 -6 6.80 0.21
 -3 3 -6 6.80 0.21
 -3 -3 -6 6.78 -0.38
 -3 3 -4 6.80 -0.21
 -3 3 -4 6.80 -0.21
 -3 -3 -4 6.83 0.57
 -3 -3 -2 -10.32 -0.47
 -3 3 -2 -10.30 0.26
 -3 3 -2 -10.30 0.26
 -3 -3 0 6.87 0.25
 -3 3 0 6.86 -0.30
 -3 3 0 6.86 -0.30
 -3 3 2 -4.44 0.25
 -3 3 4 2.57 -0.17
 -3 3 6 3.29 0.17
 -3 3 6 3.29 0.17
 -3 -3 8 -10.42 0.28
 -3 3 8 -10.41 -0.19
 -3 3 8 -10.41 -0.19
 -3 -3 10 11.59 -0.15
 -3 3 10 11.57 0.10
 -3 3 10 11.57 0.10
 -3 -3 12 -6.74 0.10
 -3 3 12 -6.71 0.02
 -3 -3 14 2.82 -0.09
 -3 3 14 2.80 -0.01
 -3 3 16 -3.17 -0.15
 -3 -3 16 -3.17 0.02
 -3 3 18 4.22 0.24
 -3 -3 18 4.22 0.07
 -3 -3 20 -2.65 -0.03
 -3 3 20 -2.63 -0.15
 -3 3 22 -0.45 -0.04
 -3 -3 22 -0.42 -0.08
 -3 -3 24 2.66 0.02
 -3 3 24 2.68 0.13
 -3 -3 26 -3.37 0.22
 -3 3 26 -3.36 -0.07
 -3 -3 28 2.32 -0.40
 -3 3 28 2.30 -0.08
 -3 -3 30 0.59 0.34
 -3 3 30 0.58 0.14
 -3 -3 32 -3.77 -0.17
 -3 3 32 -3.73 -0.04
 -3 -3 34 4.40 0.10
 -3 3 34 4.37 -0.12
 -3 3 36 -1.50 0.17
 -3 -3 36 -1.51 -0.10
 -3 3 38 -2.82 -0.08
 -3 3 40 5.65 0.00
 -3 4 -39 -1.30 -0.06
 -3 -4 -39 1.27 -0.21
 -3 4 -37 1.29 0.07
 -3 -4 -37 -1.25 0.29
 -3 4 -35 0.02 -0.06
 -3 -4 -35 -0.04 -0.03
 -3 4 -33 -2.23 -0.05
 -3 -4 -33 2.23 -0.33
 -3 -4 -33 2.23 -0.33
 -3 4 -31 3.84 0.21
 -3 -4 -31 -3.82 0.41
 -3 -4 -31 -3.82 0.41
 -3 4 -29 -4.16 -0.25
 -3 -4 -29 4.15 -0.19
 -3 -4 -29 4.15 -0.19
 -3 4 -27 3.73 0.12
 -3 -4 -27 -3.73 0.01
 -3 -4 -27 -3.73 0.01
 -3 4 -25 -2.42 0.02
 -3 -4 -25 2.42 -0.06
 -3 -4 -25 2.42 -0.06
 -3 4 -23 -0.47 0.03
 -3 -4 -23 0.45 0.15
 -3 -4 -23 0.45 0.15
 -3 4 -21 3.85 -0.18
 -3 -4 -21 -3.83 -0.04
 -3 -4 -21 -3.83 -0.04
 -3 4 -19 -5.31 0.16
 -3 -4 -19 5.29 -0.14
 -3 -4 -19 5.29 -0.14
 -3 4 -17 4.11 0.11
 -3 -4 -17 -4.09 0.15
 -3 -4 -17 -4.09 0.15
 -3 4 -15 -0.86 -0.42
 -3 -4 -15 0.85 -0.06
 -3 -4 -15 0.85 -0.06
 -3 4 -13 -4.50 0.46
 -3 -4 -13 4.52 0.11
 -3 4 -13 -4.50 0.46
 -3 -4 -13 4.52 0.11
 -3 4 -11 10.75 -0.22
 -3 -4 -11 -10.79 -0.31
 -3 -4 -11 -10.79 -0.31
 -3 4 -11 10.75 -0.22
 -3 4 -9 -13.15 -0.03
 -3 -4 -9 13.19 0.37
 -3 -4 -9 13.19 0.37
 -3 4 -7 8.97 0.07
 -3 -4 -7 -8.99 -0.13
 -3 4 -5 -3.49 0.00
 -3 -4 -5 3.47 -0.17
 -3 4 -5 -3.49 0.00
 -3 4 -3 3.43 0.03
 -3 -4 -3 -3.39 0.19
 -3 4 -3 3.43 0.03
 -3 -4 -1 6.27 0.05
 -3 4 -1 -6.29 -0.16
 -3 4 -1 -6.29 -0.16
 -3 -4 1 -4.23 -0.20
 -3 4 1 4.22 0.23
 -3 4 3 2.38 -0.16
 -3 4 5 -4.76 0.11
 -3 4 5 -4.76 0.11
 -3 4 7 -0.33 -0.13
 -3 4 7 -0.33 -0.13
 -3 4 9 5.97 0.13
 -3 -4 9 -5.96 0.10
 -3 4 9 5.97 0.13
 -3 4 11 -6.17 -0.05
 -3 4 11 -6.17 -0.05
 -3 -4 11 6.16 -0.01
 -3 4 13 3.28 0.03
 -3 -4 13 -3.26 0.04
 -3 4 15 -1.51 -0.18
 -3 -4 15 1.50 0.00
 -3 4 17 0.52 0.38
 -3 -4 17 -0.53 -0.15
 -3 4 19 1.50 -0.40
 -3 -4 19 -1.46 0.16
 -3 -4 21 3.65 0.09
 -3 4 21 -3.69 0.18
 -3 -4 23 -4.65 -0.31
 -3 4 23 4.68 0.08
 -3 4 25 -4.81 -0.15
 -3 -4 25 4.80 0.15
 -3 4 27 4.28 0.03
 -3 -4 27 -4.28 0.24
 -3 4 29 -2.42 0.09
 -3 -4 29 2.42 -0.43
 -3 4 31 0.02 -0.04
 -3 -4 31 0.01 0.30
 -3 4 33 0.50 -0.12
 -3 -4 33 -0.53 -0.15
 -3 4 35 1.61 0.17
 -3 4 37 -4.04 -0.05
 -3 4 39 4.48 -0.08
 -3 5 -38 -1.40 0.02
 -3 -5 -38 -1.45 -0.30
 -3 5 -36 1.58 -0.01
 -3 -5 -36 1.62 0.19
 -3 5 -34 -1.91 -0.07
 -3 -5 -34 -1.92 0.15
 -3 -5 -34 -1.92 0.15
 -3 5 -32 2.57 0.28
 -3 -5 -32 2.55 -0.39
 -3 -5 -32 2.55 -0.39
 -3 5 -30 -2.46 -0.48
 -3 -5 -30 -2.44 0.28
 -3 -5 -30 -2.44 0.28
 -3 5 -28 1.23 0.43
 -3 -5 -28 1.22 -0.02
 -3 -5 -28 1.22 -0.02
 -3 -5 -26 0.15 -0.08
 -3 -5 -26 0.15 -0.08
 -3 5 -26 0.14 -0.20
 -3 5 -24 -1.00 0.04
 -3 -5 -24 -1.01 -0.01
 -3 -5 -24 -1.01 -0.01
 -3 -5 -22 1.10 0.02
 -3 -5 -22 1.10 0.02
 -3 5 -22 1.09 -0.09
 -3 5 -20 0.27 0.17
 -3 -5 -20 0.28 0.09
 -3 -5 -20 0.28 0.09
 -3 -5 -18 -2.96 -0.12
 -3 5 -18 -2.95 -0.05
 -3 5 -16 5.05 -0.21
 -3 -5 -16 5.04 -0.03
 -3 -5 -16 5.04 -0.03
 -3 5 -14 -5.37 0.35
 -3 -5 -14 -5.36 0.12
 -3 5 -14 -5.37 0.35
 -3 -5 -14 -5.36 0.12
 -3 -5 -12 5.01 0.06
 -3 5 -12 5.00 -0.25
 -3 -5 -12 5.01 0.06
 -3 5 -12 5.00 -0.25
 -3 5 -10 -4.48 0.06
 -3 -5 -10 -4.52 -0.35
 -3 5 -10 -4.48 0.06
 -3 -5 -10 -4.52 -0.35
 -3 5 -8 2.84 -0.01
 -3 -5 -8 2.88 0.38
 -3 -5 -8 2.88 0.38
 -3 5 -8 2.84 -0.01
 -3 5 -6 -1.51 0.10
 -3 -5 -6 -1.52 -0.14
 -3 5 -6 -1.51 0.10
 -3 5 -6 -1.51 0.10
 -3 -5 -6 -1.52 -0.14
 -3 5 -4 4.27 -0.14
 -3 5 -4 4.27 -0.14
 -3 5 -4 4.27 -0.14
 -3 -5 -4 4.24 -0.02
 -3 5 -2 -10.05 0.02
 -3 5 -2 -10.05 0.02
 -3 -5 -2 -10.01 -0.14
 -3 5 -2 -10.05 0.02
 -3 5 0 11.41 0.11
 -3 5 0 11.41 0.11
 -3 5 0 11.41 0.11
 -3 -5 0 11.40 0.40
 -3 5 2 -4.74 -0.10
 -3 -5 2 -4.76 -0.39
 -3 5 4 -3.24 0.00
 -3 5 4 -3.24 0.00
 -3 5 6 4.27 0.04
 -3 5 6 4.27 0.04
 -3 5 8 0.87 0.02
 -3 5 8 0.87 0.02
 -3 5 10 -5.55 -0.06
 -3 -5 10 -5.53 -0.21
 -3 5 10 -5.55 -0.06
 -3 5 12 6.33 0.05
 -3 5 14 -4.04 -0.09
 -3 5 16 -0.15 0.22
 -3 -5 16 -0.15 0.21
 -3 -5 18 4.58 -0.37
 -3 5 18 4.61 -0.28
 -3 5 20 -6.65 0.14
 -3 -5 20 -6.61 0.22
 -3 5 22 5.72 0.12
 -3 -5 22 5.70 0.17
 -3 5 24 -4.73 -0.25
 -3 -5 24 -4.72 -0.34
 -3 -5 26 5.46 0.10
 -3 5 26 5.45 0.11
 -3 -5 28 -6.05 0.17
 -3 5 28 -6.06 0.11
 -3 -5 30 5.16 -0.15
 -3 5 30 5.18 -0.15
 -3 5 32 -4.83 -0.03
 -3 -5 32 -4.80 0.02
 -3 5 34 6.59 0.19
 -3 5 36 -8.14 -0.13
 -3 5 38 6.44 -0.05
 -3 6 -37 4.96 0.12
 -3 -6 -37 -4.98 -0.23
 -3 6 -35 -4.63 -0.11
 -3 -6 -35 4.65 0.11
 -3 -6 -35 4.65 0.11
 -3 6 -33 3.31 0.15
 -3 -6 -33 -3.30 0.08
 -3 6 -31 -1.99 -0.29
 -3 -6 -31 1.97 -0.11
 -3 -6 -31 1.97 -0.11
 -3 6 -29 0.61 0.34
 -3 -6 -29 -0.61 -0.04
 -3 -6 -29 -0.61 -0.04
 -3 -6 -27 -0.60 0.16
 -3 6 -27 0.60 -0.21
 -3 -6 -27 -0.60 0.16
 -3 6 -25 -0.97 0.00
 -3 -6 -25 0.99 -0.11
 -3 -6 -25 0.99 -0.11
 -3 6 -23 0.02 0.07
 -3 -6 -23 -0.05 0.01
 -3 -6 -23 -0.05 0.01
 -3 6 -21 2.58 0.00
 -3 -6 -21 -2.57 -0.04
 -3 -6 -21 -2.57 -0.04
 -3 6 -19 -6.42 -0.03
 -3 -6 -19 6.42 0.15
 -3 -6 -19 6.42 0.15
 -3 6 -17 8.96 -0.08
 -3 -6 -17 -8.97 -0.13
 -3 -6 -17 -8.97 -0.13
 -3 6 -15 -7.61 0.22
 -3 -6 -15 7.59 -0.01
 -3 -6 -15 7.59 -0.01
 -3 6 -15 -7.61 0.22
 -3 6 -13 3.48 -0.24
 -3 -6 -13 -3.47 0.06
 -3 6 -13 3.48 -0.24
 -3 -6 -13 -3.47 0.06
 -3 6 -11 -0.38 0.15
 -3 -6 -11 0.39 0.08
 -3 6 -11 -0.38 0.15
 -3 -6 -11 0.39 0.08
 -3 6 -9 -0.19 -0.10
 -3 -6 -9 0.16 -0.22
 -3 6 -9 -0.19 -0.10
 -3 -6 -9 0.16 -0.22
 -3 6 -7 -0.68 0.14
 -3 6 -7 -0.68 0.14
 -3 6 -7 -0.68 0.14
 -3 -6 -7 0.69 0.12
 -3 -6 -7 0.69 0.12
 -3 6 -5 3.14 -0.16
 -3 -6 -5 -3.12 0.08
 -3 6 -5 3.14 -0.16
 -3 -6 -5 -3.12 0.08
 -3 6 -5 3.14 -0.16
 -3 6 -3 -7.85 0.09
 -3 6 -3 -7.85 0.09
 -3 6 -3 -7.85 0.09
 -3 -6 -3 7.82 -0.08
 -3 -6 -3 7.82 -0.08
 -3 6 -1 11.63 0.03
 -3 6 -1 11.63 0.03
 -3 -6 -1 -11.62 -0.17
 -3 6 -1 11.63 0.03
 -3 6 1 -9.71 -0.06
 -3 -6 1 9.73 0.38
 -3 6 1 -9.71 -0.06
 -3 6 1 -9.71 -0.06
 -3 6 3 3.06 -0.04
 -3 6 3 3.06 -0.04
 -3 6 5 1.81 0.16
 -3 6 5 1.81 0.16
 -3 6 7 -0.92 -0.18
 -3 6 7 -0.92 -0.18
 -3 6 9 -3.55 0.11
 -3 -6 9 3.56 0.42
 -3 6 9 -3.55 0.11
 -3 6 11 7.28 -0.06
 -3 6 11 7.28 -0.06
 -3 6 13 -7.46 0.05
 -3 6 15 3.24 -0.04
 -3 6 17 3.09 0.04
 -3 6 19 -6.45 -0.11
 -3 6 21 4.44 0.27
 -3 6 23 -0.98 -0.35
 -3 -6 23 1.00 0.16
 -3 6 25 1.00 0.17
 -3 -6 25 -1.02 -0.26
 -3 6 27 -3.91 0.20
 -3 -6 27 3.91 0.16
 -3 -6 29 -6.09 -0.17
 -3 6 29 6.11 -0.45
 -3 6 31 -7.17 0.37
 -3 6 33 8.93 -0.10
 -3 6 35 -10.59 -0.05
 -3 6 37 9.14 0.00
 -3 6 39 -4.39 0.08
 -3 7 -36 -6.38 -0.19
 -3 -7 -36 -6.38 -0.15
 -3 -7 -36 -6.38 -0.15
 -3 7 -34 5.36 0.14
 -3 -7 -34 5.35 0.13
 -3 -7 -34 5.35 0.13
 -3 7 -32 -2.87 -0.12
 -3 -7 -32 -2.85 -0.08
 -3 -7 -30 0.48 0.09
 -3 7 -30 0.48 0.13
 -3 -7 -30 0.48 0.09
 -3 7 -28 1.03 -0.05
 -3 -7 -28 1.01 -0.16
 -3 -7 -28 1.01 -0.16
 -3 7 -26 -1.45 -0.11
 -3 -7 -26 -1.44 0.14
 -3 -7 -26 -1.44 0.14
 -3 -7 -24 0.95 -0.03
 -3 7 -24 0.94 0.20
 -3 -7 -24 0.95 -0.03
 -3 7 -22 0.57 -0.13
 -3 -7 -22 0.56 -0.02
 -3 -7 -22 0.56 -0.02
 -3 7 -20 -3.33 0.00
 -3 -7 -20 -3.34 -0.11
 -3 -7 -20 -3.34 -0.11
 -3 7 -18 6.00 0.05
 -3 -7 -18 6.03 0.29
 -3 -7 -18 6.03 0.29
 -3 7 -16 -5.62 0.00
 -3 -7 -16 -5.63 -0.28
 -3 -7 -16 -5.63 -0.28
 -3 -7 -14 1.52 0.11
 -3 7 -14 1.52 -0.06
 -3 -7 -14 1.52 0.11
 -3 7 -14 1.52 -0.06
 -3 -7 -12 2.34 0.01
 -3 -7 -12 2.34 0.01
 -3 7 -12 2.34 0.07
 -3 7 -12 2.34 0.07
 -3 -7 -10 -1.99 0.01
 -3 -7 -10 -1.99 0.01
 -3 7 -10 -2.00 -0.07
 -3 7 -10 -2.00 -0.07
 -3 7 -10 -2.00 -0.07
 -3 7 -8 -1.60 0.09
 -3 7 -8 -1.60 0.09
 -3 -7 -8 -1.60 -0.03
 -3 7 -8 -1.60 0.09
 -3 -7 -8 -1.60 -0.03
 -3 -7 -6 4.99 -0.09
 -3 7 -6 5.00 -0.08
 -3 7 -6 5.00 -0.08
 -3 7 -6 5.00 -0.08
 -3 -7 -6 4.99 -0.09
 -3 7 -4 -7.13 0.01
 -3 7 -4 -7.13 0.01
 -3 7 -4 -7.13 0.01
 -3 -7 -4 -7.11 0.22
 -3 -7 -4 -7.11 0.22
 -3 -7 -2 8.49 -0.15
 -3 7 -2 8.49 0.08
 -3 -7 -2 8.49 -0.15
 -3 7 0 -8.20 -0.12
 -3 -7 0 -8.22 -0.08
 -3 -7 0 -8.22 -0.08
 -3 -7 2 5.58 0.25
 -3 7 2 5.57 0.06
 -3 7 2 5.57 0.06
 -3 7 2 5.57 0.06
 -3 7 4 -2.59 0.06
 -3 7 4 -2.59 0.06
 -3 7 6 1.90 -0.16
 -3 7 6 1.90 -0.16
 -3 7 8 -3.62 0.17
 -3 7 8 -3.62 0.17
 -3 7 10 6.09 -0.10
 -3 7 10 6.09 -0.10
 -3 7 12 -7.47 0.05
 -3 7 14 5.93 -0.06
 -3 7 16 -1.25 0.10
 -3 7 18 -2.94 -0.16
 -3 7 20 2.35 0.27
 -3 7 22 2.09 -0.35
 -3 7 24 -5.06 0.25
 -3 7 26 3.82 0.06
 -3 7 28 -0.55 -0.37
 -3 7 30 -2.35 0.46
 -3 7 32 4.84 -0.30
 -3 7 34 -6.67 0.10
 -3 7 36 6.31 -0.03
 -3 7 38 -3.66 0.03
 -3 8 -35 4.38 0.10
 -3 -8 -35 -4.38 -0.11
 -3 -8 -35 -4.38 -0.11
 -3 8 -33 -3.37 -0.08
 -3 -8 -33 3.36 0.09
 -3 -8 -33 3.36 0.09
 -3 8 -31 1.11 0.07
 -3 -8 -31 -1.10 -0.02
 -3 -8 -31 -1.10 -0.02
 -3 8 -29 0.80 0.00
 -3 -8 -29 -0.78 0.02
 -3 -8 -29 -0.78 0.02
 -3 8 -27 -1.39 -0.13
 -3 -8 -27 1.36 -0.07
 -3 -8 -27 1.36 -0.07
 -3 8 -25 0.97 0.20
 -3 -8 -25 -0.97 0.06
 -3 -8 -25 -0.97 0.06
 -3 8 -23 -0.43 -0.09
 -3 -8 -23 0.45 0.02
 -3 -8 -23 0.45 0.02
 -3 8 -21 -0.21 -0.15
 -3 -8 -21 0.22 0.00
 -3 -8 -21 0.22 0.00
 -3 -8 -19 -1.42 -0.18
 -3 -8 -19 -1.42 -0.18
 -3 8 -19 1.38 0.31
 -3 -8 -17 2.02 0.33
 -3 -8 -17 2.02 0.33
 -3 8 -17 -1.98 -0.33
 -3 -8 -15 -0.35 -0.23
 -3 -8 -15 -0.35 -0.23
 -3 8 -15 0.34 0.26
 -3 8 -13 2.24 -0.19
 -3 -8 -13 -2.24 -0.02
 -3 -8 -13 -2.24 -0.02
 -3 8 -13 2.24 -0.19
 -3 8 -11 -1.95 0.12
 -3 8 -11 -1.95 0.12
 -3 -8 -11 1.94 0.13
 -3 -8 -11 1.94 0.13
 -3 8 -11 -1.95 0.12
 -3 8 -9 -2.31 -0.03
 -3 8 -9 -2.31 -0.03
 -3 -8 -9 2.31 -0.04
 -3 8 -9 -2.31 -0.03
 -3 -8 -9 2.31 -0.04
 -3 8 -7 6.95 -0.02
 -3 -8 -7 -6.94 -0.02
 -3 -8 -7 -6.94 -0.02
 -3 8 -7 6.95 -0.02
 -3 8 -5 -8.31 -0.03
 -3 -8 -5 8.29 -0.08
 -3 -8 -5 8.29 -0.08
 -3 8 -5 -8.31 -0.03
 -3 8 -3 6.52 0.10
 -3 -8 -3 -6.53 0.19
 -3 -8 -3 -6.53 0.19
 -3 8 -1 -4.09 -0.12
 -3 -8 -1 4.13 -0.14
 -3 -8 -1 4.13 -0.14
 -3 -8 1 -2.96 0.00
 -3 8 1 2.94 0.09
 -3 -8 1 -2.96 0.00
 -3 8 3 -3.66 -0.03
 -3 -8 3 3.64 0.10
 -3 -8 3 3.64 0.10
 -3 8 3 -3.66 -0.03
 -3 8 5 5.43 -0.02
 -3 8 5 5.43 -0.02
 -3 -8 5 -5.38 -0.14
 -3 8 7 -6.30 0.03
 -3 8 7 -6.30 0.03
 -3 8 9 5.32 0.02
 -3 8 9 5.32 0.02
 -3 -8 9 -5.34 -0.25
 -3 8 11 -3.81 -0.09
 -3 8 11 -3.81 -0.09
 -3 8 13 2.95 0.12
 -3 8 15 -1.87 -0.12
 -3 8 17 -0.04 0.09
 -3 8 19 0.84 -0.01
 -3 8 21 1.19 -0.13
 -3 8 23 -4.54 0.23
 -3 8 25 6.40 -0.20
 -3 8 27 -5.87 0.10
 -3 8 29 3.74 -0.05
 -3 8 31 -1.05 0.08
 -3 8 33 -0.85 -0.07
 -3 8 35 0.74 0.01
 -3 8 37 0.59 0.01
 -3 -9 -34 -0.92 -0.11
 -3 9 -34 -0.91 0.09
 -3 -9 -34 -0.92 -0.11
 -3 9 -32 0.55 -0.03
 -3 -9 -32 0.55 0.00
 -3 -9 -32 0.55 0.00
 -3 9 -30 0.40 0.02
 -3 -9 -30 0.39 0.09
 -3 -9 -30 0.39 0.09
 -3 9 -28 -0.68 -0.11
 -3 -9 -28 -0.66 -0.04
 -3 -9 -28 -0.66 -0.04
 -3 9 -26 -0.12 0.16
 -3 -9 -26 -0.13 -0.09
 -3 -9 -26 -0.13 -0.09
 -3 9 -24 0.94 -0.02
 -3 -9 -24 0.92 0.10
 -3 -9 -24 0.92 0.10
 -3 9 -22 -0.72 -0.28
 -3 -9 -22 -0.70 -0.01
 -3 -9 -22 -0.70 -0.01
 -3 9 -20 -0.04 0.53
 -3 -9 -20 -0.02 0.01
 -3 -9 -20 -0.02 0.01
 -3 9 -18 0.31 -0.57
 -3 -9 -18 0.27 -0.12
 -3 -9 -18 0.27 -0.12
 -3 9 -16 -0.33 0.48
 -3 -9 -16 -0.32 0.15
 -3 -9 -16 -0.32 0.15
 -3 9 -14 0.58 -0.37
 -3 -9 -14 0.60 0.04
 -3 -9 -14 0.60 0.04
 -3 9 -12 0.26 0.26
 -3 9 -12 0.26 0.26
 -3 -9 -12 0.24 -0.21
 -3 -9 -12 0.24 -0.21
 -3 9 -12 0.26 0.26
 -3 9 -10 -3.66 -0.10
 -3 -9 -10 -3.65 0.13
 -3 -9 -10 -3.65 0.13
 -3 9 -10 -3.66 -0.10
 -3 9 -8 7.93 -0.04
 -3 -9 -8 7.92 0.08
 -3 -9 -8 7.92 0.08
 -3 9 -8 7.93 -0.04
 -3 -9 -6 -9.15 -0.12
 -3 9 -6 -9.18 0.05
 -3 -9 -6 -9.15 -0.12
 -3 9 -6 -9.18 0.05
 -3 -9 -4 5.91 -0.05
 -3 9 -4 5.92 0.02
 -3 -9 -4 5.91 -0.05
 -3 -9 -2 -1.11 0.20
 -3 -9 -2 -1.11 0.20
 -3 -9 0 -0.85 -0.16
 -3 -9 0 -0.85 -0.16
 -3 -9 2 -1.83 0.04
 -3 -9 2 -1.83 0.04
 -3 -9 4 6.63 0.02
 -3 9 4 6.68 -0.06
 -3 -9 4 6.63 0.02
 -3 9 6 -8.80 -0.04
 -3 -9 6 -8.75 -0.06
 -3 -9 8 5.70 0.12
 -3 9 8 5.71 0.13
 -3 -9 8 5.70 0.12
 -3 9 10 -0.14 -0.18
 -3 -9 10 -0.18 -0.15
 -3 9 12 -3.05 0.21
 -3 -9 12 -3.01 0.06
 -3 9 14 2.40 -0.22
 -3 -9 14 2.38 0.13
 -3 9 16 -0.44 0.25
 -3 -9 16 -0.44 -0.29
 -3 9 18 -0.36 -0.25
 -3 -9 18 -0.36 0.31
 -3 9 20 0.10 0.12
 -3 -9 20 0.08 -0.19
 -3 9 22 0.04 0.08
 -3 -9 22 0.09 0.05
 -3 9 24 0.56 -0.24
 -3 9 26 -1.71 0.33
 -3 9 28 2.49 -0.42
 -3 9 30 -1.98 0.48
 -3 9 32 0.87 -0.37
 -3 9 34 -1.00 0.10
 -3 9 36 2.33 0.10
 -3 10 -33 -1.71 -0.17
 -3 -10 -33 1.71 -0.14
 -3 -10 -33 1.71 -0.14
 -3 10 -31 1.80 0.11
 -3 -10 -31 -1.80 0.00
 -3 -10 -31 -1.80 0.00
 -3 10 -29 -1.60 -0.12
 -3 -10 -29 1.58 0.05
 -3 -10 -29 1.58 0.05
 -3 10 -27 0.55 0.14
 -3 -10 -27 -0.53 0.07
 -3 -10 -27 -0.53 0.07
 -3 10 -25 0.90 -0.03
 -3 -10 -25 -0.89 -0.19
 -3 -10 -25 -0.89 -0.19
 -3 10 -23 -1.38 -0.23
 -3 -10 -23 1.35 0.14
 -3 -10 -23 1.35 0.14
 -3 10 -21 0.25 0.47
 -3 -10 -21 -0.25 0.01
 -3 -10 -21 -0.25 0.01
 -3 10 -19 1.41 -0.52
 -3 -10 -19 -1.38 -0.04
 -3 -10 -19 -1.38 -0.04
 -3 10 -17 -2.27 0.42
 -3 -10 -17 2.25 -0.02
 -3 -10 -17 2.25 -0.02
 -3 10 -15 2.08 -0.33
 -3 -10 -15 -2.11 -0.01
 -3 -10 -15 -2.11 -0.01
 -3 10 -13 -0.83 0.26
 -3 10 -13 -0.83 0.26
 -3 10 -13 -0.83 0.26
 -3 -10 -13 0.88 0.13
 -3 -10 -13 0.88 0.13
 -3 10 -11 -2.03 -0.10
 -3 10 -11 -2.03 -0.10
 -3 -10 -11 2.00 -0.12
 -3 -10 -11 2.00 -0.12
 -3 10 -9 5.97 -0.07
 -3 -10 -9 -5.95 -0.09
 -3 -10 -9 -5.95 -0.09
 -3 10 -7 -8.01 0.11
 -3 -10 -7 7.97 0.23
 -3 -10 -7 7.97 0.23
 -3 -10 -5 -5.34 -0.09
 -3 -10 -5 -5.34 -0.09
 -3 -10 -3 -0.42 -0.18
 -3 -10 -3 -0.42 -0.18
 -3 -10 -1 3.93 0.28
 -3 -10 -1 3.93 0.28
 -3 -10 1 -1.29 -0.17
 -3 -10 1 -1.29 -0.17
 -3 -10 3 -5.34 0.04
 -3 -10 3 -5.34 0.04
 -3 10 5 -9.38 -0.02
 -3 -10 5 9.34 0.02
 -3 -10 5 9.34 0.02
 -3 10 7 6.39 0.17
 -3 -10 7 -6.38 -0.04
 -3 -10 7 -6.38 -0.04
 -3 -10 9 -1.03 0.10
 -3 10 9 1.07 -0.21
 -3 -10 9 -1.03 0.10
 -3 10 11 -6.45 0.17
 -3 10 11 -6.45 0.17
 -3 -10 11 6.41 -0.14
 -3 10 13 6.11 -0.16
 -3 -10 13 -6.09 0.03
 -3 10 15 -1.97 0.21
 -3 -10 15 1.96 0.21
 -3 10 17 -1.73 -0.26
 -3 -10 17 1.75 -0.39
 -3 -10 19 -2.31 0.33
 -3 10 19 2.30 0.19
 -3 10 21 0.37 0.01
 -3 -10 21 -0.40 -0.07
 -3 10 23 -4.17 -0.17
 -3 10 25 5.99 0.21
 -3 10 27 -4.50 -0.22
 -3 10 29 1.65 0.29
 -3 10 31 -0.01 -0.28
 -3 10 33 -0.47 0.06
 -3 -11 -32 2.90 -0.14
 -3 -11 -32 2.90 -0.14
 -3 -11 -30 -3.32 0.01
 -3 -11 -30 -3.32 0.01
 -3 -11 -28 2.94 0.02
 -3 -11 -28 2.94 0.02
 -3 11 -26 -1.65 0.00
 -3 -11 -26 -1.63 0.10
 -3 -11 -26 -1.63 0.10
 -3 -11 -24 -0.03 -0.16
 -3 -11 -24 -0.03 -0.16
 -3 11 -24 -0.04 -0.15
 -3 11 -22 0.80 0.27
 -3 -11 -22 0.80 0.05
 -3 -11 -22 0.80 0.05
 -3 11 -20 0.05 -0.27
 -3 -11 -20 0.02 0.08
 -3 -11 -20 0.02 0.08
 -3 11 -18 -1.83 0.19
 -3 -11 -18 -1.79 -0.07
 -3 -11 -18 -1.79 -0.07
 -3 11 -16 3.29 -0.18
 -3 -11 -16 3.29 -0.01
 -3 -11 -16 3.29 -0.01
 -3 -11 -14 -3.74 0.01
 -3 -11 -14 -3.74 0.01
 -3 11 -14 -3.69 0.23
 -3 11 -12 2.48 -0.18
 -3 -11 -12 2.52 0.02
 -3 -11 -12 2.52 0.02
 -3 -11 -10 0.58 0.08
 -3 11 -10 0.59 0.01
 -3 -11 -10 0.58 0.08
 -3 -11 -8 -3.99 -0.24
 -3 11 -8 -4.01 0.06
 -3 -11 -8 -3.99 -0.24
 -3 -11 -6 4.47 0.20
 -3 -11 -6 4.47 0.20
 -3 11 -6 4.51 0.08
 -3 -11 -4 -0.63 0.07
 -3 -11 -4 -0.63 0.07
 -3 -11 -2 -3.93 -0.30
 -3 -11 -2 -3.93 -0.30
 -3 -11 0 3.68 0.31
 -3 -11 0 3.68 0.31
 -3 -11 2 2.15 -0.16
 -3 -11 2 2.15 -0.16
 -3 -11 4 -7.55 0.06
 -3 -11 4 -7.55 0.06
 -3 -11 6 6.36 -0.08
 -3 -11 6 6.36 -0.08
 -3 -11 8 0.58 0.09
 -3 11 8 0.61 -0.23
 -3 -11 8 0.58 0.09
 -3 -11 10 -6.73 0.01
 -3 -11 12 7.35 -0.13
 -3 11 12 7.36 -0.10
 -3 -11 14 -3.32 0.09
 -3 11 14 -3.32 0.18
 -3 11 16 -1.63 -0.27
 -3 -11 16 -1.65 0.10
 -3 11 18 4.40 0.23
 -3 -11 18 4.43 -0.21
 -3 11 20 -3.06 -0.03
 -3 -11 20 -3.07 0.04
 -3 11 22 -2.28 -0.15
 -3 11 24 8.02 0.14
 -3 11 26 -9.26 0.03
 -3 11 28 5.25 -0.13
 -3 11 30 -0.25 0.10
 -3 11 32 -1.88 -0.09
 -3 -12 -29 -4.24 -0.05
 -3 -12 -29 -4.24 -0.05
 -3 -12 -27 4.48 0.05
 -3 -12 -27 4.48 0.05
 -3 -12 -25 -2.82 0.07
 -3 -12 -25 -2.82 0.07
 -3 -12 -23 -0.55 -0.11
 -3 -12 -23 -0.55 -0.11
 -3 -12 -21 3.41 0.01
 -3 -12 -21 3.41 0.01
 -3 -12 -19 -3.68 0.07
 -3 -12 -19 -3.68 0.07
 -3 -12 -17 1.62 -0.03
 -3 -12 -17 1.62 -0.03
 -3 -12 -15 0.94 -0.02
 -3 -12 -15 0.94 -0.02
 -3 -12 -13 -2.48 0.01
 -3 -12 -13 -2.48 0.01
 -3 -12 -11 2.29 -0.02
 -3 12 -11 -2.28 0.18
 -3 -12 -11 2.29 -0.02
 -3 -12 -9 -0.28 0.13
 -3 -12 -9 -0.28 0.13
 -3 12 -9 0.29 -0.02
 -3 12 -7 2.12 0.06
 -3 -12 -7 -2.11 -0.22
 -3 -12 -7 -2.11 -0.22
 -3 -12 -5 2.20 0.13
 -3 -12 -5 2.20 0.13
 -3 -12 -3 0.57 0.09
 -3 -12 -3 0.57 0.09
 -3 -12 -1 -2.66 -0.22
 -3 -12 -1 -2.66 -0.22
 -3 -12 1 0.45 0.18
 -3 -12 1 0.45 0.18
 -3 -12 3 4.17 -0.10
 -3 -12 3 4.17 -0.10
 -3 -12 5 -5.40 0.11
 -3 -12 5 -5.40 0.11
 -3 -12 7 1.06 -0.21
 -3 -12 7 1.06 -0.21
 -3 -12 9 4.69 0.20
 -3 -12 9 4.69 0.20
 -3 12 11 6.82 0.09
 -3 -12 11 -6.83 -0.02
 -3 12 13 -4.81 0.11
 -3 -12 13 4.83 -0.18
 -3 12 15 1.06 -0.31
 -3 -12 15 -1.05 0.18
 -3 12 17 2.53 0.32
 -3 -12 17 -2.57 -0.02
 -3 12 19 -4.10 -0.15
 -3 -12 19 4.15 0.01
 -3 12 21 1.50 -0.05
 -3 12 23 4.50 0.09
 -3 12 25 -8.68 0.05
 -3 12 27 6.69 -0.23
 -3 12 29 -0.63 0.25
 -3 12 31 -3.69 -0.14
 -3 -13 -28 -5.58 -0.07
 -3 -13 -28 -5.58 -0.07
 -3 -13 -26 6.24 0.00
 -3 -13 -26 6.24 0.00
 -3 -13 -24 -2.98 0.15
 -3 -13 -24 -2.98 0.15
 -3 -13 -22 -3.13 -0.18
 -3 -13 -22 -3.13 -0.18
 -3 -13 -20 7.62 0.07
 -3 -13 -20 7.62 0.07
 -3 -13 -18 -7.72 0.02
 -3 -13 -18 -7.72 0.02
 -3 -13 -16 5.02 -0.04
 -3 -13 -16 5.02 -0.04
 -3 -13 -14 -2.42 0.05
 -3 -13 -14 -2.42 0.05
 -3 -13 -12 0.61 -0.08
 -3 -13 -12 0.61 -0.08
 -3 -13 -10 0.74 0.02
 -3 -13 -10 0.74 0.02
 -3 13 -8 -1.12 -0.05
 -3 -13 -8 -1.10 0.14
 -3 -13 -8 -1.10 0.14
 -3 13 -6 0.38 0.04
 -3 -13 -6 0.37 -0.26
 -3 -13 -6 0.37 -0.26
 -3 -13 -4 -0.15 0.22
 -3 -13 -4 -0.15 0.22
 -3 -13 -2 1.22 -0.09
 -3 -13 -2 1.22 -0.09
 -3 -13 0 -1.58 0.01
 -3 -13 0 -1.58 0.01
 -3 -13 2 -0.50 -0.01
 -3 -13 2 -0.50 -0.01
 -3 -13 4 3.02 0.00
 -3 -13 6 -2.73 0.07
 -3 -13 8 -0.22 -0.13
 -3 -13 10 2.88 0.05
 -3 13 12 -3.57 -0.17
 -3 -13 12 -3.62 0.16
 -3 13 14 2.79 -0.18
 -3 -13 14 2.80 -0.27
 -3 13 16 -0.58 0.27
 -3 -13 16 -0.55 0.18
 -3 13 18 -2.55 -0.16
 -3 13 20 3.79 0.06
 -3 13 22 -0.65 -0.06
 -3 13 24 -4.46 0.12
 -3 13 26 6.01 -0.17
 -3 13 28 -2.23 0.16
 -3 -14 -25 6.36 -0.12
 -3 -14 -23 -1.56 0.24
 -3 -14 -21 -4.85 -0.20
 -3 -14 -19 7.53 0.06
 -3 -14 -17 -5.89 0.05
 -3 -14 -15 3.81 -0.11
 -3 -14 -13 -3.16 0.16
 -3 -14 -11 1.84 -0.14
 -3 -14 -9 1.33 0.01
 -3 14 -7 3.97 0.13
 -3 -14 -7 -3.95 0.18
 -3 -14 -5 3.99 -0.30
 -3 14 -5 -4.00 -0.22
 -3 -14 -3 -2.79 0.29
 -3 -14 -1 2.21 -0.19
 -3 -14 1 -1.68 0.10
 -3 -14 3 0.07 -0.05
 -3 -14 5 1.80 0.02
 -3 -14 7 -2.54 -0.02
 -3 -14 9 2.02 0.07
 -3 14 11 0.77 -0.41
 -3 -14 11 -0.70 -0.19
 -3 14 13 0.89 0.00
 -3 -14 13 -0.90 0.28
 -3 -14 15 1.20 -0.22
 -3 14 15 -1.22 0.15
 -3 14 17 -1.36 -0.01
 -3 14 19 5.15 -0.06
 -3 14 21 -5.75 -0.09
 -3 14 23 1.69 0.23
 -3 14 25 2.97 -0.21
 -3 -15 -22 1.34 0.13
 -3 -15 -20 -4.04 -0.06
 -3 -15 -18 2.62 -0.06
 -3 -15 -16 -0.06 0.14
 -3 -15 -14 0.27 -0.20
 -3 -15 -12 -1.82 0.24
 -3 -15 -10 0.60 -0.19
 -3 -15 -8 3.16 0.05
 -3 -15 -6 -5.17 0.12
 -3 15 -4 3.59 0.29
 -3 -15 -4 3.58 -0.22
 -3 -15 -2 -0.95 0.20
 -3 15 -2 -0.91 -0.52
 -3 -15 0 -0.21 -0.10
 -3 -15 2 0.26 -0.01
 -3 -15 4 -0.60 0.08
 -3 -15 6 1.57 -0.08
 -3 15 8 -2.68 0.23
 -3 -15 8 -2.65 0.01
 -3 15 10 2.95 -0.34
 -3 -15 10 2.88 0.10
 -3 15 12 -1.46 0.05
 -3 -15 12 -1.44 -0.20
 -3 15 14 -0.58 0.14
 -3 -15 14 -0.56 0.18
 -3 15 16 0.12 0.02
 -3 15 18 3.81 -0.21
 -3 15 20 -7.47 0.10
 -3 15 22 6.38 0.16
 -3 -16 -19 -1.46 0.08
 -3 -16 -17 -2.37 -0.12
 -3 -16 -15 3.98 0.17
 -3 -16 -13 -2.13 -0.24
 -3 -16 -11 0.48 0.29
 -3 -16 -9 -1.69 -0.24
 -3 -16 -7 3.34 0.09
 -3 -16 -5 -2.07 0.08
 -3 -16 -3 -1.46 -0.17
 -3 16 -3 1.46 -0.46
 -3 16 -1 -4.09 0.58
 -3 -16 -1 4.07 0.15
 -3 16 1 4.34 -0.20
 -3 -16 1 -4.35 -0.04
 -3 16 3 -3.11 -0.37
 -3 -16 3 3.19 -0.08
 -3 16 5 1.82 0.54
 -3 -16 5 -1.91 0.17
 -3 -16 7 1.44 -0.19
 -3 16 7 -1.42 -0.19
 -3 16 9 1.91 -0.17
 -3 -16 9 -1.84 0.12
 -3 16 11 -1.87 0.14
 -3 -16 11 1.82 0.01
 -3 16 13 0.21 0.06
 -3 -16 13 -0.23 -0.09
 -3 16 15 1.41 -0.02
 -3 16 17 -0.17 -0.19
 -3 16 19 -3.46 0.23
 -3 -17 -14 4.99 0.12
 -3 -17 -12 -3.65 -0.18
 -3 -17 -10 3.07 0.20
 -3 -17 -8 -3.13 -0.12
 -3 -17 -6 1.80 -0.05
 -3 -17 -4 1.12 0.20
 -3 -17 -2 -3.79 -0.25
 -3 17 0 5.18 -0.72
 -3 -17 0 5.16 0.20
 -3 -17 2 -5.42 -0.08
 -3 17 2 -5.40 0.23
 -3 17 4 4.48 0.25
 -3 -17 4 4.56 -0.05
 -3 17 6 -2.72 -0.26
 -3 -17 6 -2.75 0.16
 -3 -17 8 1.40 -0.20
 -3 17 8 1.46 -0.09
 -3 17 10 -1.48 0.32
 -3 -17 10 -1.38 0.14
 -3 17 12 1.40 -0.25
 -3 -17 12 1.37 0.00
 -3 17 14 0.05 0.12
 -3 -18 -5 0.14 -0.18
 -3 -18 -3 0.36 0.23
 -3 -18 -1 -0.63 -0.20
 -3 -18 1 2.15 0.12
 -3 18 3 4.09 -0.16
 -3 -18 3 -4.11 -0.04
 -3 18 5 -3.99 -0.09
 -3 -18 5 4.02 -0.04
 -3 18 7 1.77 -0.05
 -3 -18 7 -1.74 0.12
 -2 0 -40 1.61 0.14
 -2 0 -38 0.38 -0.08
 -2 0 -36 -4.73 -0.02
 -2 0 -34 8.55 0.00
 -2 0 -32 -7.11 0.09
 -2 0 -30 0.44 -0.11
 -2 0 -28 5.42 0.01
 -2 0 -26 -5.50 0.05
 -2 0 -24 1.51 0.02
 -2 0 -24 1.51 0.02
 -2 0 -22 1.98 -0.12
 -2 0 -22 1.98 -0.12
 -2 0 -20 -2.99 0.10
 -2 0 -20 -2.99 0.10
 -2 0 -18 0.55 0.02
 -2 0 -18 0.55 0.02
 -2 0 -16 6.37 -0.08
 -2 0 -16 6.37 -0.08
 -2 0 -14 -12.52 0.04
 -2 0 -14 -12.52 0.04
 -2 0 -12 5.96 0.02
 -2 0 -12 5.96 0.02
 -2 0 -10 15.60 -0.05
 -2 0 -10 15.60 -0.05
 -2 0 -8 -34.60 0.13
 -2 0 -6 33.57 -0.26
 -2 0 -4 -20.09 0.31
 -2 0 4 24.71 0.27
 -2 0 6 -46.18 -0.30
 -2 0 8 37.19 0.20
 -2 0 10 -9.79 -0.10
 -2 0 12 -7.78 0.12
 -2 0 14 6.62 -0.15
 -2 0 16 0.01 0.10
 -2 0 16 0.01 0.10
 -2 0 18 -0.45 -0.04
 -2 0 18 -0.45 -0.04
 -2 0 20 -3.90 0.07
 -2 0 20 -3.90 0.07
 -2 0 22 7.61 -0.16
 -2 0 22 7.61 -0.16
 -2 0 24 -8.88 0.14
 -2 0 26 7.23 0.02
 -2 0 28 -1.92 -0.18
 -2 0 30 -4.97 0.17
 -2 0 32 8.49 -0.06
 -2 0 34 -6.23 -0.01
 -2 0 36 1.24 0.01
 -2 0 38 1.76 0.00
 -2 0 40 -1.51 0.04
 -2 1 -39 -1.24 0.05
 -2 -1 -39 1.23 0.22
 -2 1 -37 -0.32 -0.14
 -2 -1 -37 0.34 -0.12
 -2 1 -35 3.79 0.14
 -2 -1 -35 -3.82 0.04
 -2 1 -33 -5.50 -0.07
 -2 -1 -33 5.52 -0.12
 -2 1 -31 2.26 0.03
 -2 -1 -31 -2.28 0.19
 -2 1 -29 3.41 -0.05
 -2 -1 -29 -3.39 -0.06
 -2 1 -27 -5.68 0.04
 -2 -1 -27 5.65 -0.14
 -2 1 -25 2.71 0.00
 -2 -1 -25 -2.69 0.13
 -2 -1 -25 -2.69 0.13
 -2 1 -23 1.67 -0.01
 -2 -1 -23 -1.67 0.10
 -2 -1 -23 -1.67 0.10
 -2 -1 -21 3.62 -0.26
 -2 1 -21 -3.64 -0.06
 -2 -1 -21 3.62 -0.26
 -2 1 -19 2.37 0.11
 -2 -1 -19 -2.37 0.12
 -2 1 -19 2.37 0.11
 -2 -1 -19 -2.37 0.12
 -2 1 -17 2.42 -0.06
 -2 -1 -17 -2.41 0.12
 -2 1 -17 2.42 -0.06
 -2 -1 -17 -2.41 0.12
 -2 1 -15 -9.23 -0.06
 -2 -1 -15 9.22 -0.21
 -2 1 -15 -9.23 -0.06
 -2 -1 -15 9.22 -0.21
 -2 1 -13 10.52 0.11
 -2 -1 -13 -10.51 0.14
 -2 1 -13 10.52 0.11
 -2 -1 -13 -10.51 0.14
 -2 1 -11 0.88 -0.09
 -2 1 -11 0.88 -0.09
 -2 -1 -11 -0.91 -0.12
 -2 -1 -11 -0.91 -0.12
 -2 -1 -9 18.28 0.17
 -2 1 -9 -18.25 0.15
 -2 -1 -9 18.28 0.17
 -2 1 -7 25.11 -0.31
 -2 -1 -7 -25.13 -0.14
 -2 1 -5 -18.20 0.41
 -2 -1 -5 18.19 0.00
 -2 1 -3 13.07 -0.30
 -2 -1 -3 -13.04 0.10
 -2 -1 3 -1.44 -0.25
 -2 1 3 1.42 -0.01
 -2 1 5 -27.84 -0.06
 -2 -1 5 27.87 0.42
 -2 -1 7 -33.42 -0.38
 -2 1 7 33.40 0.07
 -2 -1 9 14.01 0.15
 -2 1 9 -14.00 -0.08
 -2 -1 11 7.23 0.02
 -2 1 11 -7.22 0.16
 -2 1 13 11.96 -0.23
 -2 -1 13 -11.96 -0.03
 -2 1 13 11.96 -0.23
 -2 1 15 -5.45 0.16
 -2 1 15 -5.45 0.16
 -2 -1 15 5.45 -0.03
 -2 1 17 1.40 0.03
 -2 1 17 1.40 0.03
 -2 -1 17 -1.40 0.04
 -2 -1 19 3.19 -0.08
 -2 1 19 -3.17 -0.12
 -2 1 19 -3.17 -0.12
 -2 -1 19 3.19 -0.08
 -2 1 21 6.07 0.00
 -2 -1 21 -6.08 0.15
 -2 -1 21 -6.08 0.15
 -2 -1 23 7.40 -0.16
 -2 1 23 -7.41 0.19
 -2 -1 23 7.40 -0.16
 -2 1 25 7.26 -0.24
 -2 -1 25 -7.23 0.00
 -2 -1 25 -7.23 0.00
 -2 1 27 -4.70 0.11
 -2 -1 27 4.68 0.20
 -2 1 29 -0.60 0.06
 -2 -1 29 0.60 -0.22
 -2 1 31 5.46 -0.15
 -2 -1 31 -5.44 0.03
 -2 1 33 -5.97 0.17
 -2 -1 33 5.95 0.14
 -2 -1 35 -2.32 -0.14
 -2 1 35 2.34 -0.19
 -2 -1 37 -1.58 0.02
 -2 1 37 1.56 0.18
 -2 1 39 -2.87 -0.12
 -2 1 41 2.06 0.04
 -2 2 -40 -0.03 0.03
 -2 -2 -40 -0.04 -0.15
 -2 2 -38 2.07 -0.11
 -2 -2 -38 2.05 0.09
 -2 2 -36 -2.17 0.09
 -2 -2 -36 -2.13 0.05
 -2 2 -34 0.28 -0.02
 -2 -2 -34 0.25 -0.02
 -2 2 -32 0.54 0.04
 -2 -2 -32 0.54 -0.13
 -2 2 -30 1.49 -0.14
 -2 -2 -30 1.49 0.13
 -2 2 -28 -3.70 0.17
 -2 -2 -28 -3.69 0.10
 -2 -2 -28 -3.69 0.10
 -2 2 -26 2.45 -0.07
 -2 -2 -26 2.43 -0.25
 -2 -2 -26 2.43 -0.25
 -2 2 -24 1.55 -0.02
 -2 -2 -24 1.56 0.10
 -2 -2 -24 1.56 0.10
 -2 2 -22 -4.08 -0.04
 -2 -2 -22 -4.06 0.17
 -2 -2 -22 -4.06 0.17
 -2 2 -20 2.88 0.15
 -2 -2 -20 2.87 -0.19
 -2 -2 -20 2.87 -0.19
 -2 2 -18 0.66 -0.09
 -2 -2 -18 0.65 -0.07
 -2 -2 -18 0.65 -0.07
 -2 2 -16 -4.38 -0.10
 -2 -2 -16 -4.37 0.25
 -2 -2 -16 -4.37 0.25
 -2 2 -14 6.15 0.19
 -2 -2 -14 6.14 -0.18
 -2 -2 -14 6.14 -0.18
 -2 2 -12 -3.61 -0.09
 -2 -2 -12 -3.60 0.05
 -2 -2 -12 -3.60 0.05
 -2 2 -10 -1.96 -0.01
 -2 -2 -10 -2.00 -0.11
 -2 -2 -10 -2.00 -0.11
 -2 2 -8 4.41 -0.07
 -2 -2 -8 4.45 0.25
 -2 -2 -8 4.45 0.25
 -2 2 -6 -1.67 0.24
 -2 -2 -6 -1.69 -0.21
 -2 2 -4 2.28 -0.26
 -2 -2 -4 2.25 0.06
 -2 2 -2 -13.15 0.08
 -2 2 -2 -13.15 0.08
 -2 -2 -2 -13.12 -0.01
 -2 2 0 24.36 0.12
 -2 -2 0 24.35 0.09
 -2 2 0 24.36 0.12
 -2 2 2 -19.16 -0.17
 -2 2 4 -0.60 0.09
 -2 2 6 13.57 0.02
 -2 -2 6 13.59 0.32
 -2 2 8 -6.82 -0.13
 -2 -2 8 -6.83 -0.16
 -2 2 10 -8.43 0.26
 -2 -2 10 -8.43 -0.14
 -2 2 12 14.82 -0.37
 -2 -2 12 14.82 0.29
 -2 2 12 14.82 -0.37
 -2 2 14 -10.74 0.33
 -2 -2 14 -10.72 -0.25
 -2 2 14 -10.74 0.33
 -2 2 16 6.08 -0.12
 -2 -2 16 6.07 0.17
 -2 2 16 6.08 -0.12
 -2 -2 18 -5.60 -0.13
 -2 2 18 -5.58 -0.12
 -2 -2 20 6.06 0.05
 -2 -2 20 6.06 0.05
 -2 2 20 6.03 0.16
 -2 -2 22 -5.10 0.05
 -2 -2 22 -5.10 0.05
 -2 2 22 -5.10 0.03
 -2 -2 24 4.06 -0.05
 -2 2 24 4.09 -0.26
 -2 -2 24 4.06 -0.05
 -2 -2 26 -3.40 -0.09
 -2 2 26 -3.43 0.31
 -2 -2 26 -3.40 -0.09
 -2 2 28 1.58 -0.18
 -2 -2 28 1.58 0.18
 -2 2 30 1.43 0.03
 -2 -2 30 1.41 -0.08
 -2 2 32 -3.24 0.06
 -2 -2 32 -3.21 -0.10
 -2 2 34 2.36 -0.14
 -2 -2 34 2.33 0.12
 -2 2 36 0.02 0.23
 -2 -2 36 0.06 0.05
 -2 2 38 -1.92 -0.27
 -2 2 40 2.74 0.22
 -2 3 -39 -0.15 0.06
 -2 -3 -39 0.14 -0.03
 -2 3 -37 -2.10 -0.09
 -2 -3 -37 2.07 -0.10
 -2 3 -35 2.44 0.18
 -2 -3 -35 -2.41 0.16
 -2 -3 -33 1.21 -0.02
 -2 3 -33 -1.20 -0.18
 -2 3 -31 0.56 0.02
 -2 -3 -31 -0.60 -0.14
 -2 3 -29 -1.34 0.16
 -2 -3 -29 1.35 0.09
 -2 -3 -29 1.35 0.09
 -2 3 -27 1.67 -0.15
 -2 -3 -27 -1.66 0.12
 -2 -3 -27 -1.66 0.12
 -2 -3 -25 0.11 -0.20
 -2 3 -25 -0.12 0.01
 -2 -3 -25 0.11 -0.20
 -2 3 -23 -1.45 0.06
 -2 -3 -23 1.43 0.05
 -2 -3 -23 1.43 0.05
 -2 -3 -21 -0.27 0.09
 -2 -3 -21 -0.27 0.09
 -2 3 -21 0.29 0.00
 -2 3 -19 2.72 -0.01
 -2 -3 -19 -2.71 0.00
 -2 -3 -19 -2.71 0.00
 -2 3 -17 -3.67 -0.13
 -2 -3 -17 3.64 -0.18
 -2 -3 -17 3.64 -0.18
 -2 3 -15 0.57 0.25
 -2 -3 -15 -0.57 0.14
 -2 -3 -15 -0.57 0.14
 -2 3 -13 4.11 -0.17
 -2 -3 -13 -4.09 0.09
 -2 -3 -13 -4.09 0.09
 -2 3 -11 -5.54 -0.04
 -2 -3 -11 5.53 -0.21
 -2 -3 -11 5.53 -0.21
 -2 3 -9 0.62 0.12
 -2 -3 -9 -0.64 0.10
 -2 3 -9 0.62 0.12
 -2 -3 -9 -0.64 0.10
 -2 3 -7 7.87 -0.01
 -2 -3 -7 -7.85 0.01
 -2 -3 -7 -7.85 0.01
 -2 3 -5 -10.86 -0.08
 -2 -3 -5 10.87 0.05
 -2 3 -3 1.58 0.01
 -2 3 -3 1.58 0.01
 -2 -3 -3 -1.61 -0.10
 -2 -3 -1 -13.91 -0.02
 -2 3 -1 13.92 0.13
 -2 3 -1 13.92 0.13
 -2 3 3 12.48 0.13
 -2 3 3 12.48 0.13
 -2 3 5 -0.50 0.02
 -2 3 5 -0.50 0.02
 -2 3 7 -2.15 -0.20
 -2 3 7 -2.15 -0.20
 -2 3 9 -3.65 0.38
 -2 -3 9 3.65 0.14
 -2 -3 9 3.65 0.14
 -2 3 9 -3.65 0.38
 -2 3 11 7.85 -0.49
 -2 -3 11 -7.85 -0.41
 -2 -3 11 -7.85 -0.41
 -2 3 11 7.85 -0.49
 -2 3 13 -6.80 0.48
 -2 -3 13 6.78 0.46
 -2 3 15 5.33 -0.32
 -2 -3 15 -5.31 -0.36
 -2 3 17 -6.37 0.07
 -2 -3 17 6.37 0.30
 -2 3 19 7.11 0.12
 -2 -3 19 -7.14 -0.26
 -2 3 21 -5.20 -0.14
 -2 -3 21 5.22 0.17
 -2 3 23 2.36 0.01
 -2 -3 23 -2.36 -0.06
 -2 -3 23 -2.36 -0.06
 -2 -3 25 0.78 0.02
 -2 -3 25 0.78 0.02
 -2 3 25 -0.79 0.11
 -2 -3 27 -0.24 -0.01
 -2 3 27 0.22 -0.09
 -2 -3 29 -0.40 -0.06
 -2 3 29 0.44 0.02
 -2 -3 31 1.23 0.19
 -2 3 31 -1.26 -0.03
 -2 -3 33 -1.91 -0.19
 -2 3 33 1.93 0.06
 -2 -3 35 2.43 -0.01
 -2 3 35 -2.46 0.00
 -2 3 37 2.63 -0.15
 -2 3 39 -1.87 0.25
 -2 3 41 0.09 -0.22
 -2 4 -38 0.10 -0.14
 -2 -4 -38 0.10 -0.01
 -2 4 -36 0.80 0.17
 -2 -4 -36 0.78 -0.06
 -2 4 -34 -1.08 -0.22
 -2 -4 -34 -1.09 0.05
 -2 4 -32 1.16 0.17
 -2 -4 -32 1.20 0.07
 -2 -4 -32 1.20 0.07
 -2 -4 -30 -1.63 -0.16
 -2 4 -30 -1.60 0.00
 -2 -4 -30 -1.63 -0.16
 -2 4 -28 2.28 -0.12
 -2 -4 -28 2.28 0.09
 -2 -4 -28 2.28 0.09
 -2 4 -26 -2.60 0.10
 -2 -4 -26 -2.59 0.07
 -2 -4 -26 -2.59 0.07
 -2 4 -24 2.86 -0.01
 -2 -4 -24 2.86 -0.12
 -2 -4 -24 2.86 -0.12
 -2 4 -22 -4.31 -0.05
 -2 -4 -22 -4.33 0.02
 -2 -4 -22 -4.33 0.02
 -2 4 -20 6.70 0.07
 -2 -4 -20 6.70 0.04
 -2 -4 -20 6.70 0.04
 -2 4 -18 -6.75 -0.12
 -2 -4 -18 -6.72 0.05
 -2 -4 -18 -6.72 0.05
 -2 4 -16 1.24 0.18
 -2 -4 -16 1.22 -0.14
 -2 -4 -16 1.22 -0.14
 -2 4 -14 8.19 -0.12
 -2 -4 -14 8.17 0.03
 -2 -4 -14 8.17 0.03
 -2 4 -12 -14.81 -0.03
 -2 -4 -12 -14.77 0.20
 -2 -4 -12 -14.77 0.20
 -2 4 -10 12.23 0.14
 -2 -4 -10 12.21 -0.30
 -2 4 -10 12.23 0.14
 -2 -4 -10 12.21 -0.30
 -2 4 -8 -0.88 -0.13
 -2 -4 -8 -0.89 0.24
 -2 4 -8 -0.88 -0.13
 -2 -4 -8 -0.89 0.24
 -2 4 -6 -10.74 0.10
 -2 4 -6 -10.74 0.10
 -2 -4 -6 -10.74 -0.21
 -2 -4 -6 -10.74 -0.21
 -2 4 -4 12.79 -0.16
 -2 4 -4 12.79 -0.16
 -2 -4 -4 12.83 0.24
 -2 4 -4 12.79 -0.16
 -2 -4 -4 12.83 0.24
 -2 4 -2 -3.81 0.25
 -2 4 -2 -3.81 0.25
 -2 -4 -2 -3.85 -0.19
 -2 4 -2 -3.81 0.25
 -2 -4 0 -7.40 0.01
 -2 4 0 -7.40 -0.27
 -2 4 0 -7.40 -0.27
 -2 4 2 11.39 0.20
 -2 4 2 11.39 0.20
 -2 4 4 -7.83 -0.09
 -2 4 4 -7.83 -0.09
 -2 4 6 3.15 -0.08
 -2 4 6 3.15 -0.08
 -2 4 8 -0.99 0.29
 -2 -4 8 -0.97 -0.07
 -2 4 8 -0.99 0.29
 -2 4 10 -0.18 -0.42
 -2 4 10 -0.18 -0.42
 -2 -4 10 -0.18 0.34
 -2 4 12 1.32 0.41
 -2 4 12 1.32 0.41
 -2 -4 12 1.32 -0.49
 -2 -4 12 1.32 -0.49
 -2 4 14 -0.51 -0.32
 -2 -4 14 -0.52 0.45
 -2 4 16 -2.83 0.20
 -2 -4 16 -2.82 -0.34
 -2 4 18 5.82 -0.06
 -2 -4 18 5.84 0.28
 -2 4 20 -5.94 -0.05
 -2 -4 20 -5.97 -0.28
 -2 4 22 3.92 0.07
 -2 -4 22 3.93 0.27
 -2 4 24 -1.88 -0.05
 -2 -4 24 -1.88 -0.20
 -2 -4 24 -1.88 -0.20
 -2 4 26 0.87 0.08
 -2 -4 26 0.89 0.05
 -2 -4 28 -0.90 0.21
 -2 4 28 -0.85 -0.15
 -2 4 30 1.27 0.13
 -2 -4 30 1.32 -0.43
 -2 4 32 -1.03 0.02
 -2 -4 32 -1.04 0.45
 -2 4 34 -0.78 -0.14
 -2 4 36 3.53 0.09
 -2 4 38 -5.30 0.07
 -2 4 40 4.73 -0.16
 -2 5 -39 -1.15 -0.08
 -2 -5 -39 1.18 0.14
 -2 5 -37 0.92 0.02
 -2 -5 -37 -0.93 -0.20
 -2 5 -35 -0.77 -0.01
 -2 -5 -35 0.78 0.14
 -2 5 -33 1.51 0.04
 -2 -5 -33 -1.54 -0.04
 -2 -5 -33 -1.54 -0.04
 -2 5 -31 -2.71 -0.03
 -2 -5 -31 2.74 0.04
 -2 -5 -31 2.74 0.04
 -2 5 -29 3.36 -0.04
 -2 -5 -29 -3.37 -0.09
 -2 -5 -29 -3.37 -0.09
 -2 5 -27 -3.38 0.14
 -2 -5 -27 3.38 0.06
 -2 -5 -27 3.38 0.06
 -2 5 -25 3.70 -0.17
 -2 -5 -25 -3.71 0.03
 -2 -5 -25 -3.71 0.03
 -2 5 -23 -5.08 0.13
 -2 -5 -23 5.11 -0.03
 -2 -5 -23 5.11 -0.03
 -2 5 -21 6.95 -0.06
 -2 -5 -21 -6.98 -0.10
 -2 -5 -21 -6.98 -0.10
 -2 5 -19 -7.16 0.00
 -2 -5 -19 7.15 0.13
 -2 -5 -19 7.15 0.13
 -2 5 -17 3.20 0.01
 -2 -5 -17 -3.18 0.04
 -2 -5 -17 -3.18 0.04
 -2 5 -15 5.27 0.04
 -2 -5 -15 -5.27 -0.21
 -2 -5 -15 -5.27 -0.21
 -2 5 -13 -14.57 -0.12
 -2 -5 -13 14.54 0.16
 -2 -5 -13 14.54 0.16
 -2 5 -11 18.48 0.13
 -2 -5 -11 -18.47 0.05
 -2 -5 -11 -18.47 0.05
 -2 5 -11 18.48 0.13
 -2 5 -9 -13.05 -0.07
 -2 -5 -9 13.06 -0.18
 -2 5 -9 -13.05 -0.07
 -2 -5 -9 13.06 -0.18
 -2 5 -7 0.80 0.09
 -2 5 -7 0.80 0.09
 -2 -5 -7 -0.80 0.18
 -2 5 -7 0.80 0.09
 -2 -5 -7 -0.80 0.18
 -2 5 -5 10.30 -0.23
 -2 -5 -5 -10.32 -0.16
 -2 5 -5 10.30 -0.23
 -2 -5 -5 -10.32 -0.16
 -2 5 -3 -13.09 0.37
 -2 5 -3 -13.09 0.37
 -2 -5 -3 13.12 0.17
 -2 -5 -3 13.12 0.17
 -2 5 -1 7.01 -0.37
 -2 -5 -1 -7.02 -0.14
 -2 -5 -1 -7.02 -0.14
 -2 -5 1 -2.46 0.06
 -2 5 3 -9.29 -0.17
 -2 5 5 10.88 0.08
 -2 5 7 -7.84 0.06
 -2 -5 7 7.79 0.05
 -2 5 9 2.37 -0.20
 -2 -5 9 -2.35 -0.22
 -2 -5 11 -2.47 0.39
 -2 5 11 2.48 0.23
 -2 5 11 2.48 0.23
 -2 5 13 -4.07 -0.19
 -2 5 15 2.23 0.18
 -2 -5 17 -0.78 -0.31
 -2 5 17 0.80 -0.22
 -2 5 19 -2.75 0.22
 -2 -5 19 2.74 0.28
 -2 5 21 3.17 -0.18
 -2 -5 21 -3.16 -0.37
 -2 -5 23 2.77 0.48
 -2 5 23 -2.78 0.17
 -2 -5 25 -2.41 -0.40
 -2 5 25 2.40 -0.12
 -2 5 27 -2.60 -0.03
 -2 -5 27 2.64 0.04
 -2 5 29 3.32 0.17
 -2 -5 29 -3.38 0.39
 -2 -5 31 3.75 -0.57
 -2 5 31 -3.73 -0.15
 -2 5 33 2.88 0.00
 -2 5 35 -0.82 0.11
 -2 5 37 -1.46 -0.09
 -2 5 39 2.87 0.02
 -2 6 -38 3.58 -0.03
 -2 -6 -38 3.61 0.24
 -2 6 -36 -2.36 0.06
 -2 -6 -36 -2.37 -0.27
 -2 6 -34 1.32 -0.04
 -2 -6 -34 1.33 0.07
 -2 -6 -34 1.33 0.07
 -2 -6 -32 -1.55 0.12
 -2 6 -32 -1.53 -0.01
 -2 -6 -32 -1.55 0.12
 -2 6 -30 1.88 0.04
 -2 -6 -30 1.89 -0.12
 -2 -6 -30 1.89 -0.12
 -2 6 -28 -1.17 0.00
 -2 -6 -28 -1.18 0.02
 -2 -6 -28 -1.18 0.02
 -2 -6 -26 0.23 -0.01
 -2 6 -26 0.21 -0.10
 -2 -6 -26 0.23 -0.01
 -2 -6 -24 -0.51 0.05
 -2 6 -24 -0.46 0.17
 -2 -6 -24 -0.51 0.05
 -2 6 -22 1.74 -0.17
 -2 -6 -22 1.79 0.05
 -2 -6 -22 1.79 0.05
 -2 6 -20 -2.37 0.13
 -2 -6 -20 -2.40 -0.20
 -2 -6 -20 -2.40 -0.20
 -2 6 -18 0.93 -0.10
 -2 -6 -18 0.92 0.15
 -2 -6 -18 0.92 0.15
 -2 6 -16 3.05 0.12
 -2 -6 -16 3.06 0.15
 -2 -6 -16 3.06 0.15
 -2 -6 -14 -8.84 -0.37
 -2 -6 -14 -8.84 -0.37
 -2 6 -14 -8.86 -0.14
 -2 -6 -12 14.05 0.26
 -2 -6 -12 14.05 0.26
 -2 6 -12 14.07 0.09
 -2 6 -12 14.07 0.09
 -2 -6 -10 -15.05 0.00
 -2 -6 -10 -15.05 0.00
 -2 6 -10 -15.05 0.05
 -2 6 -10 -15.05 0.05
 -2 6 -8 9.74 -0.11
 -2 -6 -8 9.75 -0.12
 -2 6 -8 9.74 -0.11
 -2 -6 -8 9.75 -0.12
 -2 6 -6 -0.22 -0.03
 -2 -6 -6 -0.22 0.05
 -2 6 -6 -0.22 -0.03
 -2 -6 -6 -0.22 0.05
 -2 -6 -4 -8.24 0.01
 -2 6 -4 -8.22 0.24
 -2 -6 -4 -8.24 0.01
 -2 6 -4 -8.22 0.24
 -2 -6 -2 10.93 0.02
 -2 6 -2 10.93 -0.29
 -2 -6 -2 10.93 0.02
 -2 -6 0 -6.76 -0.05
 -2 6 0 -6.78 0.15
 -2 -6 0 -6.76 -0.05
 -2 -6 2 -1.45 0.02
 -2 -6 2 -1.45 0.02
 -2 6 4 8.96 -0.03
 -2 6 6 -11.66 0.04
 -2 -6 8 8.74 0.16
 -2 6 8 8.78 -0.08
 -2 6 10 -2.95 0.12
 -2 -6 10 -2.96 -0.23
 -2 6 12 -2.28 -0.11
 -2 -6 12 -2.25 0.34
 -2 6 14 4.96 0.17
 -2 6 16 -5.12 -0.30
 -2 6 18 3.78 0.38
 -2 6 20 -2.18 -0.34
 -2 6 22 1.09 0.27
 -2 -6 24 -0.33 0.47
 -2 6 24 -0.31 -0.23
 -2 -6 26 -0.69 -0.28
 -2 6 26 -0.68 0.12
 -2 6 28 1.58 0.09
 -2 -6 28 1.62 -0.14
 -2 6 30 -1.56 -0.24
 -2 6 32 0.99 0.22
 -2 6 34 -1.25 -0.10
 -2 6 36 2.53 -0.01
 -2 6 38 -3.19 0.07
 -2 7 -37 -3.97 -0.03
 -2 -7 -37 4.00 0.14
 -2 7 -35 2.14 0.09
 -2 -7 -35 -2.15 -0.03
 -2 -7 -35 -2.15 -0.03
 -2 7 -33 -0.44 -0.12
 -2 -7 -33 0.42 -0.22
 -2 -7 -33 0.42 -0.22
 -2 7 -31 -0.27 0.16
 -2 -7 -31 0.29 0.30
 -2 -7 -31 0.29 0.30
 -2 7 -29 1.08 -0.20
 -2 -7 -29 -1.08 -0.16
 -2 -7 -29 -1.08 -0.16
 -2 7 -27 -2.40 0.19
 -2 -7 -27 2.38 0.04
 -2 7 -25 3.06 -0.13
 -2 -7 -25 -3.02 -0.09
 -2 -7 -25 -3.02 -0.09
 -2 7 -23 -2.56 0.03
 -2 -7 -23 2.52 0.13
 -2 -7 -23 2.52 0.13
 -2 -7 -21 -2.03 0.02
 -2 -7 -21 -2.03 0.02
 -2 7 -21 2.06 0.05
 -2 -7 -19 2.43 -0.16
 -2 -7 -19 2.43 -0.16
 -2 7 -19 -2.43 -0.10
 -2 7 -17 3.36 0.11
 -2 -7 -17 -3.36 0.02
 -2 -7 -17 -3.36 0.02
 -2 7 -15 -4.64 -0.09
 -2 -7 -15 4.63 0.27
 -2 -7 -15 4.63 0.27
 -2 7 -13 6.65 0.01
 -2 -7 -13 -6.62 -0.34
 -2 -7 -13 -6.62 -0.34
 -2 7 -11 -8.75 0.12
 -2 7 -11 -8.75 0.12
 -2 7 -11 -8.75 0.12
 -2 -7 -11 8.72 0.10
 -2 -7 -11 8.72 0.10
 -2 7 -11 -8.75 0.12
 -2 -7 -9 -9.07 0.11
 -2 -7 -9 -9.07 0.11
 -2 7 -9 9.07 -0.23
 -2 7 -9 9.07 -0.23
 -2 -7 -7 6.48 -0.08
 -2 -7 -7 6.48 -0.08
 -2 7 -7 -6.48 0.19
 -2 7 -7 -6.48 0.19
 -2 -7 -5 -1.63 -0.08
 -2 7 -5 1.64 -0.03
 -2 -7 -5 -1.63 -0.08
 -2 7 -5 1.64 -0.03
 -2 -7 -3 -3.69 0.13
 -2 7 -3 3.69 -0.06
 -2 -7 -3 -3.69 0.13
 -2 -7 -1 7.30 -0.04
 -2 -7 -1 7.30 -0.04
 -2 -7 1 -7.11 -0.02
 -2 -7 1 -7.11 -0.02
 -2 7 3 -2.74 -0.35
 -2 -7 3 2.78 -0.03
 -2 -7 3 2.78 -0.03
 -2 7 5 -3.15 0.27
 -2 -7 5 3.09 0.13
 -2 7 7 6.78 -0.15
 -2 -7 7 -6.73 -0.15
 -2 -7 7 -6.73 -0.15
 -2 7 9 -6.27 0.08
 -2 -7 9 6.26 0.10
 -2 -7 9 6.26 0.10
 -2 -7 11 -2.47 -0.11
 -2 7 11 2.44 -0.05
 -2 7 17 7.50 0.40
 -2 7 19 -6.40 -0.28
 -2 7 21 4.94 0.06
 -2 -7 21 -4.96 -0.14
 -2 7 23 -3.89 0.08
 -2 -7 23 3.90 0.06
 -2 7 25 2.55 -0.14
 -2 7 27 -1.18 0.22
 -2 7 29 1.52 -0.34
 -2 7 31 -3.45 0.38
 -2 7 33 3.69 -0.31
 -2 7 35 -0.18 0.19
 -2 7 37 -4.44 -0.05
 -2 -8 -36 1.99 -0.05
 -2 8 -36 1.98 0.12
 -2 -8 -36 1.99 -0.05
 -2 8 -34 -0.71 -0.20
 -2 -8 -34 -0.70 0.22
 -2 -8 -34 -0.70 0.22
 -2 8 -32 -0.12 0.23
 -2 -8 -32 -0.14 -0.33
 -2 -8 -32 -0.14 -0.33
 -2 8 -30 0.41 -0.26
 -2 -8 -30 0.43 0.20
 -2 -8 -30 0.43 0.20
 -2 8 -28 -0.92 0.32
 -2 -8 -28 -0.93 0.00
 -2 -8 -28 -0.93 0.00
 -2 8 -26 1.31 -0.33
 -2 -8 -26 1.31 0.00
 -2 -8 -26 1.31 0.00
 -2 8 -24 -1.06 0.25
 -2 -8 -24 -1.06 -0.16
 -2 -8 -24 -1.06 -0.16
 -2 8 -22 1.09 -0.10
 -2 -8 -22 1.10 0.18
 -2 -8 -22 1.10 0.18
 -2 8 -20 -2.29 -0.05
 -2 -8 -20 -2.30 0.00
 -2 -8 -20 -2.30 0.00
 -2 8 -18 3.57 0.14
 -2 -8 -18 3.60 -0.09
 -2 -8 -18 3.60 -0.09
 -2 8 -16 -3.51 -0.12
 -2 -8 -16 -3.52 -0.06
 -2 -8 -16 -3.52 -0.06
 -2 8 -14 2.64 0.04
 -2 -8 -14 2.63 0.23
 -2 -8 -14 2.63 0.23
 -2 8 -12 -2.50 0.07
 -2 -8 -12 -2.47 -0.17
 -2 8 -12 -2.50 0.07
 -2 -8 -12 -2.47 -0.17
 -2 8 -10 3.42 -0.18
 -2 -8 -10 3.39 -0.01
 -2 -8 -10 3.39 -0.01
 -2 8 -10 3.42 -0.18
 -2 8 -8 -4.71 0.20
 -2 -8 -8 -4.70 0.05
 -2 -8 -8 -4.70 0.05
 -2 8 -8 -4.71 0.20
 -2 -8 -6 5.47 0.10
 -2 -8 -6 5.47 0.10
 -2 -8 -4 -4.20 -0.20
 -2 -8 -4 -4.20 -0.20
 -2 -8 -2 -0.30 0.12
 -2 -8 -2 -0.30 0.12
 -2 -8 0 6.26 0.03
 -2 -8 0 6.26 0.03
 -2 -8 2 -9.36 -0.06
 -2 -8 2 -9.36 -0.06
 -2 -8 4 7.13 -0.04
 -2 8 4 7.09 0.50
 -2 -8 4 7.13 -0.04
 -2 8 6 -1.52 -0.28
 -2 -8 6 -1.56 0.11
 -2 -8 6 -1.56 0.11
 -2 -8 8 -3.40 -0.04
 -2 8 8 -3.41 0.07
 -2 -8 8 -3.40 -0.04
 -2 -8 10 5.11 -0.04
 -2 8 10 5.11 0.05
 -2 -8 10 5.11 -0.04
 -2 8 12 -3.08 -0.03
 -2 -8 12 -3.10 -0.06
 -2 -8 14 -1.16 0.27
 -2 -8 16 4.72 -0.29
 -2 8 18 -5.47 -0.25
 -2 -8 18 -5.49 -0.01
 -2 -8 20 4.29 0.38
 -2 8 20 4.27 -0.02
 -2 8 22 -3.00 0.28
 -2 -8 22 -3.00 -0.50
 -2 8 24 1.82 -0.36
 -2 8 26 -0.35 0.35
 -2 8 28 0.07 -0.36
 -2 8 30 -2.29 0.36
 -2 8 32 4.66 -0.29
 -2 8 34 -3.40 0.18
 -2 8 36 -1.11 -0.08
 -2 9 -35 0.49 -0.10
 -2 -9 -35 -0.49 -0.12
 -2 -9 -35 -0.49 -0.12
 -2 9 -33 0.03 0.16
 -2 -9 -33 -0.01 0.24
 -2 -9 -33 -0.01 0.24
 -2 9 -31 -0.99 -0.19
 -2 -9 -31 0.97 -0.20
 -2 -9 -31 0.97 -0.20
 -2 9 -29 1.58 0.19
 -2 -9 -29 -1.57 -0.01
 -2 -9 -29 -1.57 -0.01
 -2 9 -27 -1.85 -0.16
 -2 -9 -27 1.85 0.14
 -2 -9 -27 1.85 0.14
 -2 9 -25 2.56 0.09
 -2 -9 -25 -2.54 -0.03
 -2 -9 -25 -2.54 -0.03
 -2 9 -23 -2.89 0.02
 -2 -9 -23 2.86 -0.13
 -2 -9 -23 2.86 -0.13
 -2 9 -21 1.07 -0.14
 -2 -9 -21 -1.05 0.08
 -2 -9 -21 -1.05 0.08
 -2 -9 -19 -2.33 0.10
 -2 -9 -19 -2.33 0.10
 -2 9 -19 2.31 0.23
 -2 -9 -17 4.39 -0.14
 -2 -9 -17 4.39 -0.14
 -2 9 -17 -4.37 -0.25
 -2 -9 -15 -3.76 -0.01
 -2 -9 -15 -3.76 -0.01
 -2 9 -15 3.75 0.18
 -2 9 -13 -1.97 -0.04
 -2 -9 -13 1.97 0.13
 -2 9 -13 -1.97 -0.04
 -2 -9 -13 1.97 0.13
 -2 9 -11 0.91 -0.10
 -2 -9 -11 -0.90 -0.12
 -2 -9 -11 -0.90 -0.12
 -2 -9 -9 1.34 0.08
 -2 -9 -9 1.34 0.08
 -2 -9 -7 -3.30 -0.16
 -2 -9 -7 -3.30 -0.16
 -2 -9 -5 5.48 0.25
 -2 -9 -5 5.48 0.25
 -2 -9 -3 -4.91 -0.18
 -2 -9 -3 -4.91 -0.18
 -2 -9 -1 0.17 -0.01
 -2 -9 -1 0.17 -0.01
 -2 -9 1 5.70 0.13
 -2 -9 1 5.70 0.13
 -2 -9 3 -8.21 -0.06
 -2 -9 3 -8.21 -0.06
 -2 9 5 -6.23 -0.35
 -2 -9 5 6.25 -0.08
 -2 -9 5 6.25 -0.08
 -2 9 7 2.05 0.14
 -2 -9 7 -2.06 0.09
 -2 -9 7 -2.06 0.09
 -2 9 9 2.06 0.00
 -2 -9 9 -2.05 0.04
 -2 -9 9 -2.05 0.04
 -2 9 11 -4.47 -0.06
 -2 -9 11 4.46 -0.06
 -2 -9 11 4.46 -0.06
 -2 -9 13 -3.82 -0.15
 -2 -9 15 0.64 0.34
 -2 -9 17 2.12 -0.22
 -2 9 19 2.25 0.10
 -2 -9 19 -2.26 -0.12
 -2 9 21 -0.72 0.06
 -2 -9 21 0.73 0.30
 -2 9 23 -0.68 -0.13
 -2 9 25 1.67 0.10
 -2 9 27 -2.20 -0.09
 -2 9 29 1.33 0.13
 -2 9 31 0.71 -0.14
 -2 9 33 -1.62 0.05
 -2 9 35 0.24 0.05
 -2 10 -34 -1.44 0.06
 -2 -10 -34 -1.45 -0.12
 -2 -10 -34 -1.45 -0.12
 -2 10 -32 -0.42 -0.11
 -2 -10 -32 -0.41 0.20
 -2 10 -30 1.88 0.09
 -2 -10 -30 1.88 -0.10
 -2 -10 -30 1.88 -0.10
 -2 10 -28 -2.54 0.04
 -2 -10 -28 -2.55 -0.08
 -2 -10 -28 -2.55 -0.08
 -2 -10 -26 3.64 0.14
 -2 10 -26 3.65 -0.24
 -2 -10 -26 3.64 0.14
 -2 10 -24 -5.33 0.36
 -2 -10 -24 -5.31 -0.02
 -2 -10 -24 -5.31 -0.02
 -2 10 -22 5.19 -0.35
 -2 -10 -22 5.17 -0.06
 -2 -10 -22 5.17 -0.06
 -2 10 -20 -1.74 0.28
 -2 -10 -20 -1.74 -0.04
 -2 -10 -20 -1.74 -0.04
 -2 10 -18 -2.71 -0.24
 -2 -10 -18 -2.70 0.17
 -2 -10 -18 -2.70 0.17
 -2 10 -16 4.90 0.21
 -2 -10 -16 4.91 -0.15
 -2 -10 -16 4.91 -0.15
 -2 -10 -14 -4.49 0.00
 -2 10 -14 -4.47 -0.09
 -2 -10 -14 -4.49 0.00
 -2 10 -14 -4.47 -0.09
 -2 -10 -12 3.03 0.11
 -2 -10 -12 3.03 0.11
 -2 -10 -10 -1.62 -0.12
 -2 -10 -10 -1.62 -0.12
 -2 -10 -8 1.07 0.13
 -2 -10 -8 1.07 0.13
 -2 -10 -6 -2.15 -0.17
 -2 -10 -6 -2.15 -0.17
 -2 -10 -4 3.76 0.14
 -2 -10 -4 3.76 0.14
 -2 -10 -2 -3.27 0.00
 -2 -10 -2 -3.27 0.00
 -2 -10 0 0.17 -0.13
 -2 -10 0 0.17 -0.13
 -2 -10 2 3.06 0.10
 -2 -10 2 3.06 0.10
 -2 -10 4 -4.51 0.07
 -2 -10 4 -4.51 0.07
 -2 -10 6 4.49 -0.18
 -2 -10 6 4.49 -0.18
 -2 -10 6 4.49 -0.18
 -2 10 6 4.50 0.16
 -2 -10 8 -3.21 0.09
 -2 10 8 -3.20 -0.19
 -2 -10 8 -3.21 0.09
 -2 -10 10 0.34 0.04
 -2 10 10 0.31 0.23
 -2 -10 10 0.34 0.04
 -2 10 12 2.50 -0.17
 -2 -10 12 2.47 0.03
 -2 -10 14 -2.48 -0.26
 -2 -10 16 -0.04 0.35
 -2 -10 18 1.73 -0.19
 -2 10 20 -0.88 -0.13
 -2 -10 20 -0.90 0.08
 -2 10 22 -0.71 0.13
 -2 10 24 1.17 -0.18
 -2 10 26 -0.69 0.19
 -2 10 28 0.12 -0.07
 -2 10 30 0.20 -0.08
 -2 10 32 -0.04 0.10
 -2 10 34 -0.55 0.03
 -2 -11 -31 -0.61 0.18
 -2 -11 -31 -0.61 0.18
 -2 11 -29 -1.12 0.02
 -2 -11 -29 1.13 -0.07
 -2 -11 -29 1.13 -0.07
 -2 11 -27 1.96 -0.29
 -2 -11 -27 -1.97 -0.07
 -2 -11 -27 -1.97 -0.07
 -2 11 -25 -4.57 0.49
 -2 -11 -25 4.56 0.09
 -2 -11 -25 4.56 0.09
 -2 11 -23 7.34 -0.44
 -2 -11 -23 -7.32 0.01
 -2 11 -21 -7.07 0.21
 -2 -11 -21 7.06 -0.06
 -2 -11 -21 7.06 -0.06
 -2 -11 -19 -3.52 0.00
 -2 -11 -19 -3.52 0.00
 -2 11 -19 3.49 -0.02
 -2 -11 -17 -0.43 0.07
 -2 -11 -17 -0.43 0.07
 -2 -11 -15 2.87 -0.03
 -2 -11 -15 2.87 -0.03
 -2 -11 -13 -4.02 -0.06
 -2 -11 -13 -4.02 -0.06
 -2 -11 -11 3.77 0.07
 -2 -11 -11 3.77 0.07
 -2 -11 -9 -1.71 -0.02
 -2 -11 -9 -1.71 -0.02
 -2 -11 -7 -0.66 -0.03
 -2 -11 -7 -0.66 -0.03
 -2 -11 -5 0.97 0.03
 -2 -11 -5 0.97 0.03
 -2 -11 -3 0.55 -0.07
 -2 -11 -3 0.55 -0.07
 -2 -11 -1 -1.50 0.14
 -2 -11 -1 -1.50 0.14
 -2 -11 1 0.75 -0.17
 -2 -11 1 0.75 -0.17
 -2 -11 3 1.10 0.06
 -2 -11 3 1.10 0.06
 -2 -11 5 -3.44 0.10
 -2 -11 5 -3.44 0.10
 -2 -11 5 -3.44 0.10
 -2 -11 7 5.31 -0.13
 -2 -11 7 5.31 -0.13
 -2 -11 7 5.31 -0.13
 -2 11 7 -5.34 -0.15
 -2 -11 9 -4.91 0.03
 -2 11 9 4.88 0.42
 -2 -11 9 -4.91 0.03
 -2 -11 11 2.14 0.00
 -2 -11 13 0.10 0.13
 -2 -11 15 0.38 -0.27
 -2 -11 17 -1.86 0.24
 -2 -11 19 1.60 -0.15
 -2 11 21 0.01 0.14
 -2 11 23 0.35 -0.12
 -2 11 25 1.27 0.13
 -2 11 27 -3.36 -0.07
 -2 11 29 4.12 -0.11
 -2 11 31 -2.92 0.24
 -2 11 33 0.73 -0.18
 -2 -12 -30 0.72 0.09
 -2 -12 -30 0.72 0.09
 -2 -12 -28 -1.26 0.02
 -2 -12 -28 -1.26 0.02
 -2 -12 -26 -0.24 -0.11
 -2 -12 -26 -0.24 -0.11
 -2 -12 -24 4.10 0.09
 -2 -12 -24 4.10 0.09
 -2 -12 -22 -7.36 0.01
 -2 -12 -22 -7.36 0.01
 -2 -12 -20 7.41 -0.09
 -2 -12 -20 7.41 -0.09
 -2 -12 -18 -5.00 0.07
 -2 -12 -18 -5.00 0.07
 -2 -12 -16 1.98 -0.02
 -2 -12 -16 1.98 -0.02
 -2 -12 -14 1.30 0.02
 -2 -12 -14 1.30 0.02
 -2 -12 -12 -4.19 -0.03
 -2 -12 -12 -4.19 -0.03
 -2 -12 -10 4.23 -0.02
 -2 -12 -10 4.23 -0.02
 -2 -12 -8 -0.63 0.11
 -2 -12 -8 -0.63 0.11
 -2 -12 -6 -3.22 -0.16
 -2 -12 -6 -3.22 -0.16
 -2 -12 -4 3.57 0.13
 -2 -12 -4 3.57 0.13
 -2 -12 -2 -0.97 -0.11
 -2 -12 -2 -0.97 -0.11
 -2 -12 0 -1.12 0.17
 -2 -12 0 -1.12 0.17
 -2 -12 2 0.57 -0.22
 -2 -12 2 0.57 -0.22
 -2 -12 4 2.15 0.19
 -2 -12 4 2.15 0.19
 -2 -12 6 -5.16 -0.10
 -2 -12 6 -5.16 -0.10
 -2 -12 8 6.40 0.03
 -2 -12 8 6.40 0.03
 -2 -12 10 -5.22 0.01
 -2 -12 12 3.44 -0.08
 -2 -12 14 -3.09 0.16
 -2 -12 16 3.48 -0.15
 -2 -12 18 -2.39 0.05
 -2 12 20 -0.18 0.20
 -2 12 22 1.60 -0.03
 -2 12 24 -0.21 -0.08
 -2 12 26 -3.02 0.06
 -2 12 28 5.76 -0.07
 -2 12 30 -6.08 0.18
 -2 -13 -27 -4.40 0.09
 -2 -13 -27 -4.40 0.09
 -2 -13 -25 3.11 -0.16
 -2 -13 -25 3.11 -0.16
 -2 -13 -23 0.42 0.14
 -2 -13 -23 0.42 0.14
 -2 -13 -21 -3.13 -0.04
 -2 -13 -21 -3.13 -0.04
 -2 -13 -19 3.50 -0.02
 -2 -13 -19 3.50 -0.02
 -2 -13 -17 -2.39 -0.01
 -2 -13 -17 -2.39 -0.01
 -2 -13 -15 0.34 0.06
 -2 -13 -15 0.34 0.06
 -2 -13 -13 2.81 -0.05
 -2 -13 -13 2.81 -0.05
 -2 -13 -11 -5.14 0.02
 -2 -13 -11 -5.14 0.02
 -2 -13 -9 3.68 -0.04
 -2 -13 -9 3.68 -0.04
 -2 -13 -7 0.95 0.09
 -2 -13 -7 0.95 0.09
 -2 -13 -5 -4.15 -0.06
 -2 -13 -5 -4.15 -0.06
 -2 -13 -3 2.96 -0.02
 -2 -13 -1 0.45 0.02
 -2 -13 1 -1.87 0.14
 -2 -13 3 -0.20 -0.32
 -2 -13 5 3.73 0.36
 -2 -13 7 -5.87 -0.25
 -2 -13 9 5.75 0.07
 -2 -13 11 -5.07 0.07
 -2 -13 13 5.58 -0.14
 -2 -13 15 -6.34 0.11
 -2 -13 17 4.90 0.00
 -2 13 21 2.26 -0.14
 -2 13 23 -2.59 -0.11
 -2 13 25 0.14 0.14
 -2 13 27 3.15 -0.01
 -2 13 29 -5.13 -0.02
 -2 -14 -26 -5.94 0.05
 -2 -14 -24 5.73 -0.14
 -2 -14 -22 -3.50 0.15
 -2 -14 -20 1.88 -0.07
 -2 -14 -18 -1.65 0.03
 -2 -14 -16 1.83 -0.07
 -2 -14 -14 -2.18 0.09
 -2 -14 -12 2.91 -0.02
 -2 -14 -10 -2.70 -0.04
 -2 -14 -8 0.29 0.04
 -2 -14 -6 2.71 -0.04
 -2 -14 -4 -3.10 0.13
 -2 -14 -2 0.28 -0.22
 -2 -14 0 2.70 0.14
 -2 -14 2 -2.75 0.09
 -2 -14 4 0.03 -0.29
 -2 -14 6 2.70 0.30
 -2 -14 8 -3.49 -0.16
 -2 -14 10 3.26 -0.01
 -2 -14 12 -4.11 0.10
 -2 -14 14 5.78 -0.10
 -2 -14 16 -5.69 0.03
 -2 14 20 0.88 -0.22
 -2 14 22 -2.31 -0.01
 -2 14 24 1.34 0.12
 -2 14 26 0.50 -0.02
 -2 -15 -23 4.28 -0.10
 -2 -15 -21 -2.98 0.08
 -2 -15 -19 2.70 0.02
 -2 -15 -17 -3.23 -0.04
 -2 -15 -15 2.72 0.01
 -2 -15 -13 -0.84 -0.02
 -2 -15 -11 -1.07 0.08
 -2 -15 -9 2.21 -0.09
 -2 -15 -7 -2.70 0.03
 -2 -15 -5 2.41 -0.04
 -2 -15 -3 -0.96 0.14
 -2 -15 -1 -1.14 -0.20
 -2 -15 1 2.42 0.12
 -2 -15 3 -1.87 0.04
 -2 -15 5 0.21 -0.12
 -2 -15 7 0.93 0.10
 -2 -15 9 -1.05 -0.03
 -2 -15 11 1.23 -0.03
 -2 -15 13 -2.00 0.06
 -2 15 19 0.80 -0.15
 -2 15 21 -0.79 0.04
 -2 15 23 -0.40 0.04
 -2 -16 -20 0.37 0.00
 -2 -16 -18 0.82 0.06
 -2 -16 -16 -2.08 -0.03
 -2 -16 -14 0.93 -0.01
 -2 -16 -12 1.96 -0.02
 -2 -16 -10 -3.55 0.04
 -2 -16 -8 2.37 0.04
 -2 -16 -6 -0.10 -0.14
 -2 -16 -4 -0.85 0.14
 -2 -16 -2 0.11 -0.05
 -2 -16 0 0.94 -0.01
 -2 -16 2 -1.32 0.01
 -2 -16 4 1.34 0.01
 -2 -16 6 -1.59 -0.02
 -2 -16 8 2.05 0.02
 -2 -16 10 -2.26 -0.04
 -2 -16 12 1.69 0.05
 -2 16 18 3.18 -0.08
 -2 16 20 -1.04 0.00
 -2 -17 -15 -1.23 0.16
 -2 -17 -13 -0.29 -0.17
 -2 -17 -11 1.84 0.08
 -2 -17 -9 -0.36 -0.06
 -2 -17 -7 -3.37 0.17
 -2 -17 -5 5.28 -0.29
 -2 -17 -3 -3.04 0.28
 -2 -17 -1 -1.32 -0.20
 -2 -17 1 4.14 0.13
 -2 -17 3 -4.22 -0.10
 -2 -17 5 3.28 0.08
 -2 -17 7 -3.27 -0.07
 -2 -17 9 4.21 0.09
 -2 -17 11 -4.38 -0.14
 -2 17 15 -1.78 0.23
 -2 -18 -8 4.45 0.02
 -2 -18 -6 -7.60 0.13
 -2 -18 -4 6.43 -0.24
 -2 -18 -2 -1.52 0.24
 -2 -18 0 -3.08 -0.18
 -2 -18 2 4.47 0.17
 -2 -18 4 -3.33 -0.18
 -2 -18 6 2.16 0.16
 -2 -18 8 -2.48 -0.14
 -1 1 -40 -4.64 0.05
 -1 -1 -40 -4.65 0.04
 -1 1 -38 5.22 -0.05
 -1 -1 -38 5.23 -0.05
 -1 1 -36 -4.03 0.13
 -1 -1 -36 -4.05 -0.04
 -1 1 -34 1.83 -0.20
 -1 -1 -34 1.83 0.17
 -1 1 -32 0.02 0.15
 -1 -1 -32 0.04 -0.24
 -1 1 -30 -0.80 -0.08
 -1 -1 -30 -0.82 0.23
 -1 1 -28 0.93 0.13
 -1 -1 -28 0.92 -0.23
 -1 1 -26 -0.59 -0.24
 -1 -1 -26 -0.55 0.26
 -1 1 -24 -0.78 0.21
 -1 -1 -24 -0.81 -0.25
 -1 1 -22 2.66 -0.01
 -1 -1 -22 2.66 0.12
 -1 -1 -22 2.66 0.12
 -1 1 -20 -2.56 -0.14
 -1 -1 -20 -2.55 0.01
 -1 -1 -20 -2.55 0.01
 -1 1 -18 -0.58 -0.02
 -1 -1 -18 -0.57 0.01
 -1 -1 -18 -0.57 0.01
 -1 1 -16 2.97 0.34
 -1 -1 -16 2.96 -0.13
 -1 -1 -16 2.96 -0.13
 -1 1 -14 -0.08 -0.47
 -1 -1 -14 -0.08 0.09
 -1 1 -14 -0.08 -0.47
 -1 -1 -14 -0.08 0.09
 -1 1 -12 -6.24 0.29
 -1 -1 -12 -6.22 0.16
 -1 1 -12 -6.24 0.29
 -1 -1 -12 -6.22 0.16
 -1 1 -10 9.71 -0.04
 -1 -1 -10 9.71 -0.37
 -1 1 -10 9.71 -0.04
 -1 -1 -10 9.71 -0.37
 -1 1 -8 -9.78 -0.05
 -1 -1 -8 -9.81 0.30
 -1 -1 -8 -9.81 0.30
 -1 1 -6 12.79 0.03
 -1 -1 -6 12.82 -0.10
 -1 -1 -6 12.82 -0.10
 -1 -1 6 -41.61 -0.04
 -1 -1 8 21.76 0.06
 -1 1 8 21.73 0.01
 -1 1 10 -6.86 -0.22
 -1 1 10 -6.86 -0.22
 -1 -1 10 -6.87 0.01
 -1 1 12 2.05 0.23
 -1 1 12 2.05 0.23
 -1 -1 12 2.05 -0.08
 -1 1 14 -1.82 0.01
 -1 -1 14 -1.82 0.03
 -1 1 14 -1.82 0.01
 -1 -1 14 -1.82 0.03
 -1 1 16 1.39 -0.27
 -1 -1 16 1.37 0.09
 -1 1 16 1.39 -0.27
 -1 -1 16 1.37 0.09
 -1 1 18 -0.70 0.35
 -1 -1 18 -0.66 -0.13
 -1 1 18 -0.70 0.35
 -1 -1 18 -0.66 -0.13
 -1 1 20 0.56 -0.31
 -1 -1 20 0.51 0.09
 -1 -1 20 0.51 0.09
 -1 1 20 0.56 -0.31
 -1 -1 22 -0.58 -0.06
 -1 -1 22 -0.58 -0.06
 -1 1 22 -0.60 0.30
 -1 1 22 -0.60 0.30
 -1 -1 24 0.82 0.08
 -1 1 24 0.81 -0.32
 -1 -1 24 0.82 0.08
 -1 1 26 -1.81 0.26
 -1 -1 26 -1.84 -0.08
 -1 -1 26 -1.84 -0.08
 -1 1 28 3.33 -0.08
 -1 -1 28 3.35 0.02
 -1 1 30 -4.07 -0.13
 -1 -1 30 -4.07 0.08
 -1 1 32 3.38 0.23
 -1 -1 32 3.40 -0.08
 -1 1 34 -1.96 -0.19
 -1 -1 34 -1.99 -0.03
 -1 1 36 0.69 0.06
 -1 -1 36 0.70 0.16
 -1 1 38 0.23 0.03
 -1 1 40 -0.87 -0.03
 -1 2 -41 -4.35 -0.04
 -1 -2 -41 4.34 -0.06
 -1 2 -39 6.08 -0.01
 -1 -2 -39 -6.07 0.05
 -1 2 -37 -5.73 0.06
 -1 -2 -37 5.75 -0.03
 -1 2 -35 3.21 -0.06
 -1 -2 -35 -3.23 0.00
 -1 2 -33 -0.06 -0.05
 -1 -2 -33 0.06 0.06
 -1 2 -31 -1.56 0.17
 -1 -2 -31 1.58 -0.08
 -1 2 -29 1.08 -0.15
 -1 -2 -29 -1.09 0.03
 -1 2 -27 0.38 0.02
 -1 -2 -27 -0.38 0.00
 -1 2 -25 -2.14 0.06
 -1 -2 -25 2.15 0.06
 -1 -2 -25 2.15 0.06
 -1 2 -23 4.30 0.03
 -1 -2 -23 -4.30 -0.15
 -1 -2 -23 -4.30 -0.15
 -1 -2 -21 5.07 0.18
 -1 -2 -21 5.07 0.18
 -1 2 -21 -5.07 -0.13
 -1 -2 -19 -1.47 -0.14
 -1 -2 -19 -1.47 -0.14
 -1 2 -19 1.44 0.04
 -1 -2 -17 -4.85 0.11
 -1 -2 -17 -4.85 0.11
 -1 2 -17 4.90 0.21
 -1 -2 -15 6.41 -0.11
 -1 -2 -15 6.41 -0.11
 -1 2 -15 -6.46 -0.39
 -1 2 -13 -0.60 0.33
 -1 -2 -13 0.60 0.02
 -1 -2 -13 0.60 0.02
 -1 2 -11 9.77 -0.15
 -1 -2 -11 -9.76 0.11
 -1 -2 -11 -9.76 0.11
 -1 2 -9 -14.03 0.03
 -1 -2 -9 14.04 -0.14
 -1 -2 -9 14.04 -0.14
 -1 2 -7 17.71 0.04
 -1 -2 -7 -17.73 0.03
 -1 -2 -7 -17.73 0.03
 -1 2 -5 -27.69 -0.16
 -1 -2 -5 27.69 0.00
 -1 -2 -5 27.69 0.00
 -1 2 -3 35.08 0.30
 -1 -2 -3 -35.06 0.18
 -1 -2 -3 -35.06 0.18
 -1 -2 5 50.55 0.07
 -1 -2 7 -28.18 -0.09
 -1 2 7 28.14 -0.21
 -1 2 9 -5.05 -0.04
 -1 -2 9 5.07 0.12
 -1 2 11 -3.78 0.18
 -1 -2 11 3.77 -0.07
 -1 2 11 -3.78 0.18
 -1 2 13 2.53 -0.04
 -1 -2 13 -2.52 -0.01
 -1 2 13 2.53 -0.04
 -1 2 15 -0.20 -0.22
 -1 -2 15 0.20 -0.01
 -1 2 15 -0.20 -0.22
 -1 -2 17 0.64 0.11
 -1 2 17 -0.65 0.33
 -1 -2 17 0.64 0.11
 -1 2 17 -0.65 0.33
 -1 -2 19 -1.01 -0.18
 -1 2 19 1.04 -0.28
 -1 -2 19 -1.01 -0.18
 -1 2 21 -0.72 0.26
 -1 -2 21 0.71 0.16
 -1 -2 21 0.71 0.16
 -1 2 23 -0.22 -0.35
 -1 -2 23 0.21 -0.11
 -1 -2 23 0.21 -0.11
 -1 2 25 0.04 0.42
 -1 -2 25 -0.02 0.10
 -1 -2 25 -0.02 0.10
 -1 -2 27 -1.83 -0.13
 -1 2 27 1.83 -0.37
 -1 -2 29 3.32 0.13
 -1 2 29 -3.33 0.21
 -1 -2 31 -2.62 -0.08
 -1 2 31 2.61 -0.01
 -1 2 33 -0.41 -0.12
 -1 -2 33 0.44 0.04
 -1 2 35 -1.36 0.12
 -1 -2 35 1.33 -0.07
 -1 2 37 2.04 -0.01
 -1 2 39 -2.13 -0.09
 -1 2 41 1.98 0.12
 -1 3 -40 3.21 0.04
 -1 -3 -40 3.20 0.04
 -1 3 -38 -3.96 0.07
 -1 -3 -38 -3.95 -0.05
 -1 3 -36 3.11 -0.08
 -1 -3 -36 3.11 -0.02
 -1 3 -34 -0.63 -0.06
 -1 -3 -34 -0.63 0.06
 -1 3 -32 -1.61 0.22
 -1 -3 -32 -1.62 -0.01
 -1 3 -30 1.32 -0.21
 -1 -3 -30 1.33 0.00
 -1 3 -28 1.37 0.05
 -1 -3 -28 1.35 -0.08
 -1 3 -26 -4.06 0.04
 -1 -3 -26 -4.04 0.13
 -1 -3 -26 -4.04 0.13
 -1 3 -24 5.22 0.03
 -1 -3 -24 5.20 0.01
 -1 -3 -24 5.20 0.01
 -1 3 -22 -4.85 -0.13
 -1 -3 -22 -4.84 -0.23
 -1 -3 -22 -4.84 -0.23
 -1 3 -20 2.02 0.04
 -1 -3 -20 2.05 0.29
 -1 -3 -20 2.05 0.29
 -1 3 -18 4.18 0.20
 -1 -3 -18 4.12 -0.18
 -1 -3 -18 4.12 -0.18
 -1 3 -16 -9.97 -0.34
 -1 -3 -16 -9.91 0.12
 -1 -3 -16 -9.91 0.12
 -1 3 -14 8.58 0.26
 -1 -3 -14 8.55 -0.17
 -1 -3 -14 8.55 -0.17
 -1 3 -12 0.35 -0.10
 -1 -3 -12 0.36 0.23
 -1 -3 -12 0.36 0.23
 -1 3 -10 -9.33 0.03
 -1 -3 -10 -9.34 -0.22
 -1 -3 -10 -9.34 -0.22
 -1 3 -8 14.74 -0.03
 -1 -3 -8 14.76 0.20
 -1 -3 -8 14.76 0.20
 -1 3 -6 -21.85 -0.07
 -1 -3 -6 -21.87 -0.17
 -1 3 -6 -21.85 -0.07
 -1 -3 -6 -21.87 -0.17
 -1 3 -4 31.38 0.23
 -1 -3 -4 31.39 0.04
 -1 3 -4 31.38 0.23
 -1 -3 -4 31.39 0.04
 -1 -3 -2 -30.63 0.18
 -1 -3 -2 -30.63 0.18
 -1 -3 0 10.04 -0.30
 -1 3 6 14.98 -0.09
 -1 -3 6 15.03 -0.12
 -1 3 8 3.74 -0.03
 -1 -3 8 3.70 0.04
 -1 -3 8 3.70 0.04
 -1 -3 10 -11.73 0.04
 -1 3 10 -11.75 0.17
 -1 -3 10 -11.73 0.04
 -1 -3 12 9.30 -0.01
 -1 3 12 9.31 -0.10
 -1 -3 12 9.30 -0.01
 -1 -3 14 -4.72 -0.05
 -1 3 14 -4.72 -0.14
 -1 3 14 -4.72 -0.14
 -1 -3 16 1.36 -0.03
 -1 3 16 1.37 0.28
 -1 -3 18 1.34 0.22
 -1 -3 18 1.34 0.22
 -1 3 18 1.34 -0.22
 -1 -3 20 -2.47 -0.32
 -1 3 20 -2.46 0.13
 -1 -3 20 -2.47 -0.32
 -1 -3 22 1.30 0.19
 -1 -3 22 1.30 0.19
 -1 -3 24 -0.12 0.02
 -1 3 24 -0.10 0.26
 -1 -3 24 -0.12 0.02
 -1 3 26 0.94 -0.31
 -1 -3 26 0.96 -0.07
 -1 3 28 -2.21 0.28
 -1 -3 28 -2.20 -0.05
 -1 -3 30 1.29 0.17
 -1 3 30 1.30 -0.20
 -1 -3 32 1.43 -0.12
 -1 3 32 1.44 0.10
 -1 3 34 -3.59 -0.01
 -1 3 36 3.98 0.00
 -1 3 38 -3.33 -0.08
 -1 3 40 2.47 0.15
 -1 4 -39 -0.99 0.05
 -1 -4 -39 0.99 0.17
 -1 4 -37 1.03 -0.15
 -1 -4 -37 -1.02 -0.05
 -1 4 -35 -0.18 0.09
 -1 -4 -35 0.17 -0.11
 -1 4 -33 -1.46 0.07
 -1 -4 -33 1.47 0.10
 -1 4 -31 2.02 -0.10
 -1 -4 -31 -2.01 0.03
 -1 4 -29 0.15 -0.08
 -1 -4 -29 -0.17 -0.05
 -1 -4 -29 -0.17 -0.05
 -1 4 -27 -3.59 0.23
 -1 -4 -27 3.59 -0.07
 -1 -4 -27 3.59 -0.07
 -1 4 -25 4.90 -0.15
 -1 -4 -25 -4.87 0.09
 -1 -4 -25 -4.87 0.09
 -1 4 -23 -3.04 -0.05
 -1 -4 -23 3.02 0.11
 -1 -4 -23 3.02 0.11
 -1 -4 -21 0.17 -0.26
 -1 -4 -21 0.17 -0.26
 -1 4 -21 -0.18 0.07
 -1 4 -19 3.85 0.14
 -1 -4 -19 -3.82 0.18
 -1 -4 -19 -3.82 0.18
 -1 -4 -17 7.90 0.00
 -1 -4 -17 7.90 0.00
 -1 4 -17 -7.93 -0.30
 -1 4 -15 9.65 0.23
 -1 -4 -15 -9.64 0.01
 -1 -4 -15 -9.64 0.01
 -1 4 -13 -5.42 -0.04
 -1 -4 -13 5.43 -0.21
 -1 -4 -13 5.43 -0.21
 -1 -4 -11 2.78 0.32
 -1 4 -11 -2.78 -0.03
 -1 -4 -11 2.78 0.32
 -1 -4 -9 -8.92 -0.26
 -1 -4 -9 -8.92 -0.26
 -1 4 -9 8.91 -0.04
 -1 -4 -7 11.61 0.14
 -1 -4 -7 11.61 0.14
 -1 4 -7 -11.59 0.04
 -1 4 -7 -11.59 0.04
 -1 -4 -5 -14.18 -0.06
 -1 4 -5 14.16 0.08
 -1 -4 -5 -14.18 -0.06
 -1 4 -5 14.16 0.08
 -1 -4 -3 15.16 -0.02
 -1 4 -3 -15.13 -0.15
 -1 -4 -3 15.16 -0.02
 -1 -4 -1 -8.33 0.12
 -1 -4 -1 -8.33 0.12
 -1 -4 1 -4.63 -0.12
 -1 -4 1 -4.63 -0.12
 -1 4 3 -11.63 -0.23
 -1 -4 3 11.65 -0.02
 -1 4 5 5.77 0.15
 -1 -4 5 -5.81 0.19
 -1 4 7 5.02 -0.13
 -1 -4 7 -4.97 -0.18
 -1 4 9 -9.79 0.18
 -1 -4 9 9.77 0.03
 -1 -4 11 -8.18 0.08
 -1 4 11 8.17 -0.11
 -1 -4 13 5.96 -0.05
 -1 -4 13 5.96 -0.05
 -1 -4 15 -4.40 0.04
 -1 -4 17 1.35 -0.21
 -1 4 17 -1.36 -0.33
 -1 -4 19 2.17 0.43
 -1 4 19 -2.16 0.24
 -1 -4 21 -3.47 -0.41
 -1 -4 21 -3.47 -0.41
 -1 4 21 3.47 -0.19
 -1 4 23 -3.15 0.18
 -1 -4 23 3.15 0.10
 -1 -4 23 3.15 0.10
 -1 -4 25 -3.46 0.19
 -1 -4 25 -3.46 0.19
 -1 4 25 3.45 -0.12
 -1 -4 27 3.86 -0.16
 -1 4 27 -3.86 0.06
 -1 -4 29 -2.45 -0.09
 -1 4 29 2.45 -0.07
 -1 -4 31 -0.18 0.23
 -1 4 31 0.19 0.12
 -1 4 33 -1.74 -0.13
 -1 4 35 1.56 0.10
 -1 4 37 -0.95 -0.09
 -1 4 39 0.68 0.11
 -1 5 -38 -1.44 -0.06
 -1 -5 -38 -1.45 0.13
 -1 5 -36 2.32 0.16
 -1 -5 -36 2.34 0.08
 -1 5 -34 -3.19 -0.09
 -1 -5 -34 -3.20 -0.19
 -1 5 -32 3.68 -0.02
 -1 -5 -32 3.66 0.06
 -1 5 -30 -2.52 -0.05
 -1 -5 -30 -2.48 0.10
 -1 -5 -30 -2.48 0.10
 -1 -5 -28 -0.59 -0.08
 -1 5 -28 -0.57 0.23
 -1 -5 -28 -0.59 -0.08
 -1 5 -26 3.04 -0.27
 -1 -5 -26 3.02 -0.02
 -1 -5 -26 3.02 -0.02
 -1 5 -24 -2.19 0.09
 -1 -5 -24 -2.17 -0.02
 -1 -5 -24 -2.17 -0.02
 -1 5 -22 -0.87 0.07
 -1 -5 -22 -0.87 0.17
 -1 -5 -22 -0.87 0.17
 -1 5 -20 2.91 -0.03
 -1 -5 -20 2.90 -0.16
 -1 -5 -20 2.90 -0.16
 -1 5 -18 -3.20 -0.09
 -1 -5 -18 -3.20 -0.05
 -1 -5 -18 -3.20 -0.05
 -1 -5 -16 2.81 0.17
 -1 -5 -16 2.81 0.17
 -1 5 -16 2.80 0.09
 -1 -5 -14 -0.91 -0.04
 -1 -5 -14 -0.91 -0.04
 -1 5 -14 -0.89 0.04
 -1 -5 -12 -3.39 -0.17
 -1 -5 -12 -3.39 -0.17
 -1 5 -12 -3.41 -0.11
 -1 -5 -10 7.09 0.18
 -1 5 -10 7.10 0.05
 -1 -5 -10 7.09 0.18
 -1 5 -10 7.10 0.05
 -1 5 -8 -6.51 0.01
 -1 -5 -8 -6.51 0.00
 -1 -5 -8 -6.51 0.00
 -1 5 -8 -6.51 0.01
 -1 5 -6 3.04 0.05
 -1 -5 -6 3.05 -0.13
 -1 -5 -6 3.05 -0.13
 -1 5 -6 3.04 0.05
 -1 -5 -4 -0.48 0.11
 -1 5 -4 -0.46 -0.13
 -1 -5 -4 -0.48 0.11
 -1 5 -4 -0.46 -0.13
 -1 -5 -2 -1.39 -0.08
 -1 5 -2 -1.42 0.09
 -1 -5 -2 -1.39 -0.08
 -1 -5 0 4.45 0.12
 -1 -5 0 4.45 0.12
 -1 -5 2 -6.42 -0.13
 -1 5 4 3.99 0.11
 -1 -5 4 4.01 0.04
 -1 5 6 0.28 -0.05
 -1 -5 6 0.25 0.04
 -1 -5 6 0.25 0.04
 -1 -5 8 -1.48 0.02
 -1 5 8 -1.49 0.03
 -1 -5 8 -1.48 0.02
 -1 5 10 0.53 0.02
 -1 -5 10 0.54 -0.16
 -1 5 12 -1.94 -0.16
 -1 -5 12 -1.96 0.20
 -1 -5 18 3.08 -0.27
 -1 -5 20 0.62 0.41
 -1 5 20 0.62 -0.26
 -1 5 22 -2.97 0.21
 -1 -5 22 -2.95 -0.28
 -1 -5 24 4.32 -0.04
 -1 5 24 4.34 -0.08
 -1 5 26 -4.23 -0.11
 -1 -5 26 -4.23 0.18
 -1 5 28 1.82 0.19
 -1 -5 28 1.84 -0.02
 -1 -5 30 0.88 -0.21
 -1 5 30 0.89 -0.11
 -1 5 32 -0.78 -0.03
 -1 5 34 -1.94 0.10
 -1 5 36 4.04 -0.10
 -1 5 38 -3.77 0.10
 -1 5 40 2.38 -0.10
 -1 6 -39 -1.34 0.10
 -1 -6 -39 1.34 -0.13
 -1 6 -37 2.85 0.08
 -1 -6 -37 -2.87 0.04
 -1 6 -35 -4.07 -0.17
 -1 -6 -35 4.10 0.11
 -1 6 -33 4.38 0.04
 -1 -6 -33 -4.39 -0.12
 -1 6 -31 -3.49 0.11
 -1 -6 -31 3.47 -0.03
 -1 6 -29 1.20 -0.10
 -1 -6 -29 -1.18 0.12
 -1 -6 -29 -1.18 0.12
 -1 6 -27 1.58 -0.02
 -1 -6 -27 -1.57 -0.08
 -1 -6 -27 -1.57 -0.08
 -1 6 -25 -2.63 0.05
 -1 -6 -25 2.61 0.05
 -1 -6 -25 2.61 0.05
 -1 6 -23 1.42 0.02
 -1 -6 -23 -1.41 -0.11
 -1 -6 -23 -1.41 -0.11
 -1 6 -21 -0.60 -0.08
 -1 -6 -21 0.61 0.16
 -1 -6 -21 0.61 0.16
 -1 6 -19 2.39 0.09
 -1 -6 -19 -2.40 -0.04
 -1 -6 -19 -2.40 -0.04
 -1 6 -17 -5.54 -0.11
 -1 -6 -17 5.53 -0.16
 -1 -6 -17 5.53 -0.16
 -1 6 -15 8.01 0.16
 -1 -6 -15 -8.00 0.19
 -1 6 -15 8.01 0.16
 -1 -6 -15 -8.00 0.19
 -1 6 -13 -9.67 -0.17
 -1 -6 -13 9.66 -0.01
 -1 6 -13 -9.67 -0.17
 -1 -6 -13 9.66 -0.01
 -1 6 -11 9.91 0.11
 -1 -6 -11 -9.92 -0.13
 -1 6 -11 9.91 0.11
 -1 -6 -11 -9.92 -0.13
 -1 -6 -9 6.62 0.04
 -1 -6 -9 6.62 0.04
 -1 6 -9 -6.63 -0.06
 -1 6 -7 0.43 0.10
 -1 -6 -7 -0.42 0.13
 -1 -6 -7 -0.42 0.13
 -1 6 -7 0.43 0.10
 -1 -6 -5 -3.73 -0.16
 -1 -6 -5 -3.73 -0.16
 -1 6 -5 3.73 -0.17
 -1 -6 -3 2.68 0.07
 -1 6 -3 -2.69 0.16
 -1 -6 -3 2.68 0.07
 -1 -6 -1 0.96 -0.05
 -1 6 -1 -0.95 -0.07
 -1 -6 -1 0.96 -0.05
 -1 -6 1 -3.33 0.15
 -1 -6 1 -3.33 0.15
 -1 6 3 -3.70 -0.05
 -1 -6 3 3.69 -0.22
 -1 -6 5 -2.28 0.17
 -1 6 5 2.29 0.11
 -1 -6 5 -2.28 0.17
 -1 -6 7 -1.15 -0.11
 -1 6 7 1.16 -0.13
 -1 -6 7 -1.15 -0.11
 -1 -6 9 4.39 0.14
 -1 6 9 -4.41 0.16
 -1 -6 9 4.39 0.14
 -1 -6 11 -3.26 -0.19
 -1 6 11 3.27 -0.23
 -1 -6 11 -3.26 -0.19
 -1 -6 13 -2.30 0.10
 -1 -6 13 -2.30 0.10
 -1 -6 15 6.97 0.09
 -1 -6 17 -6.88 -0.16
 -1 -6 19 3.45 0.07
 -1 6 21 -0.38 0.03
 -1 -6 21 0.37 0.02
 -1 6 23 3.16 0.00
 -1 -6 25 3.39 -0.14
 -1 6 25 -3.40 -0.14
 -1 6 27 0.05 0.27
 -1 -6 27 -0.06 0.07
 -1 6 29 4.31 -0.28
 -1 6 31 -4.86 0.17
 -1 6 33 0.56 -0.05
 -1 6 35 4.41 -0.01
 -1 6 37 -6.05 0.04
 -1 6 39 4.47 -0.06
 -1 7 -38 -0.19 0.02
 -1 -7 -38 -0.21 -0.10
 -1 7 -36 -0.56 -0.19
 -1 -7 -36 -0.58 0.06
 -1 7 -34 1.15 0.14
 -1 -7 -34 1.18 0.01
 -1 7 -32 -0.83 0.09
 -1 -7 -32 -0.84 0.02
 -1 -7 -32 -0.84 0.02
 -1 7 -30 -0.41 -0.29
 -1 -7 -30 -0.41 -0.11
 -1 -7 -30 -0.41 -0.11
 -1 7 -28 2.11 0.30
 -1 -7 -28 2.09 0.16
 -1 -7 -28 2.09 0.16
 -1 7 -26 -3.20 -0.17
 -1 -7 -26 -3.17 -0.14
 -1 -7 -26 -3.17 -0.14
 -1 7 -24 3.02 0.04
 -1 -7 -24 3.01 0.13
 -1 -7 -24 3.01 0.13
 -1 7 -22 -2.97 0.01
 -1 -7 -22 -2.98 -0.15
 -1 -7 -22 -2.98 -0.15
 -1 7 -20 5.22 0.01
 -1 -7 -20 5.23 0.09
 -1 -7 -20 5.23 0.09
 -1 7 -18 -9.29 -0.09
 -1 -7 -18 -9.27 0.07
 -1 -7 -18 -9.27 0.07
 -1 7 -16 12.34 0.19
 -1 -7 -16 12.33 -0.21
 -1 -7 -16 12.33 -0.21
 -1 -7 -14 -12.93 0.18
 -1 7 -14 -12.91 -0.20
 -1 -7 -14 -12.93 0.18
 -1 7 -14 -12.91 -0.20
 -1 -7 -12 11.29 -0.01
 -1 7 -12 11.26 0.10
 -1 -7 -12 11.29 -0.01
 -1 7 -12 11.26 0.10
 -1 -7 -10 -6.97 -0.08
 -1 -7 -10 -6.97 -0.08
 -1 7 -10 -6.95 -0.02
 -1 7 -8 0.18 0.06
 -1 -7 -8 0.16 0.01
 -1 -7 -8 0.16 0.01
 -1 7 -8 0.18 0.06
 -1 -7 -6 5.08 0.05
 -1 7 -6 5.06 -0.17
 -1 -7 -6 5.08 0.05
 -1 -7 -4 -3.79 0.00
 -1 -7 -4 -3.79 0.00
 -1 7 -4 -3.79 0.20
 -1 -7 -2 -3.42 -0.08
 -1 -7 -2 -3.42 -0.08
 -1 7 -2 -3.41 -0.10
 -1 -7 0 10.62 0.02
 -1 -7 0 10.62 0.02
 -1 -7 2 -13.03 0.13
 -1 -7 2 -13.03 0.13
 -1 7 4 10.02 0.05
 -1 -7 4 10.02 -0.20
 -1 -7 4 10.02 -0.20
 -1 -7 6 -3.26 0.15
 -1 7 6 -3.24 -0.09
 -1 -7 6 -3.26 0.15
 -1 -7 8 -3.90 -0.09
 -1 7 8 -3.93 0.14
 -1 -7 8 -3.90 -0.09
 -1 7 10 6.89 -0.20
 -1 -7 10 6.88 0.08
 -1 -7 10 6.88 0.08
 -1 -7 12 -3.88 -0.02
 -1 -7 12 -3.88 -0.02
 -1 -7 14 -1.30 -0.19
 -1 -7 16 3.52 0.42
 -1 -7 18 -1.77 -0.49
 -1 -7 20 -1.64 0.39
 -1 -7 22 4.68 -0.27
 -1 7 22 4.69 0.11
 -1 7 24 -5.74 -0.08
 -1 7 26 3.04 0.10
 -1 7 28 2.45 -0.12
 -1 7 30 -6.27 0.10
 -1 7 32 5.15 -0.07
 -1 7 34 -0.78 0.06
 -1 7 36 -2.76 -0.05
 -1 7 38 3.40 0.02
 -1 8 -37 3.69 -0.17
 -1 -8 -37 -3.71 -0.11
 -1 8 -35 -3.72 0.19
 -1 -8 -35 3.70 0.10
 -1 8 -33 3.17 -0.04
 -1 -8 -33 -3.15 -0.06
 -1 -8 -33 -3.15 -0.06
 -1 8 -31 -2.79 -0.16
 -1 -8 -31 2.78 0.09
 -1 8 -29 2.68 0.25
 -1 -8 -29 -2.68 -0.18
 -1 -8 -29 -2.68 -0.18
 -1 8 -27 -2.44 -0.19
 -1 -8 -27 2.43 0.24
 -1 -8 -27 2.43 0.24
 -1 8 -25 1.71 0.05
 -1 -8 -25 -1.70 -0.22
 -1 -8 -25 -1.70 -0.22
 -1 8 -23 -1.28 0.10
 -1 -8 -23 1.30 0.15
 -1 -8 -23 1.30 0.15
 -1 8 -21 2.84 -0.18
 -1 -8 -21 -2.85 -0.09
 -1 -8 -21 -2.85 -0.09
 -1 -8 -19 6.30 0.01
 -1 -8 -19 6.30 0.01
 -1 8 -19 -6.33 0.12
 -1 -8 -17 -8.97 0.12
 -1 -8 -17 -8.97 0.12
 -1 8 -17 9.02 0.05
 -1 8 -17 9.02 0.05
 -1 8 -15 -8.75 -0.20
 -1 -8 -15 8.75 -0.22
 -1 8 -15 -8.75 -0.20
 -1 -8 -15 8.75 -0.22
 -1 8 -13 6.37 0.18
 -1 -8 -13 -6.42 0.17
 -1 8 -13 6.37 0.18
 -1 -8 -13 -6.42 0.17
 -1 8 -11 -3.30 -0.03
 -1 -8 -11 3.34 -0.04
 -1 -8 -11 3.34 -0.04
 -1 -8 -9 0.73 -0.03
 -1 -8 -9 0.73 -0.03
 -1 -8 -7 -5.14 0.01
 -1 -8 -7 -5.14 0.01
 -1 8 -7 5.10 -0.05
 -1 -8 -5 6.50 -0.01
 -1 -8 -5 6.50 -0.01
 -1 -8 -3 -2.27 0.08
 -1 -8 -3 -2.27 0.08
 -1 -8 -1 -5.34 -0.10
 -1 -8 -1 -5.34 -0.10
 -1 -8 1 11.43 -0.01
 -1 -8 1 11.43 -0.01
 -1 -8 3 -12.59 0.14
 -1 8 3 12.60 -0.05
 -1 -8 3 -12.59 0.14
 -1 8 5 -8.19 0.01
 -1 -8 5 8.20 -0.15
 -1 -8 5 8.20 -0.15
 -1 8 7 0.33 0.02
 -1 -8 7 -0.35 0.09
 -1 -8 7 -0.35 0.09
 -1 8 9 6.41 -0.08
 -1 -8 9 -6.41 -0.06
 -1 -8 9 -6.41 -0.06
 -1 -8 11 8.05 0.02
 -1 8 11 -8.04 0.13
 -1 -8 11 8.05 0.02
 -1 -8 13 -5.30 0.11
 -1 -8 13 -5.30 0.11
 -1 -8 15 2.68 -0.30
 -1 -8 17 -2.98 0.39
 -1 -8 19 5.13 -0.32
 -1 -8 21 -7.23 0.20
 -1 8 23 -8.37 0.03
 -1 8 25 7.55 -0.11
 -1 8 27 -4.08 0.16
 -1 8 29 -0.56 -0.16
 -1 8 31 3.54 0.10
 -1 8 33 -3.61 -0.02
 -1 8 35 1.77 -0.06
 -1 8 37 0.27 0.09
 -1 9 -36 -5.47 0.13
 -1 -9 -36 -5.46 -0.04
 -1 9 -34 4.99 -0.05
 -1 -9 -34 4.97 0.01
 -1 9 -32 -3.45 -0.04
 -1 -9 -32 -3.45 0.01
 -1 -9 -32 -3.45 0.01
 -1 9 -30 1.76 0.07
 -1 -9 -30 1.79 0.06
 -1 -9 -30 1.79 0.06
 -1 9 -28 -0.30 -0.03
 -1 -9 -28 -0.33 -0.18
 -1 -9 -28 -0.33 -0.18
 -1 9 -26 -0.88 -0.02
 -1 -9 -26 -0.85 0.21
 -1 -9 -26 -0.85 0.21
 -1 9 -24 1.45 0.10
 -1 -9 -24 1.41 -0.12
 -1 -9 -24 1.41 -0.12
 -1 9 -22 -0.51 -0.20
 -1 -9 -22 -0.48 0.03
 -1 -9 -22 -0.48 0.03
 -1 9 -20 -1.92 0.25
 -1 -9 -20 -1.91 -0.03
 -1 -9 -20 -1.91 -0.03
 -1 9 -18 3.69 -0.13
 -1 -9 -18 3.63 0.04
 -1 9 -18 3.69 -0.13
 -1 9 -16 -2.42 -0.12
 -1 -9 -16 -2.37 0.03
 -1 9 -16 -2.42 -0.12
 -1 -9 -16 -2.37 0.03
 -1 -9 -14 -0.98 -0.11
 -1 9 -14 -1.00 0.27
 -1 -9 -14 -0.98 -0.11
 -1 9 -14 -1.00 0.27
 -1 -9 -12 3.17 0.08
 -1 -9 -12 3.17 0.08
 -1 -9 -10 -3.06 0.00
 -1 -9 -10 -3.06 0.00
 -1 -9 -8 2.83 -0.02
 -1 -9 -8 2.83 -0.02
 -1 -9 -6 -4.01 -0.03
 -1 -9 -6 -4.01 -0.03
 -1 -9 -4 4.88 0.01
 -1 -9 -4 4.88 0.01
 -1 -9 -2 -2.83 0.05
 -1 -9 -2 -2.83 0.05
 -1 -9 0 -2.20 -0.03
 -1 -9 0 -2.20 -0.03
 -1 -9 2 7.40 -0.09
 -1 -9 2 7.40 -0.09
 -1 9 4 -9.17 -0.06
 -1 -9 4 -9.16 0.19
 -1 -9 4 -9.16 0.19
 -1 -9 4 -9.16 0.19
 -1 -9 6 5.79 -0.18
 -1 -9 6 5.79 -0.18
 -1 9 6 5.78 0.05
 -1 -9 8 0.53 0.12
 -1 9 8 0.52 -0.02
 -1 -9 8 0.53 0.12
 -1 -9 10 -5.31 -0.04
 -1 9 10 -5.28 0.01
 -1 -9 10 -5.31 -0.04
 -1 -9 12 6.30 -0.05
 -1 -9 12 6.30 -0.05
 -1 -9 14 -5.39 0.14
 -1 -9 16 5.19 -0.13
 -1 -9 18 -5.72 0.02
 -1 -9 20 5.80 0.08
 -1 9 24 5.26 -0.07
 -1 9 26 -4.86 0.15
 -1 9 28 3.49 -0.18
 -1 9 30 -1.21 0.14
 -1 9 32 -1.11 -0.05
 -1 9 34 2.32 -0.05
 -1 9 36 -1.66 0.12
 -1 10 -33 -2.85 -0.04
 -1 -10 -33 2.83 -0.12
 -1 -10 -33 2.83 -0.12
 -1 10 -31 0.88 0.06
 -1 -10 -31 -0.91 0.14
 -1 -10 -31 -0.91 0.14
 -1 10 -29 1.04 -0.05
 -1 -10 -29 -1.00 -0.07
 -1 -10 -29 -1.00 -0.07
 -1 10 -27 -2.24 0.05
 -1 -10 -27 2.20 -0.02
 -1 -10 -27 2.20 -0.02
 -1 10 -25 2.19 -0.06
 -1 -10 -25 -2.14 -0.02
 -1 -10 -25 -2.14 -0.02
 -1 10 -23 -0.75 0.03
 -1 -10 -23 0.71 0.13
 -1 -10 -23 0.71 0.13
 -1 10 -21 -1.50 0.07
 -1 -10 -21 1.52 -0.12
 -1 -10 -21 1.52 -0.12
 -1 -10 -19 -2.83 -0.03
 -1 -10 -19 -2.83 -0.03
 -1 10 -19 2.86 -0.11
 -1 -10 -17 1.18 0.12
 -1 -10 -17 1.18 0.12
 -1 -10 -15 3.13 -0.05
 -1 -10 -15 3.13 -0.05
 -1 10 -13 6.49 -0.21
 -1 -10 -13 -6.44 -0.04
 -1 -10 -11 5.32 0.02
 -1 -10 -11 5.32 0.02
 -1 -10 -9 -1.00 0.00
 -1 -10 -9 -1.00 0.00
 -1 -10 -7 -1.67 0.06
 -1 -10 -7 -1.67 0.06
 -1 -10 -5 0.04 -0.11
 -1 -10 -5 0.04 -0.11
 -1 -10 -3 3.23 0.02
 -1 -10 -3 3.23 0.02
 -1 -10 -1 -3.44 0.08
 -1 -10 -1 -3.44 0.08
 -1 -10 1 -0.76 -0.05
 -1 -10 1 -0.76 -0.05
 -1 -10 3 6.08 -0.13
 -1 -10 3 6.08 -0.13
 -1 -10 3 6.08 -0.13
 -1 -10 5 -8.16 0.26
 -1 -10 5 -8.16 0.26
 -1 10 5 8.17 0.16
 -1 -10 5 -8.16 0.26
 -1 -10 7 5.88 -0.25
 -1 -10 7 5.88 -0.25
 -1 10 7 -5.89 -0.06
 -1 -10 9 -1.71 0.12
 -1 10 9 1.74 -0.02
 -1 -10 9 -1.71 0.12
 -1 -10 11 -1.73 0.05
 -1 10 11 1.71 0.05
 -1 -10 11 -1.73 0.05
 -1 -10 13 4.03 -0.14
 -1 -10 15 -5.50 0.10
 -1 -10 17 5.38 0.03
 -1 -10 19 -3.09 -0.10
 -1 10 25 1.17 -0.10
 -1 10 27 0.42 0.03
 -1 10 29 -1.68 -0.05
 -1 10 31 1.55 0.10
 -1 10 33 -0.13 -0.11
 -1 10 35 -1.08 0.12
 -1 -11 -32 0.53 -0.15
 -1 -11 -32 0.53 -0.15
 -1 -11 -30 1.06 0.19
 -1 -11 -30 1.06 0.19
 -1 -11 -28 -2.40 -0.16
 -1 -11 -28 -2.40 -0.16
 -1 -11 -26 2.30 0.16
 -1 -11 -26 2.30 0.16
 -1 -11 -24 -0.43 -0.25
 -1 -11 -24 -0.43 -0.25
 -1 -11 -22 -2.19 0.30
 -1 -11 -22 -2.19 0.30
 -1 -11 -20 3.95 -0.16
 -1 -11 -20 3.95 -0.16
 -1 -11 -18 -3.48 -0.03
 -1 -11 -18 -3.48 -0.03
 -1 -11 -16 0.35 0.04
 -1 -11 -16 0.35 0.04
 -1 -11 -14 3.64 0.10
 -1 -11 -14 3.64 0.10
 -1 -11 -12 -4.83 -0.17
 -1 -11 -12 -4.83 -0.17
 -1 -11 -10 1.44 0.15
 -1 -11 -10 1.44 0.15
 -1 -11 -8 3.43 -0.18
 -1 -11 -8 3.43 -0.18
 -1 -11 -6 -4.50 0.25
 -1 -11 -6 -4.50 0.25
 -1 -11 -4 0.66 -0.16
 -1 -11 -4 0.66 -0.16
 -1 -11 -2 3.45 -0.10
 -1 -11 -2 3.45 -0.10
 -1 -11 0 -2.89 0.27
 -1 -11 0 -2.89 0.27
 -1 -11 2 -1.87 -0.14
 -1 -11 2 -1.87 -0.14
 -1 -11 2 -1.87 -0.14
 -1 -11 4 6.37 -0.17
 -1 -11 4 6.37 -0.17
 -1 -11 4 6.37 -0.17
 -1 -11 6 -7.66 0.37
 -1 11 6 -7.67 0.03
 -1 -11 6 -7.66 0.37
 -1 -11 6 -7.66 0.37
 -1 -11 8 6.35 -0.30
 -1 -11 8 6.35 -0.30
 -1 11 8 6.36 -0.07
 -1 -11 10 -3.64 0.08
 -1 -11 10 -3.64 0.08
 -1 11 10 -3.66 -0.02
 -1 -11 12 -0.42 0.08
 -1 -11 14 4.89 -0.07
 -1 -11 16 -6.72 -0.01
 -1 -11 18 3.99 0.00
 -1 11 26 -2.42 0.14
 -1 11 28 -0.28 -0.14
 -1 11 30 2.22 0.20
 -1 11 32 -2.42 -0.18
 -1 -12 -31 -0.76 -0.09
 -1 -12 -31 -0.76 -0.09
 -1 -12 -29 2.73 0.12
 -1 -12 -29 2.73 0.12
 -1 -12 -27 -3.83 -0.12
 -1 -12 -27 -3.83 -0.12
 -1 -12 -25 2.86 0.19
 -1 -12 -25 2.86 0.19
 -1 -12 -23 -0.69 -0.31
 -1 -12 -23 -0.69 -0.31
 -1 -12 -21 -1.10 0.27
 -1 -12 -21 -1.10 0.27
 -1 -12 -19 2.03 -0.10
 -1 -12 -19 2.03 -0.10
 -1 -12 -17 -2.13 0.01
 -1 -12 -17 -2.13 0.01
 -1 -12 -15 0.88 -0.14
 -1 -12 -15 0.88 -0.14
 -1 -12 -13 1.24 0.28
 -1 -12 -13 1.24 0.28
 -1 -12 -11 -1.80 -0.31
 -1 -12 -11 -1.80 -0.31
 -1 -12 -9 -0.51 0.30
 -1 -12 -9 -0.51 0.30
 -1 -12 -7 2.91 -0.38
 -1 -12 -7 2.91 -0.38
 -1 -12 -5 -1.52 0.36
 -1 -12 -5 -1.52 0.36
 -1 -12 -3 -2.78 -0.08
 -1 -12 -3 -2.78 -0.08
 -1 -12 -1 4.91 -0.30
 -1 -12 -1 4.91 -0.30
 -1 -12 1 -2.26 0.41
 -1 -12 1 -2.26 0.41
 -1 -12 3 -2.30 -0.14
 -1 -12 3 -2.30 -0.14
 -1 -12 5 5.08 -0.25
 -1 -12 5 5.08 -0.25
 -1 -12 7 -5.83 0.40
 -1 -12 7 -5.83 0.40
 -1 -12 9 5.52 -0.26
 -1 -12 9 5.52 -0.26
 -1 -12 11 -3.14 0.07
 -1 -12 13 -1.88 -0.04
 -1 -12 15 6.15 0.12
 -1 -12 17 -5.47 -0.09
 -1 12 25 0.71 0.13
 -1 12 27 -3.27 -0.07
 -1 12 29 4.47 0.11
 -1 12 31 -4.50 -0.13
 -1 -13 -28 4.67 0.03
 -1 -13 -28 4.67 0.03
 -1 -13 -26 -5.75 -0.05
 -1 -13 -26 -5.75 -0.05
 -1 -13 -24 4.73 0.18
 -1 -13 -24 4.73 0.18
 -1 -13 -22 -3.62 -0.27
 -1 -13 -22 -3.62 -0.27
 -1 -13 -20 2.90 0.18
 -1 -13 -20 2.90 0.18
 -1 -13 -18 -1.00 -0.03
 -1 -13 -18 -1.00 -0.03
 -1 -13 -16 -1.91 0.04
 -1 -13 -16 -1.91 0.04
 -1 -13 -14 2.94 -0.17
 -1 -13 -14 2.94 -0.17
 -1 -13 -12 -0.93 0.23
 -1 -13 -12 -0.93 0.23
 -1 -13 -10 -1.23 -0.23
 -1 -13 -8 1.10 0.28
 -1 -13 -6 -0.75 -0.37
 -1 -13 -4 2.96 0.27
 -1 -13 -2 -6.02 0.08
 -1 -13 0 5.99 -0.38
 -1 -13 2 -2.79 0.34
 -1 -13 4 -0.20 -0.02
 -1 -13 6 1.57 -0.26
 -1 -13 8 -2.60 0.28
 -1 -13 10 3.04 -0.14
 -1 -13 12 -0.97 0.06
 -1 -13 14 -2.49 -0.13
 -1 -13 16 3.08 0.17
 -1 13 26 -8.33 -0.04
 -1 13 28 8.35 -0.01
 -1 -14 -27 5.44 0.00
 -1 -14 -25 -5.77 -0.07
 -1 -14 -23 4.77 0.21
 -1 -14 -21 -4.61 -0.25
 -1 -14 -19 3.94 0.11
 -1 -14 -17 -0.40 0.02
 -1 -14 -15 -4.06 -0.02
 -1 -14 -13 4.83 -0.02
 -1 -14 -11 -1.43 0.00
 -1 -14 -9 -1.64 0.00
 -1 -14 -7 1.81 0.11
 -1 -14 -5 -1.65 -0.21
 -1 -14 -3 3.54 0.11
 -1 -14 -1 -5.53 0.12
 -1 -14 1 5.04 -0.23
 -1 -14 3 -3.09 0.12
 -1 -14 5 1.84 0.09
 -1 -14 7 -1.05 -0.19
 -1 -14 9 -0.06 0.13
 -1 -14 11 0.40 -0.02
 -1 -14 13 0.42 0.00
 -1 -14 15 0.23 -0.04
 -1 14 25 -8.67 -0.03
 -1 14 27 8.78 -0.08
 -1 -15 -24 -3.62 -0.06
 -1 -15 -22 2.57 0.15
 -1 -15 -20 -3.07 -0.09
 -1 -15 -18 2.49 -0.06
 -1 -15 -16 1.05 0.13
 -1 -15 -14 -4.46 -0.13
 -1 -15 -12 3.87 0.16
 -1 -15 -10 -0.72 -0.21
 -1 -15 -8 -0.52 0.18
 -1 -15 -6 -0.78 -0.03
 -1 -15 -4 1.26 -0.10
 -1 -15 -2 0.40 0.09
 -1 -15 0 -1.92 0.01
 -1 -15 2 1.73 -0.04
 -1 -15 4 -0.97 -0.03
 -1 -15 6 0.70 0.13
 -1 -15 8 -0.62 -0.14
 -1 -15 10 0.76 0.05
 -1 -15 12 -1.06 0.05
 -1 -15 14 -0.36 -0.09
 -1 15 24 -4.22 0.08
 -1 -16 -19 -3.08 0.18
 -1 -16 -17 3.11 -0.24
 -1 -16 -15 -0.60 0.21
 -1 -16 -13 -1.56 -0.19
 -1 -16 -11 1.31 0.25
 -1 -16 -9 -0.69 -0.31
 -1 -16 -7 1.93 0.23
 -1 -16 -5 -3.51 -0.04
 -1 -16 -3 3.00 -0.10
 -1 -16 -1 -1.08 0.09
 -1 -16 1 0.00 0.01
 -1 -16 3 -0.12 -0.05
 -1 -16 5 0.25 -0.01
 -1 -16 7 0.08 0.09
 -1 -16 9 -0.84 -0.09
 -1 -16 11 1.83 0.00
 -1 -17 -16 4.97 -0.18
 -1 -17 -14 -2.72 0.10
 -1 -17 -12 0.56 -0.11
 -1 -17 -10 0.63 0.20
 -1 -17 -8 -1.88 -0.25
 -1 -17 -6 3.08 0.16
 -1 -17 -4 -2.66 0.00
 -1 -17 -2 0.60 -0.05
 -1 -17 0 1.25 -0.04
 -1 -17 2 -1.99 0.16
 -1 -17 4 2.36 -0.16
 -1 -17 6 -2.72 0.04
 -1 -17 8 2.76 0.06
 -1 -17 10 -2.65 -0.06
 -1 -18 -9 1.62 0.08
 -1 -18 -7 -2.46 -0.14
 -1 -18 -5 2.09 0.11
 -1 -18 -3 -0.45 -0.05
 -1 -18 -1 -1.24 0.07
 -1 -18 1 2.28 -0.16
 -1 -18 3 -3.36 0.20
 -1 -18 5 4.58 -0.12
 -1 -18 7 -4.62 -0.03
 -1 -18 9 3.05 0.10
 0 0 -40 -1.31 0.00
 0 0 -38 3.07 0.07
 0 0 -36 -3.45 -0.14
 0 0 -34 2.53 0.12
 0 0 -32 -0.98 -0.02
 0 0 -30 -1.25 -0.03
 0 0 -28 3.58 -0.04
 0 0 -26 -4.32 0.15
 0 0 -24 3.31 -0.13
 0 0 -22 -2.71 -0.02
 0 0 -20 2.82 0.11
 0 0 -18 -0.52 -0.04
 0 0 -16 -4.33 -0.03
 0 0 -14 6.28 -0.04
 0 0 -12 -5.00 0.16
 0 0 -10 9.66 -0.15
 0 0 -8 -18.74 0.02
 0 0 -8 -18.74 0.02
 0 0 -6 3.88 0.03
 0 0 -6 3.88 0.03
 0 0 6 3.88 -0.03
 0 0 8 -18.74 -0.02
 0 0 8 -18.74 -0.02
 0 0 10 9.66 0.15
 0 0 10 9.66 0.15
 0 0 12 -5.00 -0.16
 0 0 12 -5.00 -0.16
 0 0 14 6.28 0.04
 0 0 14 6.28 0.04
 0 0 16 -4.33 0.03
 0 0 16 -4.33 0.03
 0 0 18 -0.52 0.04
 0 0 18 -0.52 0.04
 0 0 20 2.82 -0.11
 0 0 20 2.82 -0.11
 0 0 22 -2.71 0.02
 0 0 22 -2.71 0.02
 0 0 24 3.31 0.13
 0 0 24 3.31 0.13
 0 0 26 -4.32 -0.15
 0 0 26 -4.32 -0.15
 0 0 28 3.58 0.04
 0 0 30 -1.25 0.03
 0 0 32 -0.98 0.02
 0 0 34 2.53 -0.12
 0 0 36 -3.45 0.14
 0 1 -41 -0.02 -0.02
 0 -1 -41 0.03 -0.04
 0 1 -39 1.58 0.16
 0 -1 -39 -1.57 0.12
 0 1 -37 -2.54 -0.28
 0 -1 -37 2.53 -0.13
 0 1 -35 2.30 0.24
 0 -1 -35 -2.29 0.05
 0 1 -33 -1.74 -0.03
 0 -1 -33 1.73 0.01
 0 1 -31 1.00 -0.14
 0 -1 -31 -1.00 -0.01
 0 1 -29 0.61 0.09
 0 -1 -29 -0.61 0.02
 0 1 -27 -2.47 0.09
 0 -1 -27 2.46 -0.11
 0 1 -25 2.97 -0.13
 0 -1 -25 -2.94 0.19
 0 1 -23 -2.33 0.00
 0 -1 -23 2.30 -0.12
 0 1 -21 2.05 0.09
 0 -1 -21 -2.04 -0.04
 0 1 -19 -1.23 0.02
 0 -1 -19 1.23 0.08
 0 1 -17 -2.03 -0.17
 0 -1 -17 2.02 0.02
 0 1 -15 5.14 0.12
 0 -1 -15 -5.13 -0.11
 0 -1 -15 -5.13 -0.11
 0 1 -13 -4.35 0.08
 0 -1 -13 4.32 0.04
 0 -1 -13 4.32 0.04
 0 -1 -11 -4.38 0.07
 0 -1 -11 -4.38 0.07
 0 1 -11 4.41 -0.19
 0 -1 -9 12.56 -0.08
 0 -1 -9 12.56 -0.08
 0 1 -9 -12.58 0.10
 0 -1 -7 -17.15 0.02
 0 1 -7 17.17 0.01
 0 -1 -7 -17.15 0.02
 0 1 -7 17.17 0.01
 0 -1 7 17.17 -0.01
 0 -1 9 -12.58 -0.10
 0 1 9 12.56 0.08
 0 -1 9 -12.58 -0.10
 0 -1 11 4.41 0.19
 0 1 11 -4.38 -0.07
 0 -1 11 4.41 0.19
 0 1 13 4.32 -0.04
 0 -1 13 -4.35 -0.08
 0 -1 13 -4.35 -0.08
 0 1 13 4.32 -0.04
 0 1 15 -5.13 0.11
 0 -1 15 5.14 -0.12
 0 -1 15 5.14 -0.12
 0 1 15 -5.13 0.11
 0 -1 17 -2.03 0.17
 0 -1 17 -2.03 0.17
 0 1 17 2.02 -0.02
 0 1 17 2.02 -0.02
 0 1 19 1.23 -0.08
 0 -1 19 -1.23 -0.02
 0 1 19 1.23 -0.08
 0 -1 19 -1.23 -0.02
 0 -1 21 2.05 -0.09
 0 -1 21 2.05 -0.09
 0 1 21 -2.04 0.04
 0 1 21 -2.04 0.04
 0 -1 23 -2.33 0.00
 0 1 23 2.30 0.12
 0 1 23 2.30 0.12
 0 -1 23 -2.33 0.00
 0 1 25 -2.94 -0.19
 0 -1 25 2.97 0.13
 0 -1 25 2.97 0.13
 0 -1 27 -2.47 -0.09
 0 1 27 2.46 0.11
 0 -1 29 0.61 -0.09
 0 1 29 -0.61 -0.02
 0 -1 31 1.00 0.14
 0 1 31 -1.00 0.01
 0 1 33 1.73 -0.01
 0 -1 33 -1.74 0.03
 0 1 35 -2.29 -0.05
 0 -1 35 2.30 -0.24
 0 1 37 2.53 0.13
 0 1 39 -1.57 -0.12
 0 2 -40 -0.01 0.02
 0 -2 -40 -0.01 -0.05
 0 2 -38 -0.95 -0.14
 0 -2 -38 -0.93 0.19
 0 2 -36 0.89 0.16
 0 -2 -36 0.88 -0.16
 0 2 -34 -0.75 0.03
 0 -2 -34 -0.75 0.04
 0 2 -32 1.58 -0.26
 0 -2 -32 1.58 0.03
 0 2 -30 -2.24 0.24
 0 -2 -30 -2.23 -0.01
 0 2 -28 0.90 0.00
 0 -2 -28 0.91 0.02
 0 2 -26 1.77 -0.15
 0 -2 -26 1.74 -0.11
 0 2 -24 -3.27 0.02
 0 -2 -24 -3.23 0.19
 0 2 -22 2.76 0.18
 0 -2 -22 2.74 -0.15
 0 2 -20 -1.23 -0.14
 0 -2 -20 -1.23 0.07
 0 -2 -20 -1.23 0.07
 0 -2 -18 -0.95 -0.11
 0 2 -18 -0.96 -0.09
 0 -2 -18 -0.95 -0.11
 0 -2 -16 3.16 0.25
 0 2 -16 3.17 0.20
 0 -2 -16 3.16 0.25
 0 -2 -14 -2.68 -0.28
 0 2 -14 -2.70 -0.03
 0 -2 -14 -2.68 -0.28
 0 -2 -12 -0.65 0.15
 0 2 -12 -0.63 -0.20
 0 -2 -12 -0.65 0.15
 0 2 -12 -0.63 -0.20
 0 -2 -10 0.35 -0.03
 0 2 -10 0.33 0.27
 0 2 -10 0.33 0.27
 0 -2 -10 0.35 -0.03
 0 2 -8 7.25 -0.24
 0 -2 -8 7.23 0.07
 0 -2 -8 7.23 0.07
 0 2 -8 7.25 -0.24
 0 -2 -6 -10.61 -0.17
 0 2 -6 -10.63 0.26
 0 -2 -6 -10.61 -0.17
 0 2 -6 -10.63 0.26
 0 -2 -4 -6.02 0.15
 0 -2 -4 -6.02 0.15
 0 2 -4 -5.99 -0.29
 0 -2 6 -10.63 -0.26
 0 -2 8 7.25 0.24
 0 -2 10 0.33 -0.27
 0 2 10 0.35 0.03
 0 -2 12 -0.63 0.20
 0 2 12 -0.65 -0.15
 0 -2 14 -2.70 0.03
 0 -2 14 -2.70 0.03
 0 2 14 -2.68 0.28
 0 -2 16 3.17 -0.20
 0 -2 16 3.17 -0.20
 0 2 16 3.16 -0.25
 0 2 18 -0.95 0.11
 0 -2 18 -0.96 0.09
 0 2 18 -0.95 0.11
 0 -2 18 -0.96 0.09
 0 2 20 -1.23 -0.07
 0 -2 20 -1.23 0.14
 0 -2 20 -1.23 0.14
 0 2 22 2.74 0.15
 0 -2 22 2.76 -0.18
 0 -2 22 2.76 -0.18
 0 -2 24 -3.27 -0.02
 0 2 24 -3.23 -0.19
 0 2 26 1.74 0.11
 0 -2 26 1.77 0.15
 0 2 28 0.91 -0.02
 0 -2 28 0.90 0.00
 0 2 30 -2.23 0.01
 0 -2 30 -2.24 -0.24
 0 -2 32 1.58 0.26
 0 2 32 1.58 -0.03
 0 2 34 -0.75 -0.04
 0 -2 34 -0.75 -0.03
 0 2 36 0.88 0.16
 0 2 38 -0.93 -0.19
 0 2 40 -0.01 0.05
 0 3 -41 -0.49 -0.08
 0 -3 -41 0.48 -0.09
 0 3 -39 -0.42 0.06
 0 -3 -39 0.40 -0.08
 0 3 -37 0.38 -0.02
 0 -3 -37 -0.37 0.13
 0 3 -35 0.55 0.10
 0 -3 -35 -0.54 -0.03
 0 3 -33 -0.60 -0.27
 0 -3 -33 0.59 -0.08
 0 3 -31 -0.75 0.30
 0 -3 -31 0.74 0.06
 0 3 -29 1.30 -0.08
 0 -3 -29 -1.29 0.05
 0 3 -27 0.96 -0.19
 0 -3 -27 -0.95 -0.09
 0 3 -25 -4.54 0.19
 0 -3 -25 4.51 0.00
 0 -3 -23 -5.89 0.09
 0 3 -23 5.90 0.05
 0 -3 -23 -5.89 0.09
 0 -3 -21 3.79 -0.09
 0 3 -21 -3.77 -0.22
 0 -3 -21 3.79 -0.09
 0 -3 -19 0.06 0.07
 0 3 -19 -0.09 0.14
 0 -3 -19 0.06 0.07
 0 -3 -17 -3.16 -0.12
 0 3 -17 3.18 0.01
 0 -3 -17 -3.16 -0.12
 0 3 -15 -3.16 0.02
 0 -3 -15 3.15 0.19
 0 3 -15 -3.16 0.02
 0 -3 -15 3.15 0.19
 0 3 -13 -1.67 -0.19
 0 -3 -13 1.68 -0.15
 0 3 -13 -1.67 -0.19
 0 -3 -13 1.68 -0.15
 0 -3 -11 -9.07 0.05
 0 -3 -11 -9.07 0.05
 0 3 -11 9.05 0.32
 0 3 -11 9.05 0.32
 0 -3 -9 12.07 -0.07
 0 3 -9 -12.06 -0.38
 0 -3 -9 12.07 -0.07
 0 3 -9 -12.06 -0.38
 0 -3 -7 -6.68 0.28
 0 3 -7 6.67 0.46
 0 -3 -7 -6.68 0.28
 0 3 -7 6.67 0.46
 0 -3 -5 -1.81 -0.45
 0 -3 -5 -1.81 -0.45
 0 3 -5 1.83 -0.53
 0 -3 -3 5.44 0.40
 0 -3 -3 5.44 0.40
 0 -3 -1 -4.40 -0.27
 0 -3 1 4.41 0.31
 0 3 3 5.44 -0.40
 0 -3 3 -5.47 -0.46
 0 -3 3 -5.47 -0.46
 0 -3 5 1.83 0.53
 0 -3 5 1.83 0.53
 0 -3 7 6.67 -0.46
 0 -3 7 6.67 -0.46
 0 -3 9 -12.06 0.38
 0 -3 9 -12.06 0.38
 0 -3 11 9.05 -0.32
 0 -3 11 9.05 -0.32
 0 3 11 -9.07 -0.05
 0 -3 13 -1.67 0.19
 0 -3 13 -1.67 0.19
 0 3 13 1.68 0.15
 0 -3 15 -3.16 -0.02
 0 3 15 3.15 -0.19
 0 -3 17 3.18 -0.01
 0 -3 19 -0.09 -0.14
 0 3 21 3.79 0.09
 0 -3 21 -3.77 0.22
 0 3 23 -5.89 -0.09
 0 -3 23 5.90 -0.05
 0 3 25 4.51 0.00
 0 -3 25 -4.54 -0.19
 0 -3 27 0.96 0.19
 0 3 27 -0.95 0.09
 0 -3 29 1.30 0.08
 0 3 29 -1.29 -0.05
 0 3 31 0.74 -0.06
 0 -3 31 -0.75 -0.30
 0 3 33 0.59 0.08
 0 3 35 -0.54 0.03
 0 3 37 -0.37 -0.13
 0 3 39 0.40 0.08
 0 3 41 0.48 0.09
 0 4 -40 -0.60 0.04
 0 -4 -40 -0.58 0.01
 0 4 -38 0.83 -0.05
 0 -4 -38 0.80 -0.11
 0 4 -36 0.35 0.05
 0 -4 -36 0.35 0.07
 0 4 -34 -1.80 -0.10
 0 -4 -34 -1.77 0.05
 0 4 -32 1.80 0.15
 0 -4 -32 1.78 -0.11
 0 4 -30 -0.45 -0.08
 0 -4 -30 -0.45 0.03
 0 4 -28 0.00 -0.13
 0 -4 -28 0.00 0.13
 0 4 -26 -1.92 0.29
 0 -4 -26 -1.90 -0.23
 0 4 -24 4.38 -0.26
 0 -4 -24 4.38 0.18
 0 -4 -24 4.38 0.18
 0 4 -22 -4.12 0.09
 0 -4 -22 -4.16 -0.09
 0 -4 -22 -4.16 -0.09
 0 4 -20 0.31 0.06
 0 -4 -20 0.37 0.06
 0 -4 -20 0.37 0.06
 0 -4 -18 4.40 -0.10
 0 4 -18 4.44 -0.13
 0 -4 -18 4.40 -0.10
 0 4 -16 -6.30 0.18
 0 4 -16 -6.30 0.18
 0 -4 -16 -6.29 0.09
 0 -4 -16 -6.29 0.09
 0 -4 -14 2.47 -0.05
 0 -4 -14 2.47 -0.05
 0 4 -14 2.47 -0.24
 0 4 -14 2.47 -0.24
 0 -4 -12 6.92 0.05
 0 4 -12 6.91 0.26
 0 -4 -12 6.92 0.05
 0 4 -12 6.91 0.26
 0 -4 -10 -17.18 -0.02
 0 4 -10 -17.17 -0.30
 0 -4 -10 -17.18 -0.02
 0 4 -10 -17.17 -0.30
 0 4 -8 20.98 0.39
 0 -4 -8 20.98 -0.15
 0 4 -8 20.98 0.39
 0 -4 -8 20.98 -0.15
 0 -4 -6 -14.56 0.38
 0 -4 -6 -14.56 0.38
 0 4 -6 -14.57 -0.48
 0 -4 -4 1.66 -0.42
 0 -4 -4 1.66 -0.42
 0 -4 -2 9.96 0.22
 0 -4 -2 9.96 0.22
 0 -4 0 -14.46 -0.06
 0 -4 2 9.98 0.16
 0 4 2 9.96 -0.22
 0 4 4 1.66 0.42
 0 -4 4 1.65 -0.40
 0 -4 4 1.65 -0.40
 0 4 6 -14.56 -0.38
 0 -4 6 -14.57 0.48
 0 -4 6 -14.57 0.48
 0 -4 8 20.98 -0.39
 0 -4 8 20.98 -0.39
 0 -4 10 -17.17 0.30
 0 4 10 -17.18 0.02
 0 -4 10 -17.17 0.30
 0 -4 12 6.91 -0.26
 0 4 12 6.92 -0.05
 0 -4 12 6.91 -0.26
 0 -4 14 2.47 0.24
 0 -4 16 -6.30 -0.18
 0 -4 18 4.44 0.13
 0 -4 20 0.31 -0.06
 0 -4 22 -4.12 -0.09
 0 -4 24 4.38 0.26
 0 4 24 4.38 -0.18
 0 -4 26 -1.92 -0.29
 0 4 26 -1.90 0.23
 0 -4 28 0.00 0.13
 0 4 28 0.00 -0.13
 0 -4 30 -0.45 0.08
 0 4 30 -0.45 -0.03
 0 4 32 1.78 0.11
 0 4 34 -1.77 -0.05
 0 4 36 0.35 -0.07
 0 4 38 0.80 0.11
 0 4 40 -0.58 -0.01
 0 5 -39 1.94 0.03
 0 -5 -39 -1.90 0.07
 0 5 -37 -1.03 -0.06
 0 -5 -37 1.01 -0.11
 0 5 -35 -0.50 0.09
 0 -5 -35 0.50 0.05
 0 5 -33 1.34 -0.08
 0 -5 -33 -1.32 0.08
 0 5 -31 -0.67 0.02
 0 -5 -31 0.66 -0.16
 0 5 -29 -1.03 0.00
 0 -5 -29 1.04 0.06
 0 5 -27 2.27 0.10
 0 -5 -27 -2.28 0.17
 0 5 -25 -2.05 -0.28
 0 -5 -25 2.05 -0.34
 0 -5 -25 2.05 -0.34
 0 -5 -23 -1.38 0.29
 0 5 -23 1.40 0.37
 0 -5 -23 -1.38 0.29
 0 5 -21 -2.37 -0.26
 0 -5 -21 2.33 -0.15
 0 -5 -21 2.33 -0.15
 0 5 -19 5.28 0.00
 0 -5 -19 -5.25 0.11
 0 5 -19 5.28 0.00
 0 -5 -19 -5.25 0.11
 0 5 -17 -7.53 0.26
 0 -5 -17 7.53 -0.15
 0 5 -17 -7.53 0.26
 0 -5 -17 7.53 -0.15
 0 5 -15 5.58 -0.35
 0 -5 -15 -5.60 0.13
 0 5 -15 5.58 -0.35
 0 -5 -15 -5.60 0.13
 0 5 -13 1.63 0.28
 0 -5 -13 -1.63 -0.04
 0 5 -13 1.63 0.28
 0 -5 -13 -1.63 -0.04
 0 5 -11 -11.13 -0.18
 0 5 -11 -11.13 -0.18
 0 -5 -11 11.15 -0.03
 0 -5 -11 11.15 -0.03
 0 5 -9 17.36 0.21
 0 -5 -9 -17.36 0.10
 0 5 -9 17.36 0.21
 0 -5 -9 -17.36 0.10
 0 5 -7 -16.11 -0.33
 0 -5 -7 16.09 -0.23
 0 -5 -7 16.09 -0.23
 0 -5 -5 -7.85 0.29
 0 -5 -5 -7.85 0.29
 0 -5 -3 -2.59 -0.12
 0 -5 -3 -2.59 -0.12
 0 5 -3 2.61 -0.04
 0 -5 -1 9.54 -0.16
 0 -5 -1 9.54 -0.16
 0 -5 1 -9.56 0.21
 0 5 3 -2.59 0.12
 0 -5 3 2.61 0.04
 0 -5 3 2.61 0.04
 0 5 5 -7.85 -0.29
 0 -5 5 7.85 -0.30
 0 -5 5 7.85 -0.30
 0 -5 7 -16.11 0.33
 0 -5 7 -16.11 0.33
 0 -5 9 17.36 -0.21
 0 5 9 -17.36 -0.10
 0 -5 9 17.36 -0.21
 0 -5 11 -11.13 0.18
 0 5 11 11.15 0.03
 0 -5 11 -11.13 0.18
 0 -5 13 1.63 -0.28
 0 -5 13 1.63 -0.28
 0 -5 15 5.58 0.35
 0 -5 19 5.28 0.00
 0 -5 21 -2.37 0.26
 0 -5 23 1.40 -0.37
 0 5 25 2.05 0.34
 0 -5 25 -2.05 0.28
 0 5 27 -2.28 -0.17
 0 -5 27 2.27 -0.10
 0 5 29 1.04 -0.06
 0 5 31 0.66 0.16
 0 5 33 -1.32 -0.08
 0 5 35 0.50 -0.05
 0 5 37 1.01 0.11
 0 5 39 -1.90 -0.07
 0 6 -38 -2.56 -0.05
 0 -6 -38 -2.53 0.01
 0 6 -36 1.20 0.09
 0 -6 -36 1.19 -0.03
 0 6 -34 -0.54 -0.11
 0 -6 -34 -0.55 -0.05
 0 6 -32 0.74 0.03
 0 -6 -32 0.75 0.22
 0 6 -30 -1.37 0.11
 0 -6 -30 -1.38 -0.30
 0 6 -28 2.50 -0.17
 0 -6 -28 2.51 0.11
 0 -6 -28 2.51 0.11
 0 6 -26 -4.02 0.01
 0 -6 -26 -4.02 0.23
 0 -6 -26 -4.02 0.23
 0 6 -24 5.05 0.26
 0 -6 -24 5.03 -0.38
 0 -6 -24 5.03 -0.38
 0 6 -22 -5.10 -0.38
 0 -6 -22 -5.06 0.24
 0 -6 -22 -5.06 0.24
 0 6 -20 4.86 0.20
 0 -6 -20 4.85 -0.07
 0 6 -20 4.86 0.20
 0 -6 -20 4.85 -0.07
 0 6 -18 -4.63 0.13
 0 6 -18 -4.63 0.13
 0 -6 -18 -4.65 0.06
 0 -6 -18 -4.65 0.06
 0 -6 -16 2.96 -0.12
 0 6 -16 2.92 -0.34
 0 6 -16 2.92 -0.34
 0 -6 -16 2.96 -0.12
 0 -6 -14 1.66 0.07
 0 -6 -14 1.66 0.07
 0 6 -14 1.68 0.29
 0 6 -14 1.68 0.29
 0 -6 -12 -7.75 0.06
 0 6 -12 -7.73 -0.10
 0 -6 -12 -7.75 0.06
 0 6 -12 -7.73 -0.10
 0 -6 -10 11.49 -0.14
 0 6 -10 11.48 0.02
 0 -6 -10 11.49 -0.14
 0 6 -10 11.48 0.02
 0 -6 -8 -10.38 0.18
 0 -6 -8 -10.38 0.18
 0 -6 -6 5.29 -0.22
 0 -6 -6 5.29 -0.22
 0 -6 -4 0.75 0.15
 0 -6 -4 0.75 0.15
 0 -6 -2 -5.15 0.04
 0 -6 -2 -5.15 0.04
 0 6 -2 -5.15 -0.08
 0 -6 0 6.70 -0.19
 0 -6 2 -5.15 0.08
 0 6 2 -5.15 -0.04
 0 6 4 0.75 -0.15
 0 -6 4 0.74 0.16
 0 -6 4 0.74 0.16
 0 6 6 5.29 0.22
 0 -6 6 5.32 -0.25
 0 -6 6 5.32 -0.25
 0 -6 8 -10.39 0.13
 0 6 8 -10.38 -0.18
 0 -6 8 -10.39 0.13
 0 -6 10 11.48 -0.02
 0 6 10 11.49 0.14
 0 -6 10 11.48 -0.02
 0 -6 12 -7.73 0.10
 0 -6 12 -7.73 0.10
 0 -6 14 1.68 -0.29
 0 -6 16 2.92 0.34
 0 6 26 -4.02 -0.23
 0 -6 26 -4.02 -0.01
 0 6 28 2.51 -0.11
 0 6 30 -1.38 0.30
 0 6 32 0.75 -0.22
 0 6 34 -0.55 0.05
 0 6 36 1.19 0.03
 0 6 38 -2.53 -0.01
 0 7 -37 1.03 0.00
 0 -7 -37 -1.03 -0.11
 0 7 -35 -0.23 0.05
 0 -7 -35 0.25 0.11
 0 7 -33 0.51 -0.14
 0 -7 -33 -0.53 -0.23
 0 7 -31 -0.36 0.27
 0 -7 -31 0.39 0.41
 0 7 -29 -0.62 -0.38
 0 -7 -29 0.59 -0.38
 0 -7 -29 0.59 -0.38
 0 7 -27 0.62 0.30
 0 -7 -27 -0.61 0.07
 0 -7 -27 -0.61 0.07
 0 7 -25 1.26 -0.02
 0 -7 -25 -1.23 0.24
 0 -7 -25 -1.23 0.24
 0 7 -23 -3.19 -0.25
 0 -7 -23 3.14 -0.24
 0 -7 -23 3.14 -0.24
 0 7 -21 3.19 0.27
 0 -7 -21 -3.16 0.02
 0 7 -21 3.19 0.27
 0 -7 -21 -3.16 0.02
 0 -7 -19 1.45 0.05
 0 7 -19 -1.44 -0.07
 0 7 -19 -1.44 -0.07
 0 -7 -19 1.45 0.05
 0 7 -17 -1.08 -0.13
 0 7 -17 -1.08 -0.13
 0 -7 -17 1.04 0.10
 0 -7 -17 1.04 0.10
 0 7 -15 4.20 0.12
 0 -7 -15 -4.18 -0.23
 0 7 -15 4.20 0.12
 0 -7 -15 -4.18 -0.23
 0 7 -13 -7.38 0.06
 0 -7 -13 7.39 0.16
 0 -7 -13 7.39 0.16
 0 7 -13 -7.38 0.06
 0 -7 -11 -8.85 -0.01
 0 7 -11 8.81 -0.21
 0 -7 -11 -8.85 -0.01
 0 -7 -9 7.34 -0.08
 0 -7 -9 7.34 -0.08
 0 -7 -7 -4.02 0.13
 0 -7 -7 -4.02 0.13
 0 -7 -5 1.01 -0.16
 0 -7 -5 1.01 -0.16
 0 -7 -3 0.74 0.12
 0 -7 -3 0.74 0.12
 0 7 -3 -0.72 0.12
 0 -7 -1 -1.44 -0.03
 0 -7 -1 -1.44 -0.03
 0 -7 1 1.44 0.02
 0 7 3 0.74 -0.12
 0 -7 3 -0.72 -0.12
 0 -7 3 -0.72 -0.12
 0 -7 3 -0.72 -0.12
 0 7 5 1.01 0.16
 0 -7 5 -1.04 0.16
 0 -7 5 -1.04 0.16
 0 -7 7 4.04 -0.03
 0 7 7 -4.02 -0.13
 0 -7 7 4.04 -0.03
 0 -7 9 -7.32 -0.16
 0 7 9 7.34 0.08
 0 -7 9 -7.32 -0.16
 0 -7 11 8.81 0.21
 0 7 11 -8.85 0.01
 0 -7 11 8.81 0.21
 0 -7 13 -7.38 -0.06
 0 -7 13 -7.38 -0.06
 0 -7 15 4.20 -0.12
 0 -7 17 -1.08 0.13
 0 7 27 -0.61 -0.07
 0 7 29 0.59 0.38
 0 7 31 0.39 -0.41
 0 7 33 -0.53 0.23
 0 7 35 0.25 -0.11
 0 7 37 -1.03 0.11
 0 8 -36 1.53 0.09
 0 -8 -36 1.50 -0.15
 0 8 -34 -1.55 -0.20
 0 -8 -34 -1.51 0.18
 0 8 -32 1.47 0.32
 0 -8 -32 1.44 -0.33
 0 8 -30 -2.96 -0.43
 0 -8 -30 -2.92 0.46
 0 -8 -30 -2.92 0.46
 0 8 -28 4.69 0.44
 0 -8 -28 4.67 -0.35
 0 8 -26 -3.81 -0.25
 0 -8 -26 -3.82 0.09
 0 -8 -26 -3.82 0.09
 0 8 -24 0.40 -0.02
 0 -8 -24 0.44 0.00
 0 -8 -24 0.44 0.00
 0 8 -22 2.36 0.15
 0 -8 -22 2.32 0.16
 0 -8 -22 2.32 0.16
 0 8 -20 -2.41 -0.06
 0 -8 -20 -2.39 -0.28
 0 8 -20 -2.41 -0.06
 0 -8 -20 -2.39 -0.28
 0 8 -18 0.50 -0.06
 0 -8 -18 0.50 0.10
 0 -8 -18 0.50 0.10
 0 8 -18 0.50 -0.06
 0 8 -16 1.92 0.03
 0 -8 -16 1.90 0.20
 0 8 -16 1.92 0.03
 0 -8 -16 1.90 0.20
 0 -8 -14 -3.81 -0.31
 0 -8 -14 -3.81 -0.31
 0 8 -14 -3.81 0.16
 0 -8 -12 4.16 0.19
 0 8 -12 4.13 -0.34
 0 -8 -12 4.16 0.19
 0 -8 -10 -2.62 -0.03
 0 -8 -10 -2.62 -0.03
 0 -8 -8 0.74 -0.06
 0 -8 -8 0.74 -0.06
 0 -8 -6 -0.27 0.12
 0 -8 -6 -0.27 0.12
 0 -8 -4 0.96 -0.16
 0 -8 -4 0.96 -0.16
 0 -8 -2 -1.52 0.14
 0 -8 -2 -1.52 0.14
 0 -8 0 1.65 -0.07
 0 -8 2 -1.54 0.06
 0 8 4 0.96 0.16
 0 -8 4 0.99 -0.08
 0 -8 4 0.99 -0.08
 0 -8 4 0.99 -0.08
 0 -8 6 -0.29 0.00
 0 -8 6 -0.29 0.00
 0 8 6 -0.27 -0.12
 0 -8 8 0.73 0.19
 0 8 8 0.74 0.06
 0 -8 8 0.73 0.19
 0 -8 10 -2.59 -0.36
 0 8 10 -2.62 0.03
 0 -8 10 -2.59 -0.36
 0 -8 12 4.13 0.34
 0 -8 12 4.13 0.34
 0 -8 14 -3.81 -0.16
 0 -8 14 -3.81 -0.16
 0 -8 16 1.92 -0.03
 0 -8 18 0.50 0.06
 0 8 28 4.67 0.35
 0 8 30 -2.92 -0.46
 0 8 32 1.44 0.33
 0 8 34 -1.51 -0.18
 0 8 36 1.50 0.15
 0 9 -35 -1.50 -0.01
 0 -9 -35 1.50 -0.04
 0 9 -33 1.42 0.01
 0 -9 -33 -1.43 0.08
 0 9 -31 -2.23 -0.08
 0 -9 -31 2.23 -0.23
 0 9 -29 3.98 0.20
 0 -9 -29 -3.97 0.33
 0 -9 -29 -3.97 0.33
 0 9 -27 -4.17 -0.21
 0 -9 -27 4.16 -0.27
 0 -9 -27 4.16 -0.27
 0 9 -25 1.15 0.08
 0 -9 -25 -1.17 0.22
 0 -9 -23 -3.20 -0.33
 0 9 -23 3.23 0.00
 0 -9 -23 -3.20 -0.33
 0 -9 -21 6.06 0.48
 0 9 -21 -6.09 0.14
 0 -9 -21 6.06 0.48
 0 -9 -19 -6.54 -0.39
 0 -9 -19 -6.54 -0.39
 0 9 -17 -5.29 0.38
 0 -9 -17 5.29 0.08
 0 -9 -17 5.29 0.08
 0 -9 -15 -3.19 0.15
 0 -9 -15 -3.19 0.15
 0 9 -15 3.17 -0.12
 0 -9 -13 1.76 -0.12
 0 9 -13 -1.74 -0.20
 0 -9 -13 1.76 -0.12
 0 -9 -11 -2.42 -0.01
 0 -9 -11 -2.42 -0.01
 0 -9 -9 4.18 0.10
 0 -9 -9 4.18 0.10
 0 -9 -7 -4.40 -0.16
 0 -9 -7 -4.40 -0.16
 0 -9 -5 2.51 0.22
 0 -9 -5 2.51 0.22
 0 -9 -3 -0.54 -0.21
 0 -9 -3 -0.54 -0.21
 0 -9 -1 -0.23 0.09
 0 -9 -1 -0.23 0.09
 0 -9 1 0.23 0.03
 0 -9 3 0.52 -0.04
 0 -9 5 -2.49 0.00
 0 -9 5 -2.49 0.00
 0 9 5 2.51 -0.22
 0 -9 5 -2.49 0.00
 0 -9 7 4.39 -0.06
 0 9 7 -4.40 0.16
 0 -9 7 4.39 -0.06
 0 -9 9 -4.18 0.23
 0 9 9 4.18 -0.10
 0 -9 9 -4.18 0.23
 0 -9 11 2.41 -0.33
 0 -9 11 2.41 -0.33
 0 -9 13 -1.74 0.20
 0 -9 13 -1.74 0.20
 0 -9 15 3.17 0.12
 0 -9 17 -5.29 -0.38
 0 -9 19 6.56 0.36
 0 9 29 -3.97 -0.33
 0 9 31 2.23 0.23
 0 9 33 -1.43 -0.08
 0 9 35 1.50 0.04
 0 -10 -34 -1.04 0.13
 0 -10 -32 0.61 -0.10
 0 -10 -30 0.56 -0.02
 0 -10 -30 0.56 -0.02
 0 -10 -28 -1.45 0.10
 0 -10 -28 -1.45 0.10
 0 -10 -26 0.31 -0.13
 0 -10 -26 0.31 -0.13
 0 -10 -24 2.87 0.22
 0 -10 -24 2.87 0.22
 0 -10 -22 -6.42 -0.37
 0 -10 -22 -6.42 -0.37
 0 -10 -20 9.05 0.38
 0 -10 -20 9.05 0.38
 0 -10 -18 -10.00 -0.20
 0 -10 -18 -10.00 -0.20
 0 -10 -16 8.39 0.02
 0 -10 -16 8.39 0.02
 0 10 -14 -4.86 0.20
 0 -10 -14 -4.90 0.00
 0 -10 -14 -4.90 0.00
 0 -10 -12 2.59 0.10
 0 -10 -12 2.59 0.10
 0 -10 -10 -3.35 -0.15
 0 -10 -10 -3.35 -0.15
 0 -10 -8 5.12 0.16
 0 -10 -8 5.12 0.16
 0 -10 -6 -4.98 -0.23
 0 -10 -6 -4.98 -0.23
 0 -10 -4 3.25 0.29
 0 -10 -4 3.25 0.29
 0 -10 -2 -2.00 -0.20
 0 -10 -2 -2.00 -0.20
 0 -10 0 1.71 0.00
 0 -10 2 -2.00 0.10
 0 -10 4 3.25 -0.04
 0 10 6 -4.98 0.23
 0 -10 6 -4.98 -0.03
 0 -10 6 -4.98 -0.03
 0 -10 6 -4.98 -0.03
 0 -10 8 5.11 -0.06
 0 -10 8 5.11 -0.06
 0 10 8 5.12 -0.16
 0 -10 10 -3.31 0.22
 0 10 10 -3.35 0.15
 0 -10 10 -3.31 0.22
 0 -10 12 2.53 -0.18
 0 -10 12 2.53 -0.18
 0 -10 14 -4.86 -0.20
 0 -10 16 8.39 0.67
 0 -10 18 -10.02 -0.84
 0 10 30 0.56 0.02
 0 10 32 0.61 0.10
 0 10 34 -1.04 -0.13
 0 -11 -33 -2.08 0.17
 0 -11 -31 1.45 -0.16
 0 -11 -31 1.45 -0.16
 0 -11 -29 -0.57 0.12
 0 -11 -29 -0.57 0.12
 0 -11 -27 -0.01 -0.11
 0 -11 -27 -0.01 -0.11
 0 -11 -25 -0.38 0.05
 0 -11 -25 -0.38 0.05
 0 -11 -23 1.89 0.08
 0 -11 -23 1.89 0.08
 0 -11 -21 -4.44 -0.17
 0 -11 -21 -4.44 -0.17
 0 -11 -19 7.30 0.13
 0 -11 -19 7.30 0.13
 0 -11 -17 -8.17 -0.03
 0 -11 -17 -8.17 -0.03
 0 -11 -15 5.19 0.03
 0 -11 -15 5.19 0.03
 0 -11 -13 -0.36 -0.12
 0 -11 -13 -0.36 -0.12
 0 -11 -11 -1.90 0.15
 0 -11 -11 -1.90 0.15
 0 -11 -9 0.40 -0.12
 0 -11 -9 0.40 -0.12
 0 -11 -7 1.78 0.13
 0 -11 -7 1.78 0.13
 0 -11 -5 -2.13 -0.22
 0 -11 -5 -2.13 -0.22
 0 -11 -3 1.45 0.26
 0 -11 -3 1.45 0.26
 0 -11 -1 -1.09 -0.15
 0 -11 1 1.09 0.00
 0 -11 3 -1.46 0.03
 0 -11 5 2.15 0.05
 0 -11 7 -1.80 -0.04
 0 11 7 1.78 -0.13
 0 -11 7 -1.80 -0.04
 0 -11 7 -1.80 -0.04
 0 -11 9 -0.42 -0.12
 0 -11 9 -0.42 -0.12
 0 11 9 0.40 0.12
 0 -11 11 1.96 0.21
 0 -11 13 0.31 0.04
 0 -11 15 -5.19 -0.54
 0 -11 17 8.21 0.89
 0 11 29 -0.57 -0.12
 0 11 31 1.45 0.16
 0 11 33 -2.08 -0.17
 0 -12 -30 0.33 -0.08
 0 -12 -30 0.33 -0.08
 0 -12 -28 -0.19 0.17
 0 -12 -28 -0.19 0.17
 0 -12 -26 -0.44 -0.21
 0 -12 -26 -0.44 -0.21
 0 -12 -24 1.13 0.12
 0 -12 -24 1.13 0.12
 0 -12 -22 -0.78 0.01
 0 -12 -22 -0.78 0.01
 0 -12 -20 -1.50 -0.07
 0 -12 -20 -1.50 -0.07
 0 -12 -18 4.49 0.04
 0 -12 -18 4.49 0.04
 0 -12 -16 -4.89 -0.04
 0 -12 -16 -4.89 -0.04
 0 -12 -14 1.27 0.13
 0 -12 -14 1.27 0.13
 0 -12 -12 3.23 -0.21
 0 -12 -12 3.23 -0.21
 0 -12 -10 -4.59 0.19
 0 -12 -10 -4.59 0.19
 0 -12 -8 2.93 -0.13
 0 -12 -8 2.93 -0.13
 0 -12 -6 -1.31 0.11
 0 -12 -6 -1.31 0.11
 0 -12 -4 1.20 -0.16
 0 -12 -4 1.20 -0.16
 0 -12 -2 -1.68 0.18
 0 -12 0 1.90 -0.13
 0 -12 2 -1.70 0.09
 0 -12 4 1.20 -0.10
 0 -12 6 -1.29 0.11
 0 -12 8 2.91 -0.03
 0 -12 10 -4.62 -0.08
 0 -12 12 3.27 0.04
 0 -12 14 1.26 0.22
 0 -12 16 -4.92 -0.49
 0 12 30 0.33 0.08
 0 -13 -29 0.47 -0.01
 0 -13 -27 -1.80 0.15
 0 -13 -25 1.98 -0.18
 0 -13 -25 1.98 -0.18
 0 -13 -23 -1.12 0.09
 0 -13 -23 -1.12 0.09
 0 -13 -21 0.77 0.00
 0 -13 -21 0.77 0.00
 0 -13 -19 -2.44 -0.01
 0 -13 -19 -2.44 -0.01
 0 -13 -17 5.04 0.00
 0 -13 -17 5.04 0.00
 0 -13 -15 -5.28 -0.06
 0 -13 -13 2.05 0.18
 0 -13 -11 1.77 -0.28
 0 -13 -9 -3.14 0.27
 0 -13 -7 2.52 -0.16
 0 -13 -5 -2.20 0.05
 0 -13 -3 2.96 -0.03
 0 -13 -1 -3.83 0.09
 0 -13 1 3.86 -0.14
 0 -13 3 -3.01 0.13
 0 -13 5 2.22 -0.11
 0 -13 7 -2.50 0.11
 0 -13 9 3.14 -0.11
 0 -13 11 -1.80 0.11
 0 -13 13 -2.04 -0.13
 0 -13 15 5.31 0.13
 0 13 29 0.47 0.01
 0 -14 -26 -6.16 0.05
 0 -14 -24 7.08 -0.07
 0 -14 -22 -5.75 0.06
 0 -14 -20 4.28 -0.07
 0 -14 -18 -5.22 0.09
 0 -14 -16 7.71 -0.08
 0 -14 -14 -8.14 -0.02
 0 -14 -12 5.10 0.17
 0 -14 -10 -1.22 -0.28
 0 -14 -8 -0.63 0.24
 0 -14 -6 0.76 -0.07
 0 -14 -4 -1.12 -0.06
 0 -14 -2 2.22 0.02
 0 -14 0 -2.87 0.11
 0 -14 2 2.27 -0.15
 0 -14 4 -1.17 0.08
 0 -14 6 0.77 -0.03
 0 -14 8 -0.62 0.08
 0 -14 10 -1.21 -0.16
 0 -14 12 5.08 0.16
 0 -14 14 -8.16 -0.05
 0 -15 -23 8.23 0.02
 0 -15 -21 -6.24 0.06
 0 -15 -19 4.62 -0.10
 0 -15 -17 -6.01 0.09
 0 -15 -15 8.87 -0.04
 0 -15 -13 -9.13 -0.04
 0 -15 -11 5.73 0.15
 0 -15 -9 -1.73 -0.20
 0 -15 -7 -0.17 0.13
 0 -15 -5 0.51 -0.02
 0 -15 -3 -1.04 0.04
 0 -15 -1 1.85 -0.19
 0 -15 1 -1.88 0.28
 0 -15 3 1.09 -0.19
 0 -15 5 -0.53 0.04
 0 -15 7 0.16 0.02
 0 -15 9 1.72 0.04
 0 -15 11 -5.71 -0.08
 0 -15 13 9.12 0.03
 0 -16 -20 -2.86 0.08
 0 -16 -18 2.56 -0.03
 0 -16 -16 -4.85 -0.05
 0 -16 -14 7.47 0.07
 0 -16 -12 -6.99 -0.07
 0 -16 -10 3.39 0.11
 0 -16 -8 0.27 -0.13
 0 -16 -6 -2.12 0.10
 0 -16 -4 2.96 -0.12
 0 -16 -2 -3.84 0.26
 0 -16 0 4.34 -0.39
 0 -16 2 -3.87 0.37
 0 -16 4 2.98 -0.21
 0 -16 6 -2.10 0.06
 0 -16 8 0.25 -0.01
 0 -16 10 3.38 -0.01
 0 -16 12 -6.97 0.04
 0 -17 -15 -3.24 -0.09
 0 -17 -13 4.86 0.02
 0 -17 -11 -3.94 0.00
 0 -17 -9 1.21 0.05
 0 -17 -7 1.16 -0.08
 0 -17 -5 -2.54 0.05
 0 -17 -3 3.64 -0.06
 0 -17 -1 -4.57 0.15
 0 -17 1 4.58 -0.23
 0 -17 3 -3.66 0.20
 0 -17 5 2.52 -0.12
 0 -17 7 -1.13 0.05
 0 -17 9 -1.21 -0.01
 0 -18 -10 -1.92 0.04
 0 -18 -8 1.05 0.03
 0 -18 -6 -0.83 0.05
 0 -18 -4 0.76 -0.22
 0 -18 -2 -0.27 0.31
 0 -18 0 -0.10 -0.25
 0 -18 2 -0.25 0.15
 0 -18 4 0.76 -0.07
 0 -18 6 -0.86 0.04
 0 -18 8 1.06 -0.02
 1 1 -40 -0.86 -0.09
 1 -1 -40 -0.87 0.03
 1 1 -38 0.24 0.18
 1 -1 -38 0.23 -0.03
 1 1 -36 0.70 -0.16
 1 -1 -36 0.69 -0.06
 1 1 -34 -1.99 0.03
 1 -1 -34 -1.96 0.19
 1 1 -32 3.40 0.08
 1 -1 -32 3.38 -0.23
 1 1 -30 -4.07 -0.08
 1 -1 -30 -4.07 0.13
 1 1 -28 3.35 -0.02
 1 -1 -28 3.33 0.08
 1 1 -26 -1.84 0.08
 1 -1 -26 -1.81 -0.26
 1 1 -24 0.82 -0.08
 1 -1 -24 0.81 0.32
 1 1 -22 -0.58 0.06
 1 -1 -22 -0.60 -0.30
 1 1 -20 0.51 -0.09
 1 -1 -20 0.56 0.31
 1 1 -18 -0.66 0.13
 1 -1 -18 -0.70 -0.35
 1 1 -16 1.37 -0.09
 1 -1 -16 1.39 0.27
 1 1 -14 -1.82 -0.03
 1 1 -14 -1.82 -0.03
 1 -1 -14 -1.82 -0.01
 1 1 -12 2.05 0.08
 1 -1 -12 2.05 -0.23
 1 1 -12 2.05 0.08
 1 1 -10 -6.87 -0.01
 1 1 -10 -6.87 -0.01
 1 -1 -10 -6.86 0.22
 1 1 -8 21.76 -0.06
 1 -1 -8 21.73 -0.01
 1 1 -6 -41.61 0.04
 1 -1 -6 -41.58 -0.15
 1 1 8 -9.81 -0.30
 1 1 10 9.71 0.37
 1 -1 12 -6.24 -0.29
 1 1 12 -6.22 -0.16
 1 -1 14 -0.08 0.47
 1 1 14 -0.08 -0.09
 1 -1 16 2.97 -0.34
 1 1 16 2.96 0.13
 1 -1 18 -0.58 0.02
 1 1 18 -0.57 -0.01
 1 1 20 -2.55 -0.01
 1 -1 20 -2.56 0.14
 1 1 20 -2.55 -0.01
 1 1 22 2.66 -0.12
 1 -1 22 2.66 0.01
 1 1 24 -0.81 0.25
 1 -1 24 -0.78 -0.21
 1 1 26 -0.55 -0.26
 1 -1 26 -0.59 0.24
 1 1 28 0.92 0.23
 1 -1 28 0.93 -0.13
 1 1 30 -0.82 -0.23
 1 -1 30 -0.80 0.08
 1 -1 32 0.02 -0.15
 1 1 32 0.04 0.24
 1 -1 34 1.83 0.20
 1 1 34 1.83 -0.17
 1 1 36 -4.05 0.04
 1 1 38 5.23 0.05
 1 2 -41 -1.98 -0.10
 1 -2 -41 1.98 -0.12
 1 2 -39 2.15 0.15
 1 -2 -39 -2.13 0.09
 1 2 -37 -2.03 -0.14
 1 -2 -37 2.04 0.01
 1 2 -35 1.33 0.07
 1 -2 -35 -1.36 -0.12
 1 2 -33 0.44 -0.04
 1 -2 -33 -0.41 0.12
 1 2 -31 -2.62 0.08
 1 -2 -31 2.61 0.01
 1 2 -29 3.32 -0.13
 1 -2 -29 -3.33 -0.21
 1 2 -27 -1.83 0.13
 1 -2 -27 1.83 0.37
 1 2 -25 -0.02 -0.10
 1 -2 -25 0.04 -0.42
 1 2 -23 0.21 0.11
 1 -2 -23 -0.22 0.35
 1 2 -21 0.71 -0.16
 1 -2 -21 -0.72 -0.26
 1 2 -19 -1.01 0.18
 1 -2 -19 1.04 0.28
 1 2 -17 0.64 -0.11
 1 2 -17 0.64 -0.11
 1 -2 -17 -0.65 -0.33
 1 2 -15 0.20 0.01
 1 -2 -15 -0.20 0.22
 1 2 -15 0.20 0.01
 1 2 -13 -2.52 0.01
 1 2 -13 -2.52 0.01
 1 -2 -13 2.53 0.04
 1 -2 -11 -3.78 -0.18
 1 2 -11 3.77 0.07
 1 2 -11 3.77 0.07
 1 -2 -11 -3.78 -0.18
 1 2 -9 5.07 -0.12
 1 -2 -9 -5.05 0.04
 1 2 -9 5.07 -0.12
 1 -2 -9 -5.05 0.04
 1 2 -7 -28.18 0.09
 1 -2 -7 28.14 0.21
 1 2 -7 -28.18 0.09
 1 -2 -7 28.14 0.21
 1 -2 -5 -50.52 -0.30
 1 -2 -5 -50.52 -0.30
 1 -2 -3 47.77 0.26
 1 -2 9 -14.03 -0.03
 1 2 9 14.04 0.14
 1 2 11 -9.76 -0.11
 1 -2 11 9.77 0.15
 1 -2 13 -0.60 -0.33
 1 2 13 0.60 -0.02
 1 2 15 6.41 0.11
 1 -2 15 -6.46 0.39
 1 2 17 -4.85 -0.11
 1 -2 17 4.90 -0.21
 1 2 19 -1.47 0.14
 1 -2 19 1.44 -0.04
 1 -2 21 -5.07 0.13
 1 2 23 -4.30 0.15
 1 -2 23 4.30 -0.03
 1 2 25 2.15 -0.06
 1 -2 25 -2.14 -0.06
 1 -2 27 0.38 -0.02
 1 2 27 -0.38 0.00
 1 -2 29 1.08 0.15
 1 2 29 -1.09 -0.03
 1 2 31 1.58 0.08
 1 -2 31 -1.56 -0.17
 1 2 33 0.06 -0.06
 1 -2 33 -0.06 0.05
 1 2 35 -3.23 0.00
 1 2 37 5.75 0.03
 1 2 39 -6.07 -0.05
 1 3 -40 2.49 0.05
 1 -3 -40 2.47 -0.15
 1 3 -38 -3.34 -0.04
 1 -3 -38 -3.33 0.08
 1 3 -36 3.96 -0.01
 1 -3 -36 3.98 0.00
 1 3 -34 -3.56 -0.02
 1 -3 -34 -3.59 0.01
 1 3 -32 1.43 0.12
 1 -3 -32 1.44 -0.10
 1 3 -30 1.29 -0.17
 1 -3 -30 1.30 0.20
 1 3 -28 -2.20 0.05
 1 -3 -28 -2.21 -0.28
 1 3 -26 0.96 0.07
 1 -3 -26 0.94 0.31
 1 3 -24 -0.12 -0.02
 1 -3 -24 -0.10 -0.26
 1 3 -22 1.30 -0.19
 1 -3 -22 1.29 0.16
 1 3 -20 -2.47 0.32
 1 -3 -20 -2.46 -0.13
 1 3 -20 -2.47 0.32
 1 3 -18 1.34 -0.22
 1 3 -18 1.34 -0.22
 1 -3 -18 1.34 0.22
 1 3 -16 1.36 0.03
 1 -3 -16 1.37 -0.28
 1 3 -16 1.36 0.03
 1 -3 -16 1.37 -0.28
 1 3 -14 -4.72 0.05
 1 -3 -14 -4.72 0.14
 1 3 -14 -4.72 0.05
 1 -3 -14 -4.72 0.14
 1 3 -12 9.30 0.01
 1 -3 -12 9.31 0.10
 1 3 -12 9.30 0.01
 1 -3 -12 9.31 0.10
 1 -3 -10 -11.75 -0.17
 1 3 -10 -11.73 -0.04
 1 -3 -10 -11.75 -0.17
 1 3 -10 -11.73 -0.04
 1 3 -8 3.70 -0.04
 1 -3 -8 3.74 0.03
 1 3 -8 3.70 -0.04
 1 -3 -8 3.74 0.03
 1 3 -6 15.03 0.12
 1 -3 -6 14.98 0.09
 1 -3 -6 14.98 0.09
 1 -3 -4 -27.76 -0.05
 1 -3 -4 -27.76 -0.05
 1 -3 -2 17.44 0.02
 1 -3 0 10.03 -0.13
 1 -3 2 -30.62 0.26
 1 -3 4 31.38 -0.23
 1 -3 4 31.38 -0.23
 1 -3 6 -21.85 0.07
 1 -3 8 14.74 0.03
 1 -3 10 -9.33 -0.03
 1 3 10 -9.34 0.22
 1 -3 12 0.35 0.10
 1 -3 12 0.35 0.10
 1 3 12 0.36 -0.23
 1 -3 14 8.58 -0.26
 1 3 14 8.55 0.17
 1 -3 16 -9.97 0.34
 1 -3 18 4.18 -0.20
 1 -3 20 2.02 -0.04
 1 -3 22 -4.85 0.13
 1 -3 24 5.22 -0.03
 1 -3 26 -4.06 -0.04
 1 3 26 -4.04 -0.13
 1 -3 28 1.37 -0.05
 1 3 28 1.35 0.08
 1 3 30 1.33 0.00
 1 -3 30 1.32 0.21
 1 3 32 -1.62 0.01
 1 3 34 -0.63 -0.06
 1 3 36 3.11 0.02
 1 3 38 -3.95 0.05
 1 3 40 3.20 -0.04
 1 4 -39 -0.68 -0.01
 1 -4 -39 0.68 -0.11
 1 4 -37 0.93 0.01
 1 -4 -37 -0.95 0.09
 1 4 -35 -1.53 -0.04
 1 -4 -35 1.56 -0.10
 1 4 -33 1.72 0.16
 1 -4 -33 -1.74 0.13
 1 4 -31 -0.18 -0.23
 1 -4 -31 0.19 -0.12
 1 4 -29 -2.45 0.09
 1 -4 -29 2.45 0.07
 1 4 -27 3.86 0.16
 1 -4 -27 -3.86 -0.06
 1 4 -25 -3.46 -0.19
 1 -4 -25 3.45 0.12
 1 4 -23 3.15 -0.10
 1 -4 -23 -3.15 -0.18
 1 4 -21 -3.47 0.41
 1 4 -21 -3.47 0.41
 1 -4 -21 3.47 0.19
 1 4 -19 2.17 -0.43
 1 -4 -19 -2.16 -0.24
 1 4 -19 2.17 -0.43
 1 -4 -19 -2.16 -0.24
 1 -4 -17 -1.36 0.33
 1 4 -17 1.35 0.21
 1 4 -17 1.35 0.21
 1 -4 -17 -1.36 0.33
 1 4 -15 -4.40 -0.04
 1 -4 -15 4.39 -0.32
 1 4 -15 -4.40 -0.04
 1 -4 -15 4.39 -0.32
 1 4 -13 5.96 0.05
 1 -4 -13 -5.95 0.12
 1 -4 -13 -5.95 0.12
 1 4 -13 5.96 0.05
 1 4 -11 -8.18 -0.08
 1 -4 -11 8.17 0.11
 1 4 -11 -8.18 -0.08
 1 -4 -11 8.17 0.11
 1 4 -9 9.77 -0.03
 1 -4 -9 -9.79 -0.18
 1 4 -9 9.77 -0.03
 1 -4 -9 -9.79 -0.18
 1 4 -7 -4.97 0.18
 1 -4 -7 5.02 0.13
 1 -4 -7 5.02 0.13
 1 -4 -5 5.77 -0.15
 1 -4 -5 5.77 -0.15
 1 -4 -3 -11.63 0.23
 1 -4 -3 -11.63 0.23
 1 -4 -1 4.65 -0.17
 1 4 1 -8.33 -0.12
 1 -4 1 8.30 -0.03
 1 4 3 15.16 0.02
 1 -4 3 -15.13 0.15
 1 -4 5 14.16 -0.08
 1 4 5 -14.18 0.06
 1 -4 5 14.16 -0.08
 1 -4 7 -11.59 -0.04
 1 4 7 11.61 -0.14
 1 -4 7 -11.59 -0.04
 1 -4 9 8.91 0.04
 1 4 9 -8.92 0.26
 1 -4 11 -2.78 0.03
 1 4 11 2.78 -0.32
 1 -4 13 -5.42 0.04
 1 -4 15 9.65 -0.23
 1 -4 17 -7.93 0.30
 1 -4 19 3.85 -0.14
 1 -4 21 -0.18 -0.07
 1 -4 23 -3.04 0.05
 1 -4 25 4.90 0.15
 1 -4 27 -3.59 -0.23
 1 4 27 3.59 0.07
 1 4 29 -0.17 0.05
 1 -4 29 0.15 0.08
 1 4 31 -2.01 -0.03
 1 4 33 1.47 -0.10
 1 4 35 0.17 0.11
 1 4 37 -1.02 0.05
 1 4 39 0.99 -0.17
 1 5 -40 2.39 -0.02
 1 -5 -40 2.38 0.10
 1 5 -38 -3.80 0.11
 1 -5 -38 -3.77 -0.10
 1 5 -36 4.08 -0.14
 1 -5 -36 4.04 0.10
 1 5 -34 -1.96 0.19
 1 -5 -34 -1.94 -0.10
 1 5 -32 -0.76 -0.27
 1 -5 -32 -0.78 0.03
 1 5 -30 0.88 0.21
 1 -5 -30 0.89 0.11
 1 5 -28 1.84 0.02
 1 -5 -28 1.82 -0.19
 1 5 -26 -4.23 -0.18
 1 -5 -26 -4.23 0.11
 1 5 -24 4.32 0.04
 1 -5 -24 4.34 0.08
 1 5 -22 -2.95 0.28
 1 -5 -22 -2.97 -0.21
 1 5 -22 -2.95 0.28
 1 5 -20 0.62 -0.41
 1 -5 -20 0.62 0.26
 1 5 -20 0.62 -0.41
 1 -5 -20 0.62 0.26
 1 5 -18 3.08 0.27
 1 -5 -18 3.09 -0.30
 1 5 -18 3.08 0.27
 1 -5 -18 3.09 -0.30
 1 5 -16 -6.16 -0.11
 1 -5 -16 -6.16 0.35
 1 5 -16 -6.16 -0.11
 1 -5 -16 -6.16 0.35
 1 5 -14 5.38 0.12
 1 -5 -14 5.37 -0.32
 1 5 -14 5.38 0.12
 1 -5 -14 5.37 -0.32
 1 5 -12 -1.96 -0.20
 1 -5 -12 -1.94 0.16
 1 5 -12 -1.96 -0.20
 1 -5 -12 -1.94 0.16
 1 5 -10 0.54 0.16
 1 -5 -10 0.53 -0.02
 1 -5 -10 0.53 -0.02
 1 -5 -8 -1.49 -0.03
 1 5 -8 -1.48 -0.02
 1 -5 -8 -1.49 -0.03
 1 -5 -6 0.28 0.05
 1 -5 -6 0.28 0.05
 1 -5 -4 3.99 -0.11
 1 -5 -4 3.99 -0.11
 1 -5 -2 -6.42 0.15
 1 -5 0 4.48 -0.06
 1 -5 2 -1.42 -0.09
 1 5 2 -1.39 0.08
 1 -5 4 -0.46 0.13
 1 5 4 -0.48 -0.11
 1 -5 4 -0.46 0.13
 1 -5 6 3.04 -0.05
 1 -5 6 3.04 -0.05
 1 5 6 3.05 0.13
 1 -5 8 -6.51 -0.01
 1 -5 8 -6.51 -0.01
 1 5 8 -6.51 0.00
 1 -5 10 7.10 -0.05
 1 5 10 7.09 -0.18
 1 -5 10 7.10 -0.05
 1 -5 12 -3.41 0.11
 1 -5 20 2.91 0.03
 1 -5 22 -0.87 -0.07
 1 -5 24 -2.19 -0.09
 1 -5 26 3.04 0.27
 1 5 28 -0.59 0.08
 1 5 30 -2.48 -0.10
 1 5 32 3.66 -0.06
 1 5 34 -3.20 0.19
 1 5 36 2.34 -0.08
 1 5 38 -1.45 -0.13
 1 6 -39 -4.48 0.12
 1 -6 -39 4.47 0.06
 1 6 -37 6.07 -0.18
 1 -6 -37 -6.05 -0.04
 1 6 -35 -4.43 0.19
 1 -6 -35 4.41 0.01
 1 6 -33 -0.55 -0.22
 1 -6 -33 0.56 0.05
 1 6 -31 4.84 0.23
 1 -6 -31 -4.86 -0.17
 1 6 -29 -4.29 -0.11
 1 -6 -29 4.31 0.28
 1 6 -27 -0.06 -0.07
 1 -6 -27 0.05 -0.27
 1 6 -25 3.39 0.14
 1 -6 -25 -3.40 0.14
 1 6 -23 -3.13 -0.05
 1 6 -23 -3.13 -0.05
 1 -6 -23 3.16 0.00
 1 -6 -23 3.16 0.00
 1 6 -21 0.37 -0.02
 1 6 -21 0.37 -0.02
 1 -6 -21 -0.38 -0.03
 1 -6 -21 -0.38 -0.03
 1 6 -19 3.45 -0.07
 1 -6 -19 -3.46 0.01
 1 6 -19 3.45 -0.07
 1 -6 -19 -3.46 0.01
 1 6 -17 -6.88 0.16
 1 -6 -17 6.89 -0.06
 1 -6 -17 6.89 -0.06
 1 6 -17 -6.88 0.16
 1 6 -15 6.97 -0.09
 1 -6 -15 -6.97 0.18
 1 6 -15 6.97 -0.09
 1 -6 -15 -6.97 0.18
 1 6 -13 -2.30 -0.10
 1 -6 -13 2.29 -0.25
 1 -6 -13 2.29 -0.25
 1 -6 -11 3.27 0.23
 1 6 -11 -3.26 0.19
 1 -6 -11 3.27 0.23
 1 -6 -9 -4.41 -0.16
 1 6 -9 4.39 -0.14
 1 -6 -9 -4.41 -0.16
 1 -6 -7 1.16 0.13
 1 -6 -7 1.16 0.13
 1 -6 -5 2.29 -0.11
 1 -6 -5 2.29 -0.11
 1 -6 -3 -3.70 0.05
 1 -6 -3 -3.70 0.05
 1 -6 -1 3.34 -0.02
 1 -6 1 -0.95 0.07
 1 -6 3 -2.69 -0.16
 1 6 3 2.68 -0.07
 1 -6 5 3.73 0.17
 1 -6 5 3.73 0.17
 1 6 5 -3.73 0.16
 1 -6 7 0.43 -0.10
 1 -6 7 0.43 -0.10
 1 6 7 -0.42 -0.13
 1 -6 9 -6.63 0.06
 1 -6 9 -6.63 0.06
 1 6 9 6.62 -0.04
 1 -6 11 9.91 -0.11
 1 -6 11 9.91 -0.11
 1 -6 13 -9.67 0.17
 1 6 29 -1.18 -0.12
 1 6 31 3.47 0.03
 1 6 33 -4.39 0.12
 1 6 35 4.10 -0.11
 1 6 37 -2.87 -0.04
 1 6 39 1.34 0.13
 1 7 -38 3.41 -0.11
 1 -7 -38 3.40 -0.02
 1 7 -36 -2.76 0.14
 1 -7 -36 -2.76 0.05
 1 7 -34 -0.79 -0.18
 1 -7 -34 -0.78 -0.06
 1 7 -32 5.16 0.22
 1 -7 -32 5.15 0.07
 1 7 -30 -6.26 -0.19
 1 -7 -30 -6.27 -0.10
 1 7 -28 2.43 0.05
 1 -7 -28 2.45 0.12
 1 7 -26 3.04 0.11
 1 -7 -26 3.04 -0.10
 1 7 -24 -5.72 -0.20
 1 -7 -24 -5.74 0.08
 1 -7 -24 -5.74 0.08
 1 7 -22 4.68 0.27
 1 -7 -22 4.69 -0.11
 1 -7 -22 4.69 -0.11
 1 7 -22 4.68 0.27
 1 7 -20 -1.64 -0.39
 1 -7 -20 -1.63 0.16
 1 7 -20 -1.64 -0.39
 1 -7 -20 -1.63 0.16
 1 -7 -18 -1.78 -0.15
 1 -7 -18 -1.78 -0.15
 1 7 -18 -1.77 0.49
 1 7 -18 -1.77 0.49
 1 7 -16 3.52 -0.42
 1 -7 -16 3.53 0.04
 1 -7 -16 3.53 0.04
 1 7 -14 -1.30 0.19
 1 -7 -14 -1.31 0.12
 1 -7 -14 -1.31 0.12
 1 7 -12 -3.88 0.02
 1 -7 -12 -3.88 -0.21
 1 -7 -12 -3.88 -0.21
 1 7 -10 6.88 -0.08
 1 -7 -10 6.89 0.20
 1 -7 -10 6.89 0.20
 1 -7 -8 -3.93 -0.14
 1 -7 -8 -3.93 -0.14
 1 -7 -6 -3.24 0.09
 1 -7 -6 -3.24 0.09
 1 -7 -4 10.02 -0.05
 1 -7 -4 10.02 -0.05
 1 -7 -2 -13.06 0.01
 1 -7 0 10.63 -0.01
 1 -7 2 -3.41 0.10
 1 7 2 -3.42 0.08
 1 7 4 -3.79 0.00
 1 -7 4 -3.79 -0.20
 1 -7 6 5.06 0.17
 1 7 6 5.08 -0.05
 1 -7 6 5.06 0.17
 1 -7 8 0.18 -0.06
 1 -7 8 0.18 -0.06
 1 7 8 0.16 -0.01
 1 -7 10 -6.95 0.02
 1 -7 10 -6.95 0.02
 1 7 10 -6.97 0.08
 1 -7 12 11.26 -0.10
 1 -7 12 11.26 -0.10
 1 -7 14 -12.91 0.20
 1 -7 14 -12.91 0.20
 1 7 30 -0.41 0.11
 1 7 32 -0.84 -0.02
 1 7 34 1.18 -0.01
 1 7 36 -0.58 -0.06
 1 7 38 -0.21 0.10
 1 -8 -37 0.27 -0.09
 1 8 -37 -0.28 -0.02
 1 -8 -35 1.77 0.06
 1 8 -35 -1.80 -0.07
 1 8 -33 3.65 0.21
 1 -8 -33 -3.61 0.02
 1 8 -31 -3.56 -0.28
 1 -8 -31 3.54 -0.10
 1 8 -29 0.55 0.20
 1 -8 -29 -0.56 0.16
 1 8 -27 4.08 -0.05
 1 -8 -27 -4.08 -0.16
 1 -8 -25 7.55 0.11
 1 -8 -25 7.55 0.11
 1 8 -25 -7.54 -0.07
 1 -8 -23 -8.37 -0.03
 1 8 -23 8.36 0.12
 1 -8 -23 -8.37 -0.03
 1 -8 -21 7.23 0.00
 1 -8 -21 7.23 0.00
 1 8 -19 5.13 0.32
 1 -8 -19 -5.13 -0.01
 1 -8 -19 -5.13 -0.01
 1 8 -17 -2.98 -0.39
 1 -8 -17 3.00 0.05
 1 -8 -17 3.00 0.05
 1 -8 -15 -2.71 -0.10
 1 -8 -15 -2.71 -0.10
 1 8 -15 2.68 0.30
 1 8 -13 -5.30 -0.11
 1 -8 -13 5.30 0.14
 1 -8 -13 5.30 0.14
 1 -8 -11 -8.04 -0.13
 1 8 -11 8.05 -0.02
 1 -8 -11 -8.04 -0.13
 1 -8 -9 6.41 0.08
 1 -8 -9 6.41 0.08
 1 -8 -7 0.33 -0.02
 1 -8 -7 0.33 -0.02
 1 -8 -5 -8.19 -0.01
 1 -8 -5 -8.19 -0.01
 1 -8 -3 12.60 0.05
 1 -8 -3 12.60 0.05
 1 -8 -1 -11.46 -0.06
 1 -8 1 5.36 -0.02
 1 -8 3 2.26 0.14
 1 8 3 -2.27 -0.08
 1 -8 5 -6.47 -0.16
 1 8 5 6.50 0.01
 1 -8 7 5.10 0.05
 1 8 7 -5.14 -0.01
 1 -8 7 5.10 0.05
 1 -8 9 -0.72 0.05
 1 8 9 0.73 0.03
 1 -8 9 -0.72 0.05
 1 -8 11 -3.30 0.03
 1 -8 11 -3.30 0.03
 1 -8 13 6.37 -0.18
 1 -8 13 6.37 -0.18
 1 8 31 2.78 -0.09
 1 8 33 -3.15 0.06
 1 8 35 3.70 -0.10
 1 8 37 -3.71 0.11
 1 -9 -36 -1.66 -0.12
 1 -9 -34 2.32 0.05
 1 -9 -32 -1.11 0.05
 1 -9 -30 -1.21 -0.14
 1 -9 -28 3.49 0.18
 1 -9 -26 -4.86 -0.15
 1 -9 -26 -4.86 -0.15
 1 -9 -24 5.26 0.07
 1 -9 -24 5.26 0.07
 1 -9 -22 -5.45 -0.05
 1 -9 -22 -5.45 -0.05
 1 -9 -20 5.81 0.12
 1 -9 -20 5.81 0.12
 1 -9 -18 -5.75 -0.18
 1 -9 -18 -5.75 -0.18
 1 -9 -16 5.24 0.15
 1 -9 -16 5.24 0.15
 1 9 -16 5.19 0.13
 1 -9 -14 -5.43 -0.07
 1 9 -14 -5.39 -0.14
 1 -9 -14 -5.43 -0.07
 1 -9 -12 6.29 0.02
 1 9 -12 6.30 0.05
 1 -9 -12 6.29 0.02
 1 -9 -10 -5.28 -0.01
 1 -9 -10 -5.28 -0.01
 1 -9 -8 0.52 0.02
 1 -9 -8 0.52 0.02
 1 -9 -6 5.78 -0.05
 1 -9 -6 5.78 -0.05
 1 -9 -4 -9.17 0.06
 1 -9 -4 -9.17 0.06
 1 -9 -2 7.42 -0.03
 1 -9 0 -2.22 0.01
 1 -9 2 -2.82 -0.06
 1 9 4 4.88 -0.01
 1 -9 4 4.86 0.08
 1 9 6 -4.01 0.03
 1 -9 6 -3.97 0.01
 1 -9 8 2.79 -0.11
 1 -9 8 2.79 -0.11
 1 9 8 2.83 0.02
 1 -9 10 -3.07 0.04
 1 -9 10 -3.07 0.04
 1 -9 12 3.22 0.17
 1 -9 12 3.22 0.17
 1 -9 14 -1.00 -0.27
 1 -9 14 -1.00 -0.27
 1 9 32 -3.45 -0.01
 1 9 34 4.97 -0.01
 1 9 36 -5.46 0.04
 1 -10 -35 -1.08 -0.12
 1 -10 -33 -0.13 0.11
 1 -10 -31 1.55 -0.10
 1 -10 -29 -1.68 0.05
 1 -10 -27 0.42 -0.03
 1 -10 -27 0.42 -0.03
 1 -10 -25 1.17 0.10
 1 -10 -25 1.17 0.10
 1 -10 -23 -1.65 -0.16
 1 -10 -23 -1.65 -0.16
 1 -10 -21 0.00 0.11
 1 -10 -21 0.00 0.11
 1 -10 -19 3.09 0.00
 1 -10 -19 3.09 0.00
 1 -10 -17 -5.42 -0.04
 1 -10 -17 -5.42 -0.04
 1 -10 -15 5.55 -0.01
 1 -10 -15 5.55 -0.01
 1 -10 -13 -4.05 0.05
 1 -10 -13 -4.05 0.05
 1 -10 -11 1.71 -0.05
 1 -10 -11 1.71 -0.05
 1 -10 -9 1.74 0.02
 1 -10 -9 1.74 0.02
 1 -10 -7 -5.89 0.06
 1 -10 -7 -5.89 0.06
 1 -10 -5 8.17 -0.16
 1 -10 -5 8.17 -0.16
 1 -10 -3 -6.11 0.20
 1 -10 -1 0.78 -0.12
 1 -10 1 3.44 0.01
 1 -10 3 -3.24 0.03
 1 10 5 0.04 0.11
 1 -10 5 -0.06 -0.07
 1 10 7 -1.67 -0.06
 1 -10 7 1.71 0.14
 1 -10 9 0.99 -0.12
 1 -10 9 0.99 -0.12
 1 10 9 -1.00 0.00
 1 -10 11 -5.37 -0.05
 1 -10 11 -5.37 -0.05
 1 -10 13 6.49 0.21
 1 -10 13 6.49 0.21
 1 -10 15 -3.11 -0.19
 1 10 33 2.83 0.12
 1 -11 -32 -2.42 0.18
 1 -11 -30 2.22 -0.20
 1 -11 -28 -0.28 0.14
 1 -11 -26 -2.42 -0.14
 1 -11 -26 -2.42 -0.14
 1 -11 -24 4.61 0.24
 1 -11 -24 4.61 0.24
 1 -11 -22 -4.58 -0.30
 1 -11 -22 -4.58 -0.30
 1 -11 -20 1.16 0.25
 1 -11 -20 1.16 0.25
 1 -11 -18 3.98 -0.15
 1 -11 -18 3.98 -0.15
 1 -11 -16 -6.75 0.05
 1 -11 -16 -6.75 0.05
 1 -11 -14 4.94 0.04
 1 -11 -14 4.94 0.04
 1 -11 -12 -0.44 -0.09
 1 -11 -12 -0.44 -0.09
 1 -11 -10 -3.66 0.02
 1 -11 -10 -3.66 0.02
 1 -11 -8 6.36 0.07
 1 -11 -8 6.36 0.07
 1 -11 -6 -7.67 -0.03
 1 -11 -6 -7.67 -0.03
 1 -11 -4 6.39 -0.11
 1 -11 -2 -1.91 0.14
 1 -11 0 -2.87 0.01
 1 -11 2 3.47 -0.13
 1 -11 4 0.64 0.12
 1 11 6 -4.50 -0.25
 1 -11 6 -4.53 -0.07
 1 11 8 3.43 0.18
 1 -11 8 3.46 0.05
 1 -11 10 1.45 -0.04
 1 -11 12 -4.88 -0.01
 1 -11 14 3.67 0.04
 1 -11 16 0.37 -0.04
 1 11 32 0.53 0.15
 1 -12 -31 -4.50 0.13
 1 -12 -29 4.47 -0.11
 1 -12 -27 -3.27 0.07
 1 -12 -27 -3.27 0.07
 1 -12 -25 0.71 -0.13
 1 -12 -25 0.71 -0.13
 1 -12 -23 2.34 0.24
 1 -12 -23 2.34 0.24
 1 -12 -21 -2.95 -0.28
 1 -12 -21 -2.95 -0.28
 1 -12 -19 -0.67 0.23
 1 -12 -19 -0.67 0.23
 1 -12 -17 5.46 -0.08
 1 -12 -17 5.46 -0.08
 1 -12 -15 -6.19 -0.15
 1 -12 -15 -6.19 -0.15
 1 -12 -13 1.93 0.35
 1 -12 -13 1.93 0.35
 1 -12 -11 3.11 -0.30
 1 -12 -11 3.11 -0.30
 1 -12 -9 -5.53 -0.02
 1 -12 -9 -5.53 -0.02
 1 -12 -7 5.84 0.28
 1 -12 -7 5.84 0.28
 1 -12 -5 -5.10 -0.24
 1 -12 -3 2.35 0.09
 1 -12 -1 2.22 -0.10
 1 -12 1 -4.91 0.24
 1 -12 3 2.79 -0.24
 1 -12 5 1.54 0.06
 1 -12 7 -2.96 0.09
 1 -12 9 0.55 -0.06
 1 -12 11 1.82 -0.06
 1 -12 13 -1.27 0.12
 1 -12 15 -0.87 -0.06
 1 -13 -26 -8.33 0.04
 1 -13 -24 4.62 -0.13
 1 -13 -22 0.83 0.17
 1 -13 -20 -3.09 -0.16
 1 -13 -18 0.35 0.11
 1 -13 -16 3.09 0.05
 1 -13 -14 -2.55 -0.34
 1 -13 -12 -0.91 0.49
 1 -13 -10 3.03 -0.27
 1 -13 -8 -2.62 -0.15
 1 -13 -6 1.60 0.38
 1 -13 -4 -0.23 -0.31
 1 -13 -2 -2.75 0.23
 1 -13 0 5.96 -0.32
 1 -13 2 -6.01 0.40
 1 -13 4 2.94 -0.26
 1 -13 6 -0.70 0.02
 1 -13 8 1.05 0.08
 1 -13 10 -1.21 0.00
 1 -13 12 -0.92 -0.10
 1 -13 14 2.93 0.08
 1 -14 -25 -8.67 0.03
 1 -14 -23 3.05 -0.04
 1 -14 -21 4.19 -0.02
 1 -14 -19 -6.84 0.02
 1 -14 -17 3.88 0.02
 1 -14 -15 -0.20 0.09
 1 -14 -13 -0.49 -0.34
 1 -14 -11 -0.34 0.45
 1 -14 -9 0.07 -0.24
 1 -14 -7 1.02 -0.06
 1 -14 -5 -1.82 0.17
 1 -14 -3 3.08 -0.16
 1 -14 -1 -5.02 0.25
 1 -14 1 5.50 -0.40
 1 -14 3 -3.51 0.43
 1 -14 5 1.61 -0.28
 1 -14 7 -1.77 0.14
 1 -14 9 1.62 -0.10
 1 -14 11 1.42 0.09
 1 -14 13 -4.81 -0.01
 1 -15 -24 -4.22 -0.08
 1 -15 -22 -2.24 0.18
 1 -15 -20 8.89 -0.23
 1 -15 -18 -9.63 0.11
 1 -15 -16 4.94 0.02
 1 -15 -14 -0.30 0.08
 1 -15 -12 -1.15 -0.34
 1 -15 -10 0.81 0.44
 1 -15 -8 -0.62 -0.32
 1 -15 -6 0.69 0.16
 1 -15 -4 -0.98 -0.07
 1 -15 -2 1.74 -0.04
 1 -15 0 -1.91 0.21
 1 -15 2 0.38 -0.34
 1 -15 4 1.29 0.35
 1 -15 6 -0.81 -0.29
 1 -15 8 -0.50 0.25
 1 -15 10 -0.71 -0.19
 1 -15 12 3.85 0.05
 1 -16 -21 -5.97 0.26
 1 -16 -19 10.01 -0.21
 1 -16 -17 -7.91 0.02
 1 -16 -15 2.32 0.05
 1 -16 -13 1.50 0.10
 1 -16 -11 -1.90 -0.30
 1 -16 -9 0.87 0.33
 1 -16 -7 -0.07 -0.21
 1 -16 -5 -0.25 0.10
 1 -16 -3 0.09 -0.02
 1 -16 -1 0.01 -0.08
 1 -16 1 1.09 0.18
 1 -16 3 -3.03 -0.22
 1 -16 5 3.53 0.21
 1 -16 7 -1.94 -0.21
 1 -16 9 0.69 0.22
 1 -16 11 -1.29 -0.17
 1 -17 -16 -3.57 -0.05
 1 -17 -14 -0.50 0.02
 1 -17 -12 2.41 0.08
 1 -17 -10 -2.68 -0.08
 1 -17 -8 2.73 -0.03
 1 -17 -6 -2.69 0.14
 1 -17 -4 2.36 -0.17
 1 -17 -2 -2.01 0.16
 1 -17 0 1.24 -0.17
 1 -17 2 0.63 0.17
 1 -17 4 -2.70 -0.13
 1 -17 6 3.10 0.10
 1 -17 8 -1.88 -0.11
 1 -18 -9 -3.02 0.15
 1 -18 -7 4.56 -0.27
 1 -18 -5 -4.54 0.29
 1 -18 -3 3.36 -0.25
 1 -18 -1 -2.29 0.22
 1 -18 1 1.22 -0.22
 1 -18 3 0.50 0.20
 1 -18 5 -2.13 -0.13
 1 -18 7 2.46 0.05
 2 0 -40 -1.51 -0.04
 2 0 -38 1.76 0.00
 2 0 -36 1.24 -0.01
 2 0 -34 -6.23 0.01
 2 0 -32 8.49 0.06
 2 0 -30 -4.97 -0.17
 2 0 -28 -1.92 0.18
 2 0 -26 7.23 -0.02
 2 0 -24 -8.88 -0.14
 2 0 -22 7.61 0.16
 2 0 -20 -3.90 -0.07
 2 0 -18 -0.45 0.04
 2 0 -16 0.01 -0.10
 2 0 -14 6.62 0.15
 2 0 -14 6.62 0.15
 2 0 -12 -7.78 -0.12
 2 0 -12 -7.78 -0.12
 2 0 -10 -9.79 0.10
 2 0 -8 37.19 -0.20
 2 0 22 1.98 0.12
 2 0 24 1.51 -0.02
 2 0 26 -5.50 -0.05
 2 0 28 5.42 -0.01
 2 0 30 0.44 0.11
 2 0 32 -7.11 -0.09
 2 0 34 8.55 0.00
 2 1 -41 -2.05 -0.01
 2 -1 -41 2.06 -0.04
 2 1 -39 2.88 -0.04
 2 -1 -39 -2.87 0.12
 2 1 -37 -1.58 -0.02
 2 -1 -37 1.56 -0.18
 2 1 -35 -2.32 0.14
 2 -1 -35 2.34 0.19
 2 1 -33 5.95 -0.14
 2 -1 -33 -5.97 -0.17
 2 1 -31 -5.44 -0.03
 2 -1 -31 5.46 0.15
 2 1 -29 0.60 0.22
 2 -1 -29 -0.60 -0.06
 2 1 -27 4.68 -0.20
 2 -1 -27 -4.70 -0.11
 2 1 -25 -7.23 0.00
 2 -1 -25 7.26 0.24
 2 1 -23 7.40 0.16
 2 -1 -23 -7.41 -0.19
 2 1 -21 -6.08 -0.15
 2 -1 -21 6.07 0.00
 2 1 -19 3.19 0.08
 2 -1 -19 -3.17 0.12
 2 1 -17 -1.40 -0.04
 2 -1 -17 1.40 -0.03
 2 1 -15 5.45 0.03
 2 -1 -15 -5.45 -0.16
 2 1 -15 5.45 0.03
 2 1 -13 -11.96 0.03
 2 -1 -13 11.96 0.23
 2 1 -13 -11.96 0.03
 2 1 -11 7.23 -0.02
 2 -1 -11 -7.22 -0.16
 2 1 -11 7.23 -0.02
 2 1 -9 14.01 -0.15
 2 -1 -9 -14.00 0.08
 2 -1 -7 33.40 -0.07
 2 -1 19 2.37 -0.11
 2 -1 21 -3.64 0.06
 2 -1 23 1.67 0.01
 2 -1 25 2.71 0.00
 2 1 25 -2.69 -0.13
 2 1 27 5.65 0.14
 2 -1 27 -5.68 -0.04
 2 -1 29 3.41 0.05
 2 1 29 -3.39 0.06
 2 1 31 -2.28 -0.19
 2 -1 31 2.26 -0.03
 2 1 33 5.52 0.12
 2 -1 33 -5.50 0.07
 2 1 35 -3.82 -0.04
 2 1 37 0.34 0.12
 2 2 -40 2.75 -0.19
 2 -2 -40 2.74 -0.22
 2 2 -38 -1.96 0.21
 2 -2 -38 -1.92 0.27
 2 2 -36 0.06 -0.05
 2 -2 -36 0.02 -0.23
 2 2 -34 2.33 -0.12
 2 -2 -34 2.36 0.14
 2 2 -32 -3.21 0.10
 2 -2 -32 -3.24 -0.06
 2 2 -30 1.41 0.08
 2 -2 -30 1.43 -0.03
 2 2 -28 1.58 -0.18
 2 -2 -28 1.58 0.18
 2 2 -26 -3.40 0.09
 2 -2 -26 -3.43 -0.31
 2 2 -24 4.06 0.05
 2 -2 -24 4.09 0.26
 2 2 -22 -5.10 -0.05
 2 -2 -22 -5.10 -0.03
 2 2 -20 6.06 -0.05
 2 -2 -20 6.03 -0.16
 2 2 -18 -5.60 0.13
 2 -2 -18 -5.58 0.12
 2 2 -16 6.07 -0.17
 2 2 -16 6.07 -0.17
 2 -2 -16 6.08 0.12
 2 2 -14 -10.72 0.25
 2 2 -14 -10.72 0.25
 2 -2 -14 -10.74 -0.33
 2 2 -12 14.82 -0.29
 2 2 -12 14.82 -0.29
 2 -2 -12 14.82 0.37
 2 2 -10 -8.43 0.14
 2 2 -10 -8.43 0.14
 2 -2 -10 -8.43 -0.26
 2 2 -8 -6.83 0.16
 2 -2 -8 -6.82 0.13
 2 -2 -6 13.57 -0.02
 2 -2 12 -3.61 0.09
 2 -2 14 6.15 -0.19
 2 -2 16 -4.38 0.10
 2 -2 18 0.66 0.09
 2 -2 20 2.88 -0.15
 2 -2 22 -4.08 0.04
 2 -2 24 1.55 0.02
 2 -2 26 2.45 0.07
 2 -2 28 -3.70 -0.17
 2 2 28 -3.69 -0.10
 2 -2 30 1.49 0.14
 2 2 30 1.49 -0.13
 2 -2 32 0.54 -0.04
 2 2 32 0.54 0.13
 2 2 34 0.25 0.02
 2 2 36 -2.13 -0.05
 2 2 38 2.05 -0.09
 2 3 -41 -0.10 -0.13
 2 -3 -41 0.09 0.22
 2 3 -39 1.85 0.28
 2 -3 -39 -1.87 -0.25
 2 3 -37 -2.60 -0.24
 2 -3 -37 2.63 0.15
 2 3 -35 2.43 0.01
 2 -3 -35 -2.46 0.00
 2 3 -33 -1.91 0.19
 2 -3 -33 1.93 -0.06
 2 3 -31 1.23 -0.19
 2 -3 -31 -1.26 0.03
 2 3 -29 -0.40 0.06
 2 -3 -29 0.44 -0.02
 2 3 -27 -0.24 0.01
 2 -3 -27 0.22 0.09
 2 3 -25 0.78 -0.02
 2 -3 -25 -0.79 -0.11
 2 3 -23 -2.36 0.06
 2 -3 -23 2.36 -0.01
 2 3 -21 5.22 -0.17
 2 -3 -21 -5.20 0.14
 2 3 -19 -7.14 0.26
 2 -3 -19 7.11 -0.12
 2 3 -17 6.37 -0.30
 2 3 -17 6.37 -0.30
 2 -3 -17 -6.37 -0.07
 2 3 -15 -5.31 0.36
 2 -3 -15 5.33 0.32
 2 3 -15 -5.31 0.36
 2 3 -13 6.78 -0.46
 2 -3 -13 -6.80 -0.48
 2 3 -13 6.78 -0.46
 2 3 -11 -7.85 0.41
 2 -3 -11 7.85 0.49
 2 3 -9 3.65 -0.14
 2 -3 -9 -3.65 -0.38
 2 3 -7 2.15 -0.12
 2 -3 -7 -2.15 0.20
 2 -3 3 1.58 -0.01
 2 -3 5 -10.86 0.08
 2 -3 7 7.87 0.01
 2 -3 9 0.62 -0.12
 2 -3 11 -5.54 0.04
 2 -3 13 4.11 0.17
 2 -3 15 0.57 -0.25
 2 -3 17 -3.67 0.13
 2 -3 19 2.72 0.01
 2 -3 21 0.29 0.00
 2 -3 23 -1.45 -0.06
 2 -3 25 -0.12 -0.01
 2 -3 27 1.67 0.15
 2 3 29 1.35 -0.09
 2 -3 29 -1.34 -0.16
 2 3 31 -0.60 0.14
 2 3 33 1.21 0.02
 2 3 35 -2.41 -0.16
 2 3 37 2.07 0.10
 2 3 39 0.14 0.03
 2 4 -40 4.73 0.12
 2 -4 -40 4.73 0.16
 2 4 -38 -5.29 -0.21
 2 -4 -38 -5.30 -0.07
 2 4 -36 3.53 0.08
 2 -4 -36 3.53 -0.09
 2 4 -34 -0.78 0.22
 2 -4 -34 -0.78 0.14
 2 4 -32 -1.04 -0.45
 2 -4 -32 -1.03 -0.02
 2 4 -30 1.32 0.43
 2 -4 -30 1.27 -0.13
 2 4 -28 -0.90 -0.21
 2 -4 -28 -0.85 0.15
 2 4 -26 0.89 -0.05
 2 -4 -26 0.87 -0.08
 2 4 -24 -1.88 0.20
 2 -4 -24 -1.88 0.05
 2 4 -22 3.93 -0.27
 2 -4 -22 3.92 -0.07
 2 4 -20 -5.97 0.28
 2 -4 -20 -5.94 0.05
 2 4 -18 5.84 -0.28
 2 4 -18 5.84 -0.28
 2 -4 -18 5.82 0.06
 2 4 -16 -2.82 0.34
 2 4 -16 -2.82 0.34
 2 -4 -16 -2.83 -0.20
 2 4 -14 -0.52 -0.45
 2 4 -14 -0.52 -0.45
 2 -4 -14 -0.51 0.32
 2 4 -12 1.32 0.49
 2 -4 -12 1.32 -0.41
 2 4 -10 -0.18 -0.34
 2 -4 -10 -0.18 0.42
 2 4 -8 -0.97 0.07
 2 -4 -8 -0.99 -0.29
 2 -4 -6 3.15 0.08
 2 4 -6 3.14 0.07
 2 4 2 -3.85 0.19
 2 -4 2 -3.81 -0.25
 2 -4 4 12.79 0.16
 2 4 4 12.83 -0.24
 2 -4 6 -10.74 -0.10
 2 4 6 -10.74 0.21
 2 -4 8 -0.88 0.13
 2 4 8 -0.89 -0.24
 2 -4 10 12.23 -0.14
 2 4 10 12.21 0.30
 2 -4 12 -14.81 0.03
 2 -4 18 -6.75 0.12
 2 -4 20 6.70 -0.07
 2 -4 22 -4.31 0.05
 2 -4 24 2.86 0.01
 2 -4 26 -2.60 -0.10
 2 4 30 -1.63 0.16
 2 4 32 1.20 -0.07
 2 4 34 -1.09 -0.05
 2 4 36 0.78 0.06
 2 4 38 0.10 0.01
 2 5 -39 -2.88 -0.12
 2 -5 -39 2.87 -0.02
 2 5 -37 1.48 0.11
 2 -5 -37 -1.46 0.09
 2 5 -35 0.79 0.10
 2 -5 -35 -0.82 -0.11
 2 5 -33 -2.86 -0.41
 2 -5 -33 2.88 0.00
 2 5 -31 3.75 0.57
 2 -5 -31 -3.73 0.15
 2 5 -29 -3.38 -0.39
 2 -5 -29 3.32 -0.17
 2 5 -27 2.64 -0.04
 2 -5 -27 -2.60 0.03
 2 5 -25 -2.41 0.40
 2 -5 -25 2.40 0.12
 2 5 -23 2.77 -0.48
 2 -5 -23 -2.78 -0.17
 2 5 -21 -3.16 0.37
 2 -5 -21 3.17 0.18
 2 5 -19 2.74 -0.28
 2 -5 -19 -2.75 -0.22
 2 5 -19 2.74 -0.28
 2 -5 -17 0.80 0.22
 2 5 -17 -0.78 0.31
 2 5 -17 -0.78 0.31
 2 -5 -15 2.23 -0.18
 2 5 -15 -2.24 -0.41
 2 5 -13 4.06 0.46
 2 -5 -13 -4.07 0.19
 2 -5 -13 -4.07 0.19
 2 -5 -11 2.48 -0.23
 2 -5 -11 2.48 -0.23
 2 5 -11 -2.47 -0.39
 2 5 -9 -2.35 0.22
 2 -5 -9 2.37 0.20
 2 -5 -9 2.37 0.20
 2 -5 -7 -7.84 -0.06
 2 -5 -7 -7.84 -0.06
 2 -5 -5 10.88 -0.08
 2 -5 -3 -9.29 0.17
 2 -5 -1 2.46 -0.26
 2 -5 1 7.01 0.37
 2 5 3 13.12 -0.17
 2 -5 3 -13.09 -0.37
 2 -5 5 10.30 0.23
 2 5 5 -10.32 0.16
 2 -5 7 0.80 -0.09
 2 5 7 -0.80 -0.18
 2 -5 9 -13.05 0.07
 2 5 9 13.06 0.18
 2 -5 11 18.48 -0.13
 2 -5 13 -14.57 0.12
 2 -5 23 -5.08 -0.13
 2 -5 25 3.70 0.17
 2 5 31 2.74 -0.04
 2 5 33 -1.54 0.04
 2 5 35 0.78 -0.14
 2 5 37 -0.93 0.20
 2 5 39 1.18 -0.14
 2 6 -38 -3.18 0.07
 2 -6 -38 -3.19 -0.07
 2 6 -36 2.50 -0.03
 2 -6 -36 2.53 0.01
 2 6 -34 -1.21 -0.14
 2 -6 -34 -1.25 0.10
 2 6 -32 0.97 0.38
 2 -6 -32 0.99 -0.22
 2 6 -30 -1.59 -0.43
 2 -6 -30 -1.56 0.24
 2 6 -28 1.62 0.14
 2 -6 -28 1.58 -0.09
 2 6 -26 -0.69 0.28
 2 -6 -26 -0.68 -0.12
 2 6 -24 -0.33 -0.47
 2 -6 -24 -0.31 0.23
 2 -6 -22 1.09 -0.27
 2 6 -22 1.12 0.36
 2 -6 -20 -2.18 0.34
 2 6 -20 -2.22 -0.22
 2 6 -20 -2.22 -0.22
 2 6 -18 3.82 0.26
 2 -6 -18 3.78 -0.38
 2 6 -16 -5.14 -0.39
 2 -6 -16 -5.12 0.30
 2 -6 -16 -5.12 0.30
 2 6 -14 4.94 0.42
 2 -6 -14 4.96 -0.17
 2 -6 -14 4.96 -0.17
 2 6 -12 -2.25 -0.34
 2 -6 -12 -2.28 0.11
 2 -6 -12 -2.28 0.11
 2 6 -10 -2.96 0.23
 2 -6 -10 -2.95 -0.12
 2 -6 -10 -2.95 -0.12
 2 -6 -8 8.78 0.08
 2 -6 -8 8.78 0.08
 2 -6 -6 -11.66 -0.04
 2 -6 -6 -11.66 -0.04
 2 -6 -4 8.96 0.03
 2 -6 -2 -1.47 0.01
 2 -6 0 -6.78 -0.15
 2 -6 2 10.93 0.29
 2 6 2 10.93 -0.02
 2 -6 4 -8.22 -0.24
 2 -6 4 -8.22 -0.24
 2 6 4 -8.24 -0.01
 2 -6 6 -0.22 0.03
 2 6 6 -0.22 -0.05
 2 -6 8 9.74 0.11
 2 6 8 9.75 0.12
 2 -6 10 -15.05 -0.05
 2 -6 12 14.07 -0.09
 2 6 32 -1.55 -0.12
 2 6 34 1.33 -0.07
 2 6 36 -2.37 0.27
 2 6 38 3.61 -0.24
 2 -7 -37 -4.44 0.05
 2 -7 -35 -0.18 -0.19
 2 -7 -33 3.69 0.31
 2 7 -33 -3.72 0.11
 2 -7 -31 -3.45 -0.38
 2 7 -31 3.43 -0.33
 2 -7 -29 1.52 0.34
 2 7 -29 -1.48 0.41
 2 -7 -27 -1.18 -0.22
 2 -7 -25 2.55 0.14
 2 -7 -23 -3.89 -0.08
 2 -7 -21 4.94 -0.06
 2 7 -19 6.44 -0.01
 2 -7 -19 -6.40 0.28
 2 7 -17 -7.53 -0.25
 2 -7 -17 7.50 -0.40
 2 -7 -17 7.50 -0.40
 2 7 -15 6.37 0.37
 2 -7 -15 -6.37 0.30
 2 -7 -15 -6.37 0.30
 2 -7 -13 2.55 -0.13
 2 -7 -13 2.55 -0.13
 2 7 -13 -2.52 -0.26
 2 -7 -11 2.44 0.05
 2 7 -11 -2.47 0.11
 2 -7 -11 2.44 0.05
 2 -7 -9 -6.27 -0.08
 2 -7 -9 -6.27 -0.08
 2 -7 -7 6.78 0.15
 2 -7 -7 6.78 0.15
 2 -7 -5 -3.15 -0.27
 2 -7 -3 -2.74 0.35
 2 -7 -1 7.11 -0.27
 2 -7 1 -7.31 0.07
 2 -7 3 3.69 0.06
 2 7 3 -3.69 -0.13
 2 -7 5 1.64 0.03
 2 -7 5 1.64 0.03
 2 7 5 -1.63 0.08
 2 -7 7 -6.48 -0.19
 2 7 7 6.48 0.08
 2 -7 7 -6.48 -0.19
 2 -7 9 9.07 0.23
 2 -7 11 -8.75 -0.12
 2 -7 13 6.65 -0.01
 2 7 33 0.42 0.22
 2 7 35 -2.15 0.03
 2 7 37 4.00 -0.14
 2 -8 -36 -1.11 0.08
 2 -8 -34 -3.40 -0.18
 2 -8 -32 4.66 0.29
 2 -8 -30 -2.29 -0.36
 2 -8 -28 0.07 0.36
 2 -8 -26 -0.35 -0.35
 2 -8 -24 1.82 0.36
 2 -8 -22 -3.00 -0.28
 2 -8 -20 4.27 0.02
 2 -8 -20 4.27 0.02
 2 -8 -18 -5.47 0.25
 2 -8 -18 -5.47 0.25
 2 -8 -16 4.70 -0.30
 2 -8 -16 4.70 -0.30
 2 -8 -14 -1.16 0.14
 2 -8 -14 -1.16 0.14
 2 -8 -12 -3.08 0.03
 2 -8 -12 -3.08 0.03
 2 -8 -10 5.11 -0.05
 2 -8 -10 5.11 -0.05
 2 -8 -8 -3.41 -0.07
 2 -8 -8 -3.41 -0.07
 2 -8 -6 -1.52 0.28
 2 -8 -4 7.09 -0.50
 2 -8 -2 -9.33 0.57
 2 -8 0 6.25 -0.40
 2 -8 2 -0.28 0.15
 2 8 4 -4.20 0.20
 2 -8 4 -4.22 -0.04
 2 8 6 5.47 -0.10
 2 -8 6 5.49 0.11
 2 -8 6 5.49 0.11
 2 -8 8 -4.71 -0.20
 2 -8 8 -4.71 -0.20
 2 8 8 -4.70 -0.05
 2 -8 10 3.42 0.18
 2 -8 12 -2.50 -0.07
 2 -8 14 2.64 -0.04
 2 8 34 -0.70 -0.22
 2 8 36 1.99 0.05
 2 -9 -35 0.24 -0.05
 2 -9 -33 -1.62 -0.05
 2 -9 -31 0.71 0.14
 2 -9 -29 1.33 -0.13
 2 -9 -27 -2.20 0.09
 2 -9 -25 1.67 -0.10
 2 -9 -23 -0.68 0.13
 2 -9 -21 -0.72 -0.06
 2 -9 -21 -0.72 -0.06
 2 -9 -19 2.25 -0.10
 2 -9 -19 2.25 -0.10
 2 -9 -17 -2.11 0.19
 2 -9 -17 -2.11 0.19
 2 -9 -15 -0.64 -0.11
 2 -9 -15 -0.64 -0.11
 2 -9 -13 3.82 -0.01
 2 -9 -13 3.82 -0.01
 2 -9 -11 -4.47 0.06
 2 -9 -11 -4.47 0.06
 2 -9 -9 2.06 0.00
 2 -9 -9 2.06 0.00
 2 -9 -7 2.05 -0.14
 2 -9 -5 -6.23 0.35
 2 -9 -3 8.18 -0.54
 2 -9 -1 -5.66 0.52
 2 -9 1 -0.21 -0.26
 2 -9 3 4.94 0.00
 2 9 5 5.48 -0.25
 2 -9 5 -5.49 0.04
 2 -9 7 3.30 0.08
 2 -9 7 3.30 0.08
 2 9 7 -3.30 0.16
 2 -9 9 -1.33 -0.16
 2 -9 9 -1.33 -0.16
 2 -9 11 0.91 0.10
 2 -9 13 -1.97 0.04
 2 9 35 -0.49 0.12
 2 -10 -34 -0.55 -0.03
 2 -10 -32 -0.04 -0.10
 2 -10 -30 0.20 0.08
 2 -10 -28 0.12 0.07
 2 -10 -26 -0.69 -0.19
 2 -10 -24 1.17 0.18
 2 -10 -22 -0.71 -0.13
 2 -10 -20 -0.88 0.13
 2 -10 -20 -0.88 0.13
 2 -10 -18 1.72 -0.12
 2 -10 -18 1.72 -0.12
 2 -10 -16 -0.04 0.08
 2 -10 -16 -0.04 0.08
 2 -10 -14 -2.48 -0.09
 2 -10 -14 -2.48 -0.09
 2 -10 -12 2.50 0.17
 2 -10 -12 2.50 0.17
 2 -10 -10 0.31 -0.23
 2 -10 -10 0.31 -0.23
 2 -10 -8 -3.20 0.19
 2 -10 -6 4.50 -0.16
 2 -10 -4 -4.50 0.26
 2 -10 -2 3.02 -0.35
 2 -10 0 0.22 0.23
 2 -10 2 -3.31 0.04
 2 -10 4 3.78 -0.18
 2 10 6 -2.15 0.17
 2 -10 6 -2.14 0.05
 2 -10 8 1.05 0.18
 2 -10 8 1.05 0.18
 2 -10 10 -1.60 -0.24
 2 -10 10 -1.60 -0.24
 2 -10 12 3.01 0.10
 2 -11 -33 0.73 0.18
 2 -11 -31 -2.92 -0.24
 2 -11 -29 4.12 0.11
 2 -11 -27 -3.36 0.07
 2 -11 -25 1.27 -0.13
 2 -11 -23 0.35 0.12
 2 -11 -21 0.01 -0.14
 2 -11 -21 0.01 -0.14
 2 -11 -19 -1.58 0.15
 2 -11 -19 -1.58 0.15
 2 -11 -17 1.86 -0.10
 2 -11 -17 1.86 -0.10
 2 -11 -15 -0.39 0.12
 2 -11 -15 -0.39 0.12
 2 -11 -13 -0.12 -0.30
 2 -11 -13 -0.12 -0.30
 2 -11 -11 -2.09 0.48
 2 -11 -11 -2.09 0.48
 2 -11 -9 4.88 -0.42
 2 -11 -7 -5.34 0.15
 2 -11 -5 3.48 0.04
 2 -11 -3 -1.10 -0.02
 2 -11 -1 -0.79 -0.03
 2 -11 1 1.55 -0.10
 2 -11 3 -0.57 0.27
 2 -11 5 -0.96 -0.22
 2 -11 7 0.66 -0.06
 2 -11 9 1.70 0.30
 2 -12 -30 -6.08 -0.18
 2 -12 -28 5.76 0.07
 2 -12 -26 -3.02 -0.06
 2 -12 -24 -0.21 0.08
 2 -12 -22 1.60 0.03
 2 -12 -22 1.60 0.03
 2 -12 -20 -0.18 -0.20
 2 -12 -20 -0.18 -0.20
 2 -12 -18 -2.36 0.24
 2 -12 -18 -2.36 0.24
 2 -12 -16 3.49 -0.16
 2 -12 -16 3.49 -0.16
 2 -12 -14 -3.10 0.17
 2 -12 -14 -3.10 0.17
 2 -12 -12 3.40 -0.33
 2 -12 -12 3.40 -0.33
 2 -12 -10 -5.17 0.40
 2 -12 -8 6.40 -0.19
 2 -12 -6 -5.21 -0.14
 2 -12 -4 2.18 0.29
 2 -12 -2 0.61 -0.22
 2 -12 0 -1.17 0.14
 2 -12 2 -0.95 -0.19
 2 -12 4 3.58 0.23
 2 -12 6 -3.22 -0.10
 2 -12 8 -0.66 -0.14
 2 -12 10 4.25 0.27
 2 -13 -21 2.26 0.14
 2 -13 -19 1.06 -0.34
 2 -13 -17 -4.90 0.28
 2 -13 -15 6.39 -0.07
 2 -13 -13 -5.60 -0.03
 2 -13 -11 5.03 -0.01
 2 -13 -9 -5.72 0.02
 2 -13 -7 5.89 0.09
 2 -13 -5 -3.76 -0.23
 2 -13 -3 0.17 0.22
 2 -13 -1 1.92 -0.09
 2 -13 1 -0.47 -0.02
 2 -13 3 -3.00 0.01
 2 -13 5 4.20 0.01
 2 -13 7 -0.94 0.05
 2 -13 9 -3.72 -0.15
 2 -14 -20 0.88 0.22
 2 -14 -18 2.73 -0.30
 2 -14 -16 -5.76 0.12
 2 -14 -14 5.87 0.15
 2 -14 -12 -4.14 -0.29
 2 -14 -10 3.24 0.24
 2 -14 -8 -3.47 -0.11
 2 -14 -6 2.71 0.02
 2 -14 -4 0.04 0.03
 2 -14 -2 -2.81 -0.09
 2 -14 0 2.75 0.19
 2 -14 2 0.30 -0.25
 2 -14 4 -3.16 0.21
 2 -14 6 2.74 -0.15
 2 -14 8 0.31 0.14
 2 -15 -19 0.80 0.15
 2 -15 -17 0.82 -0.16
 2 -15 -15 -2.23 0.03
 2 -15 -13 2.06 0.17
 2 -15 -11 -1.24 -0.27
 2 -15 -9 1.03 0.18
 2 -15 -7 -0.92 0.03
 2 -15 -5 -0.20 -0.18
 2 -15 -3 1.89 0.21
 2 -15 -1 -2.46 -0.21
 2 -15 1 1.16 0.23
 2 -15 3 0.99 -0.22
 2 -15 5 -2.45 0.17
 2 -15 7 2.69 -0.13
 2 -16 -18 3.18 0.08
 2 -16 -16 -2.40 -0.17
 2 -16 -14 0.07 0.16
 2 -16 -12 1.68 -0.01
 2 -16 -10 -2.23 -0.11
 2 -16 -8 2.03 0.04
 2 -16 -6 -1.61 0.10
 2 -16 -4 1.36 -0.15
 2 -16 -2 -1.31 0.09
 2 -16 0 0.93 -0.04
 2 -16 2 0.10 0.04
 2 -16 4 -0.83 -0.02
 2 -16 6 -0.09 0.00
 2 -17 -15 -1.78 -0.23
 2 -17 -13 -2.16 0.22
 2 -17 -11 4.35 -0.05
 2 -17 -9 -4.19 -0.06
 2 -17 -7 3.28 0.01
 2 -17 -5 -3.31 0.04
 2 -17 -3 4.24 0.02
 2 -17 -1 -4.15 -0.11
 2 -17 1 1.33 0.11
 2 -17 3 3.01 -0.08
 2 -17 5 -5.27 0.08
 2 -18 -8 -2.48 -0.04
 2 -18 -6 2.17 -0.02
 2 -18 -4 -3.35 -0.02
 2 -18 -2 4.49 0.14
 2 -18 0 -3.09 -0.17
 3 1 -40 -1.41 -0.06
 3 -1 -40 -1.42 0.06
 3 1 -38 -1.59 0.13
 3 -1 -38 -1.63 -0.24
 3 1 -36 4.88 -0.18
 3 -1 -36 4.93 0.36
 3 1 -34 -5.84 0.10
 3 -1 -34 -5.86 -0.28
 3 1 -32 3.69 0.03
 3 -1 -32 3.67 0.10
 3 1 -30 -0.27 -0.07
 3 -1 -30 -0.26 0.02
 3 1 -28 -1.93 -0.02
 3 -1 -28 -1.91 -0.02
 3 1 -26 1.90 0.12
 3 -1 -26 1.90 -0.03
 3 1 -24 -0.20 -0.16
 3 -1 -24 -0.21 0.11
 3 1 -22 -2.26 0.17
 3 -1 -22 -2.26 -0.19
 3 1 -20 4.37 -0.17
 3 -1 -20 4.42 0.21
 3 1 -18 -5.17 0.15
 3 -1 -18 -5.21 -0.17
 3 1 -16 5.22 -0.10
 3 -1 -16 5.21 0.07
 3 1 -14 -6.93 0.02
 3 1 -14 -6.93 0.02
 3 -1 -14 -6.87 0.04
 3 1 -12 11.32 0.05
 3 -1 -12 11.28 -0.16
 3 -1 4 -22.52 -0.11
 3 -1 24 4.99 0.00
 3 -1 26 -4.74 0.13
 3 -1 28 1.81 -0.13
 3 1 28 1.81 0.17
 3 -1 30 0.90 0.07
 3 1 30 0.89 -0.15
 3 -1 32 -1.25 -0.08
 3 1 32 -1.24 0.07
 3 1 34 0.09 0.01
 3 1 36 0.69 -0.08
 3 2 -41 -5.22 -0.01
 3 -2 -41 5.24 -0.03
 3 2 -39 2.51 0.04
 3 -2 -39 -2.51 0.15
 3 2 -37 2.53 -0.11
 3 -2 -37 -2.55 -0.29
 3 2 -35 -6.47 0.10
 3 -2 -35 6.48 0.29
 3 2 -33 6.33 -0.05
 3 -2 -33 -6.31 -0.13
 3 2 -31 -2.62 0.07
 3 -2 -31 2.60 -0.03
 3 2 -29 -1.38 -0.19
 3 -2 -29 1.36 0.06
 3 2 -27 3.04 0.27
 3 -2 -27 -3.02 0.02
 3 2 -25 -2.12 -0.23
 3 -2 -25 2.11 -0.13
 3 2 -23 -0.59 0.14
 3 -2 -23 0.58 0.18
 3 2 -21 4.09 -0.10
 3 -2 -21 -4.09 -0.14
 3 2 -19 -6.45 0.09
 3 -2 -19 6.47 0.05
 3 2 -17 6.21 -0.04
 3 -2 -17 -6.22 0.01
 3 -2 -15 5.52 -0.01
 3 2 -15 -5.55 -0.03
 3 -2 -13 -8.69 0.04
 3 2 -13 8.74 0.08
 3 2 -11 -15.35 -0.11
 3 -2 -11 15.31 -0.13
 3 -2 1 -26.60 -0.31
 3 -2 3 27.64 0.30
 3 -2 5 -12.29 -0.32
 3 -2 5 -12.29 -0.32
 3 -2 7 -10.28 0.29
 3 -2 7 -10.28 0.29
 3 -2 9 22.26 -0.09
 3 -2 11 -17.17 -0.22
 3 -2 19 3.64 0.05
 3 -2 21 0.45 -0.05
 3 -2 23 -5.90 0.00
 3 -2 25 8.98 0.03
 3 -2 27 -7.26 -0.08
 3 -2 29 3.21 0.15
 3 2 31 0.77 0.08
 3 2 33 -0.54 -0.02
 3 2 35 0.56 -0.10
 3 2 37 0.08 0.14
 3 3 -40 5.65 -0.07
 3 -3 -40 5.65 0.00
 3 3 -38 -2.81 -0.04
 3 -3 -38 -2.82 0.08
 3 3 -36 -1.51 0.10
 3 -3 -36 -1.50 -0.17
 3 3 -34 4.40 -0.10
 3 -3 -34 4.37 0.12
 3 3 -32 -3.77 0.17
 3 -3 -32 -3.73 0.04
 3 3 -30 0.59 -0.34
 3 -3 -30 0.58 -0.14
 3 3 -28 2.32 0.40
 3 -3 -28 2.30 0.08
 3 3 -26 -3.37 -0.22
 3 -3 -26 -3.36 0.07
 3 3 -24 2.66 -0.02
 3 -3 -24 2.68 -0.13
 3 3 -22 -0.42 0.08
 3 -3 -22 -0.45 0.04
 3 3 -20 -2.65 0.03
 3 -3 -20 -2.63 0.15
 3 -3 -18 4.22 -0.24
 3 3 -18 4.22 -0.07
 3 -3 -16 -3.17 0.15
 3 -3 -14 2.80 0.01
 3 3 -14 2.82 0.09
 3 -3 -12 -6.71 -0.02
 3 3 -12 -6.74 -0.10
 3 3 -10 11.59 0.15
 3 -3 -10 11.57 -0.10
 3 3 -8 -10.42 -0.28
 3 -3 0 6.86 0.30
 3 -3 2 -10.30 -0.26
 3 -3 2 -10.30 -0.26
 3 -3 4 6.80 0.21
 3 -3 4 6.80 0.21
 3 -3 6 6.80 -0.21
 3 -3 6 6.80 -0.21
 3 -3 8 -20.12 0.14
 3 -3 10 21.11 0.12
 3 -3 12 -10.80 -0.44
 3 -3 14 -0.51 0.53
 3 -3 16 6.50 -0.30
 3 -3 18 -7.63 -0.02
 3 -3 20 5.09 0.16
 3 -3 22 0.45 -0.08
 3 -3 24 -5.99 -0.07
 3 -3 26 7.99 0.14
 3 -3 28 -6.55 -0.12
 3 3 32 -2.88 -0.22
 3 3 34 1.17 0.04
 3 3 36 0.82 0.18
 3 3 38 -1.89 -0.18
 3 -4 -39 4.48 0.08
 3 4 -39 -4.48 -0.05
 3 4 -37 4.03 0.19
 3 -4 -37 -4.04 0.05
 3 4 -35 -1.58 -0.17
 3 -4 -35 1.61 -0.17
 3 4 -33 -0.53 0.15
 3 -4 -33 0.50 0.12
 3 4 -31 0.01 -0.30
 3 -4 -31 0.02 0.04
 3 4 -29 2.42 0.43
 3 -4 -29 -2.42 -0.09
 3 4 -27 -4.28 -0.24
 3 -4 -27 4.28 -0.03
 3 4 -25 4.80 -0.15
 3 -4 -25 -4.81 0.15
 3 4 -23 -4.65 0.31
 3 -4 -23 4.68 -0.08
 3 4 -21 3.65 -0.09
 3 -4 -21 -3.69 -0.18
 3 -4 -19 1.50 0.40
 3 -4 -17 0.52 -0.38
 3 -4 -15 -1.51 0.18
 3 4 -15 1.50 0.00
 3 -4 -13 3.28 -0.03
 3 4 -13 -3.26 -0.04
 3 -4 -11 -6.17 0.05
 3 4 -11 6.16 0.01
 3 4 -9 -5.96 -0.10
 3 4 -7 0.31 0.26
 3 4 3 -3.39 -0.19
 3 -4 3 3.43 -0.03
 3 -4 5 -3.49 0.00
 3 4 5 3.47 0.17
 3 -4 7 8.97 -0.07
 3 4 7 -8.99 0.13
 3 -4 9 -13.15 0.03
 3 -4 11 10.75 0.22
 3 -4 19 -5.31 -0.16
 3 -4 21 3.85 0.18
 3 -4 23 -0.47 -0.03
 3 -4 25 -2.42 -0.02
 3 4 33 2.23 0.33
 3 4 35 -0.04 0.03
 3 4 37 -1.25 -0.29
 3 4 39 1.27 0.21
 3 -5 -38 6.44 0.05
 3 -5 -36 -8.14 0.13
 3 5 -36 -8.12 -0.30
 3 -5 -34 6.59 -0.19
 3 5 -34 6.56 0.10
 3 -5 -32 -4.83 0.03
 3 5 -32 -4.80 -0.02
 3 -5 -30 5.18 0.15
 3 5 -30 5.16 0.15
 3 -5 -28 -6.06 -0.11
 3 5 -28 -6.05 -0.17
 3 -5 -26 5.45 -0.11
 3 -5 -24 -4.73 0.25
 3 -5 -22 5.72 -0.12
 3 -5 -20 -6.65 -0.14
 3 -5 -18 4.61 0.28
 3 -5 -16 -0.15 -0.22
 3 5 -14 -4.02 0.06
 3 -5 -14 -4.04 0.09
 3 5 -12 6.31 -0.13
 3 -5 -12 6.33 -0.05
 3 5 -10 -5.53 0.21
 3 -5 -10 -5.55 0.06
 3 5 -8 0.85 -0.10
 3 5 2 -10.01 0.14
 3 5 4 4.24 0.02
 3 -5 4 4.27 0.14
 3 5 6 -1.52 0.14
 3 -5 6 -1.51 -0.10
 3 -5 8 2.84 0.01
 3 5 8 2.88 -0.38
 3 -5 10 -4.48 -0.06
 3 -5 12 5.00 0.25
 3 5 34 -1.92 -0.15
 3 5 36 1.62 -0.19
 3 5 38 -1.45 0.30
 3 -6 -39 -4.39 -0.08
 3 -6 -37 9.14 0.00
 3 -6 -35 -10.59 0.05
 3 -6 -33 8.93 0.10
 3 -6 -31 -7.17 -0.37
 3 -6 -29 6.11 0.45
 3 -6 -27 -3.91 -0.20
 3 -6 -25 1.00 -0.17
 3 -6 -23 -0.98 0.35
 3 -6 -21 4.44 -0.27
 3 -6 -19 -6.45 0.11
 3 -6 -17 3.09 -0.04
 3 -6 -15 3.24 0.04
 3 -6 -13 -7.46 -0.05
 3 -6 -11 7.28 0.06
 3 6 -9 3.56 -0.42
 3 6 3 7.82 0.08
 3 -6 5 3.14 0.16
 3 6 5 -3.12 -0.08
 3 -6 7 -0.68 -0.14
 3 6 7 0.69 -0.12
 3 -6 9 -0.19 0.10
 3 -6 11 -0.38 -0.15
 3 -6 13 3.48 0.24
 3 6 35 4.65 -0.11
 3 6 37 -4.98 0.23
 3 -7 -38 -3.66 -0.03
 3 -7 -36 6.31 0.03
 3 -7 -34 -6.67 -0.10
 3 -7 -32 4.84 0.30
 3 -7 -30 -2.35 -0.46
 3 -7 -28 -0.55 0.37
 3 -7 -26 3.82 -0.06
 3 -7 -24 -5.06 -0.25
 3 -7 -22 2.09 0.35
 3 -7 -20 2.35 -0.27
 3 -7 -18 -2.94 0.16
 3 -7 -16 -1.25 -0.10
 3 -7 -14 5.93 0.06
 3 -7 -12 -7.47 -0.05
 3 7 4 -7.11 -0.22
 3 -7 6 5.00 0.08
 3 7 6 4.99 0.09
 3 -7 8 -1.60 -0.09
 3 -7 10 -2.00 0.07
 3 -7 12 2.34 -0.07
 3 7 36 -6.38 0.15
 3 -8 -37 0.59 -0.01
 3 -8 -35 0.74 -0.01
 3 -8 -33 -0.85 0.07
 3 -8 -31 -1.05 -0.08
 3 -8 -29 3.74 0.05
 3 -8 -27 -5.87 -0.10
 3 -8 -25 6.40 0.20
 3 -8 -23 -4.54 -0.23
 3 -8 -21 1.19 0.13
 3 -8 -19 0.84 0.01
 3 -8 -17 -0.04 -0.09
 3 -8 -15 -1.87 0.12
 3 -8 -13 2.95 -0.12
 3 -8 -11 -3.81 0.09
 3 8 5 8.29 0.08
 3 -8 7 6.95 0.02
 3 -8 9 -2.31 0.03
 3 -8 11 -1.95 -0.12
 3 -8 13 2.24 0.19
 3 -9 -36 2.33 -0.10
 3 -9 -34 -1.00 -0.10
 3 -9 -32 0.87 0.37
 3 -9 -30 -1.98 -0.48
 3 -9 -28 2.49 0.42
 3 -9 -26 -1.71 -0.33
 3 -9 -24 0.56 0.24
 3 -9 -22 0.04 -0.08
 3 -9 -20 0.10 -0.12
 3 -9 -18 -0.36 0.25
 3 -9 -16 -0.44 -0.25
 3 -9 -14 2.40 0.22
 3 -9 -12 -3.05 -0.21
 3 -9 -10 -0.14 0.18
 3 -9 -8 5.71 -0.13
 3 -9 -6 -8.80 0.04
 3 -9 -4 6.68 0.06
 3 -9 -2 -1.83 -0.10
 3 -9 8 7.93 0.04
 3 -9 10 -3.66 0.10
 3 -9 12 0.26 -0.26
 3 -10 -33 -0.47 -0.06
 3 -10 -31 -0.01 0.28
 3 -10 -29 1.65 -0.29
 3 -10 -27 -4.50 0.22
 3 -10 -25 5.99 -0.21
 3 -10 -23 -4.17 0.17
 3 -10 -21 0.37 -0.01
 3 -10 -19 2.30 -0.19
 3 -10 -17 -1.73 0.26
 3 -10 -15 -1.97 -0.21
 3 -10 -11 -6.45 -0.17
 3 -10 -9 1.07 0.21
 3 -10 -7 6.39 -0.17
 3 -10 -5 -9.38 0.02
 3 -10 -3 5.36 0.18
 3 -10 -1 1.31 -0.22
 3 -10 9 5.97 0.07
 3 -10 11 -2.03 0.10
 3 -11 -32 -1.88 0.09
 3 -11 -30 -0.25 -0.10
 3 -11 -28 5.25 0.13
 3 -11 -26 -9.26 -0.03
 3 -11 -24 8.02 -0.14
 3 -11 -22 -2.28 0.15
 3 -11 -20 -3.06 0.03
 3 -11 -18 4.40 -0.23
 3 -11 -16 -1.63 0.27
 3 -11 -12 7.36 0.10
 3 -11 -10 -6.77 -0.12
 3 -11 -8 0.61 0.23
 3 -11 -6 6.36 -0.24
 3 -11 -4 -7.56 0.04
 3 -11 -2 2.15 0.19
 3 -11 0 3.69 -0.17
 3 -12 -31 -3.69 0.14
 3 -12 -29 -0.63 -0.25
 3 -12 -27 6.69 0.23
 3 -12 -25 -8.68 -0.05
 3 -12 -23 4.50 -0.09
 3 -12 -21 1.50 0.05
 3 -12 -19 -4.10 0.15
 3 -12 -13 -4.81 -0.11
 3 -12 -11 6.82 -0.09
 3 -12 -9 -4.69 0.07
 3 -12 -7 -1.04 0.14
 3 -12 -5 5.40 -0.21
 3 -12 -3 -4.17 -0.03
 3 -12 -1 -0.45 0.27
 3 -12 1 2.65 -0.20
 3 -13 -12 -3.57 0.17
 3 -13 -10 2.82 -0.46
 3 -13 -8 -0.20 0.35
 3 -13 -6 -2.72 0.00
 3 -13 -4 3.02 -0.08
 3 -13 -2 -0.53 -0.23
 3 -13 0 -1.55 0.51
 3 -14 -9 -2.09 -0.59
 3 -14 -7 2.55 0.25
 3 -14 -5 -1.77 0.16
 3 -14 -3 -0.07 -0.10
 4 0 -40 5.18 -0.16
 4 0 -38 -7.89 0.07
 4 0 -36 5.70 0.08
 4 0 -34 -1.29 -0.16
 4 0 -32 -1.21 0.14
 4 0 -30 1.50 -0.11
 4 0 -28 -2.14 0.12
 4 0 -26 2.71 -0.12
 4 0 -24 0.78 0.06
 4 0 -22 -9.03 -0.03
 4 0 -20 16.05 0.05
 4 0 28 -6.83 0.15
 4 0 30 5.07 -0.03
 4 0 32 -3.47 -0.06
 4 -1 -41 -1.67 0.14
 4 1 -41 1.69 -0.19
 4 -1 -39 5.58 -0.03
 4 1 -39 -5.59 0.26
 4 1 -37 5.98 -0.21
 4 -1 -37 -6.01 -0.14
 4 1 -35 -2.88 0.09
 4 -1 -35 2.91 0.17
 4 1 -33 -0.18 0.04
 4 -1 -33 0.17 -0.02
 4 1 -31 0.98 -0.15
 4 -1 -31 -0.99 -0.14
 4 1 -29 -1.10 0.22
 4 -1 -29 1.11 0.12
 4 1 -27 2.15 -0.20
 4 -1 -27 -2.15 -0.02
 4 1 -25 -1.75 0.10
 4 -1 -25 1.76 -0.01
 4 1 -23 -3.21 -0.01
 4 -1 -23 3.20 -0.02
 4 -1 -21 -10.44 -0.02
 4 1 -21 10.44 0.03
 4 -1 -19 13.90 0.10
 4 -1 -17 -12.26 -0.04
 4 -1 3 21.06 0.09
 4 -1 5 -5.02 -0.01
 4 -1 27 5.29 -0.16
 4 -1 29 -5.32 0.14
 4 -1 31 3.63 -0.05
 4 1 31 -3.63 -0.11
 4 1 33 3.14 0.12
 4 -2 -40 -1.93 0.08
 4 -2 -38 3.41 0.10
 4 2 -38 3.39 -0.34
 4 -2 -36 -2.45 -0.14
 4 2 -36 -2.41 0.32
 4 -2 -34 0.40 -0.09
 4 2 -34 0.38 -0.22
 4 -2 -32 0.38 0.37
 4 2 -32 0.36 0.04
 4 2 -30 0.23 0.16
 4 -2 -30 0.20 -0.38
 4 -2 -28 -0.01 0.16
 4 2 -28 -0.02 -0.26
 4 -2 -26 -1.48 -0.03
 4 2 -26 -1.48 0.16
 4 -2 -24 1.57 0.07
 4 2 -24 1.56 0.03
 4 -2 -22 1.68 -0.07
 4 -2 -20 -5.84 -0.11
 4 -2 -18 7.54 0.24
 4 -2 -16 -7.65 -0.11
 4 -2 0 11.73 0.07
 4 -2 2 -18.08 -0.03
 4 -2 2 -18.08 -0.03
 4 -2 4 11.46 0.00
 4 -2 4 11.46 0.00
 4 -2 6 -0.85 0.05
 4 -2 6 -0.85 0.05
 4 -2 8 -3.06 -0.07
 4 -2 8 -3.06 -0.07
 4 -2 10 -0.27 -0.02
 4 -2 24 -0.41 -0.02
 4 -2 26 -2.75 0.05
 4 -2 28 3.55 -0.14
 4 2 32 1.83 0.26
 4 2 34 -2.09 -0.18
 4 2 36 2.57 -0.06
 4 -3 -39 -0.96 -0.07
 4 -3 -37 0.05 0.16
 4 -3 -35 1.27 0.02
 4 -3 -33 -1.35 -0.32
 4 -3 -31 -0.58 0.39
 4 -3 -29 2.70 -0.13
 4 -3 -27 -2.09 -0.11
 4 -3 -25 -1.37 0.05
 4 -3 -23 3.98 0.12
 4 -3 -21 -2.66 -0.07
 4 -3 -19 -1.47 -0.15
 4 -3 -17 5.46 0.20
 4 3 -9 -7.79 -0.22
 4 -3 -1 3.36 0.08
 4 -3 1 9.18 -0.14
 4 -3 3 -13.78 0.15
 4 -3 3 -13.78 0.15
 4 -3 5 8.89 -0.10
 4 -3 5 8.89 -0.10
 4 -3 7 -2.51 0.06
 4 -3 7 -2.51 0.06
 4 -3 9 0.90 -0.03
 4 -3 9 0.90 -0.03
 4 -3 11 -2.82 -0.01
 4 -3 13 4.36 0.08
 4 -3 19 -1.56 0.01
 4 -3 21 1.11 0.00
 4 -3 23 -1.64 -0.10
 4 -3 25 2.18 0.16
 4 -3 27 -1.70 -0.08
 4 3 35 0.86 0.09
 4 3 37 -3.45 0.04
 4 -4 -40 0.03 0.03
 4 -4 -38 2.35 -0.12
 4 -4 -36 -4.29 0.07
 4 -4 -34 3.88 0.13
 4 -4 -32 -0.33 -0.21
 4 -4 -30 -4.59 -0.04
 4 -4 -28 6.83 0.38
 4 -4 -26 -3.56 -0.40
 4 -4 -24 -3.00 0.11
 4 -4 -22 6.76 0.09
 4 -4 -20 -4.03 0.00
 4 -4 -18 -2.57 -0.14
 4 -4 -16 7.72 0.08
 4 4 -8 2.26 0.11
 4 -4 -4 7.31 0.04
 4 -4 -2 -6.06 -0.06
 4 -4 0 -0.63 0.15
 4 4 2 7.92 0.24
 4 -4 2 7.96 -0.23
 4 -4 4 -10.63 0.19
 4 4 4 -10.57 -0.32
 4 -4 4 -10.63 0.19
 4 -4 6 8.60 -0.06
 4 -4 6 8.60 -0.06
 4 -4 8 -5.26 -0.04
 4 -4 8 -5.26 -0.04
 4 -4 10 2.46 0.03
 4 -4 20 0.78 -0.10
 4 -4 22 1.08 0.16
 4 -4 24 -1.72 -0.24
 4 4 36 -2.19 0.10
 4 4 38 5.73 -0.06
 4 -5 -39 -2.18 0.00
 4 -5 -37 5.16 -0.02
 4 -5 -35 -5.18 -0.03
 4 -5 -33 0.96 0.09
 4 -5 -31 5.29 0.07
 4 -5 -29 -9.21 -0.41
 4 -5 -27 7.58 0.60
 4 -5 -25 -1.17 -0.42
 4 -5 -23 -5.04 0.10
 4 -5 -21 5.81 -0.02
 4 -5 -19 -0.75 0.19
 4 -5 -17 -5.24 -0.28
 4 5 3 -4.98 -0.18
 4 -5 5 -9.33 0.13
 4 -5 7 9.94 0.06
 4 -5 9 -6.54 -0.15
 4 -5 11 0.80 0.08
 4 5 37 4.41 -0.16
 4 -6 -38 -1.82 0.01
 4 -6 -36 3.00 -0.12
 4 -6 -34 0.09 0.14
 4 -6 -32 -5.52 -0.12
 4 -6 -30 8.45 0.22
 4 -6 -28 -6.41 -0.37
 4 -6 -26 1.41 0.32
 4 -6 -24 2.71 -0.04
 4 -6 -22 -3.59 -0.15
 4 -6 -20 1.33 0.04
 4 -6 -18 1.98 0.24
 4 -6 -16 -3.70 -0.37
 4 -6 4 7.26 -0.09
 4 -6 6 -10.92 -0.05
 4 -6 8 9.66 0.24
 4 -6 10 -4.82 -0.27
 4 -6 12 -0.41 0.13
 4 -7 -37 0.40 0.33
 4 -7 -35 -1.11 -0.51
 4 -7 -33 4.14 0.46
 4 -7 -31 -5.39 -0.27
 4 -7 -29 2.16 0.15
 4 -7 -27 2.50 -0.05
 4 -7 -25 -3.70 -0.20
 4 -7 -23 1.14 0.53
 4 -7 -21 1.35 -0.59
 4 -7 -19 -1.30 0.28
 4 -7 -17 -0.17 0.11
 4 -7 5 7.92 0.04
 4 -7 7 -6.33 -0.22
 4 -7 9 3.04 0.36
 4 -7 11 -0.84 -0.31
 4 -8 -36 0.78 0.58
 4 -8 -34 -0.79 -0.68
 4 -8 -32 0.36 0.51
 4 -8 -30 2.45 -0.28
 4 -8 -28 -5.80 0.12
 4 -8 -26 5.11 0.10
 4 -8 -24 0.20 -0.46
 4 -8 -22 -4.71 0.72
 4 -8 -20 3.67 -0.58
 4 -8 -18 1.19 0.16
 4 -8 6 0.36 0.00
 4 -8 8 3.28 -0.20
 4 -8 10 -3.55 0.30
 4 -8 12 0.93 -0.21
 4 -9 -35 -0.37 0.36
 4 -9 -33 2.78 -0.39
 4 -9 -31 -5.40 0.37
 4 -9 -29 6.77 -0.37
 4 -9 -27 -4.55 0.31
 4 -9 -25 -1.30 -0.06
 4 -9 -23 6.30 -0.22
 4 -9 -21 -5.58 0.26
 4 -9 -19 -0.12 0.02
 4 -9 9 5.28 -0.09
 4 -9 11 -2.53 0.10
 4 -10 -34 -0.42 -0.03
 4 -10 -32 3.59 -0.13
 4 -10 -30 -4.86 0.37
 4 -10 -28 2.82 -0.51
 4 -10 -26 1.61 0.41
 4 -10 -24 -4.96 -0.20
 4 -10 -22 3.78 0.11
 4 -10 10 0.54 -0.05
 4 -11 -31 0.62 -0.15
 4 -11 -29 -0.16 0.36
 4 -11 -27 -1.33 -0.34
 4 -11 -25 1.80 0.19
 5 -1 0 -4.79 0.04
 5 -1 2 -1.82 0.03
 5 -1 4 8.49 -0.07
 5 -1 6 -12.33 0.08
 5 -1 8 11.92 -0.08
 5 -1 30 0.43 -0.05
 5 -2 -35 0.68 0.27
 5 -2 -33 1.92 -0.26
 5 -2 -31 -4.38 0.17
 5 -2 -29 5.33 -0.06
 5 -2 -1 9.30 0.29
 5 -2 1 -0.59 -0.35
 5 -2 3 -10.16 0.30
 5 -2 3 -10.16 0.30
 5 -2 5 16.21 -0.24
 5 -2 5 16.21 -0.24
 5 -2 7 -15.54 0.24
 5 -2 7 -15.54 0.24
 5 -2 9 9.55 -0.20
 5 -2 11 -1.41 0.02
 5 -2 27 0.40 0.06
 5 2 35 6.34 0.09
 5 -3 -36 1.39 -0.04
 5 -3 -34 -3.48 0.08
 5 -3 -32 4.18 -0.16
 5 -3 -30 -3.90 0.16
 5 -3 -28 2.89 -0.08
 5 -3 -26 -0.58 -0.01
 5 -3 -2 -10.61 -0.34
 5 -3 0 4.53 0.48
 5 -3 2 6.91 -0.41
 5 -3 4 -13.43 0.23
 5 -3 4 -13.43 0.23
 5 -3 6 11.22 -0.16
 5 -3 6 11.22 -0.16
 5 -3 8 -4.20 0.19
 5 -3 8 -4.20 0.19
 5 -3 10 -2.98 -0.13
 5 -3 12 7.77 -0.08
 5 -3 14 -8.12 0.22
 5 -3 16 4.02 -0.12
 5 -3 24 0.16 -0.10
 5 3 36 -3.93 -0.14
 5 -4 -37 -4.03 0.00
 5 -4 -35 5.10 -0.04
 5 -4 -33 -3.06 0.23
 5 -4 -31 -0.63 -0.30
 5 -4 -29 2.41 0.16
 5 -4 -27 -1.12 0.06
 5 -4 -25 -0.75 -0.15
 5 -4 -3 7.95 -0.02
 5 -4 -1 -5.93 -0.17
 5 -4 1 -2.54 0.25
 5 -4 3 8.16 -0.11
 5 -4 5 -5.30 -0.04
 5 -4 5 -5.30 -0.04
 5 -4 7 -1.58 0.03
 5 -4 7 -1.58 0.03
 5 -4 9 5.76 0.05
 5 -4 11 -6.34 0.01
 5 -4 13 5.69 -0.16
 5 -4 15 -4.43 0.19
 5 -4 17 2.55 -0.04
 5 -4 19 -1.30 -0.07
 5 -4 19 -1.30 -0.07
 5 -4 21 1.36 0.00
 5 -4 21 1.36 0.00
 5 -4 23 -1.69 0.11
 5 4 37 0.94 0.07
 5 -5 -38 5.35 0.02
 5 -5 -36 -5.12 0.02
 5 -5 -34 1.01 -0.28
 5 -5 -32 5.72 0.49
 5 -5 -30 -9.82 -0.40
 5 -5 -28 7.11 0.15
 5 -5 -26 -0.15 -0.03
 5 -5 -2 1.56 -0.32
 5 -5 0 2.60 0.14
 5 -5 2 -4.68 -0.07
 5 -5 4 0.78 0.14
 5 -5 4 0.78 0.14
 5 -5 6 5.05 -0.17
 5 -5 6 5.05 -0.17
 5 -5 8 -5.76 0.07
 5 -5 8 -5.76 0.07
 5 -5 10 1.05 0.03
 5 -6 -37 3.19 0.14
 5 -6 -35 1.35 0.09
 5 -6 -33 -7.97 -0.43
 5 -6 -31 12.85 0.56
 5 -6 -29 -11.12 -0.47
 5 -6 -27 2.74 0.45
 5 -6 5 -7.57 0.11
 5 -6 7 6.98 -0.08
 5 -6 9 0.51 -0.01
 5 -7 -34 7.88 0.05
 5 -7 -32 -10.20 -0.31
 5 -7 -30 9.12 0.43
 5 -7 -28 -3.84 -0.46
 5 -7 6 -8.11 -0.02
 5 -7 8 2.32 0.02
 5 -7 10 4.99 -0.03
 5 -8 7 -2.93 -0.12
 5 -8 9 -0.64 0.07
 5 -8 11 2.45 0.00
 5 -9 8 -0.80 -0.18
 5 -9 10 1.44 0.11
 6 0 2 -22.21 -0.15
 6 0 4 19.45 0.09
 6 0 6 -12.29 0.03
 6 -1 -1 -5.67 0.02
 6 -1 1 14.19 0.17
 6 -1 3 -13.78 -0.21
 6 -1 5 8.71 0.09
 6 -1 7 -3.81 -0.06
 6 -1 9 0.65 0.22
 6 -2 -2 -3.64 -0.08
 6 -2 0 -1.91 -0.14
 6 -2 2 0.64 0.28
 6 -2 4 3.38 -0.20
 6 -2 6 -4.34 0.08
 6 -2 8 2.47 -0.11
 6 -2 10 -0.96 0.21
 6 -2 12 0.24 -0.14
 6 -2 14 0.80 -0.09
 6 -3 -1 -3.51 -0.02
 6 -3 1 5.50 -0.12
 6 -3 3 -9.18 0.16
 6 -3 5 8.71 -0.10
 6 -3 7 -3.63 0.07
 6 -3 9 -0.91 -0.12
 6 -3 11 1.63 0.16
 6 -3 13 -0.23 -0.09
 6 -3 15 -0.78 0.01
 6 -3 17 1.23 -0.02
 6 -3 19 -1.48 0.08
 6 -4 0 -3.49 -0.20
 6 -4 2 5.97 0.15
 6 -4 4 -5.42 -0.04
 6 -4 4 -5.42 -0.04
 6 -4 6 1.04 -0.03
 6 -4 8 3.72 0.03
 6 -4 10 -5.34 0.00
 6 -4 12 3.81 0.01
 6 -4 14 -1.19 -0.06
 6 -4 16 -1.49 0.09
 6 -4 18 3.90 -0.09
 6 -4 22 3.11 0.02
 6 -5 1 -1.70 -0.41
 6 -5 3 1.40 0.28
 6 -5 5 0.51 -0.03
 6 -5 5 0.51 -0.03
 6 -5 7 -2.60 -0.08
 6 -5 9 3.99 -0.03
 6 -5 11 -4.63 0.16
 6 -5 13 4.31 -0.14
 6 -5 15 -2.27 0.03
 6 -6 2 -0.34 -0.32
 6 -6 4 0.35 0.06
 6 -6 6 -1.43 0.24
 6 -6 6 -1.43 0.24
 6 -6 8 2.12 -0.26
 6 -7 7 -4.73 0.48
 6 -8 8 -3.60 0.47
 7 -1 6 -3.08 -0.25
 7 -1 8 0.42 0.35
 7 -1 10 1.48 -0.27
 7 -1 12 -2.80 0.14
 7 -2 3 -8.28 0.12
 7 -2 5 5.86 0.11
 7 -2 7 -2.13 -0.30
 7 -2 9 -1.35 0.19
 7 -2 11 3.40 0.07
 7 -2 13 -3.90 -0.13
 7 -2 15 3.02 -0.05
 7 -2 17 -1.57 0.20
 7 -3 4 -4.68 0.13
 7 -3 6 3.24 0.20
 7 -3 8 0.43 -0.26
 7 -3 10 -3.19 -0.05
 7 -3 12 3.20 0.29
 7 -3 14 -1.43 -0.15
 7 -3 16 -0.42 -0.10
 7 -3 18 0.91 0.08
 7 -4 3 0.95 -0.29
 7 -4 5 -2.46 0.00
 7 -4 7 0.78 0.30
 7 -4 9 2.03 -0.19
 7 -4 11 -2.56 -0.15
 7 -4 13 0.90 0.23
 7 -4 15 0.65 -0.04
 7 -4 17 -1.06 -0.01
 7 -5 4 -0.04 -0.26
 7 -5 6 -1.08 -0.02
 7 -5 8 0.42 0.17
 7 -5 10 0.08 0.02
 7 -5 12 0.16 -0.22
 7 -5 14 0.27 0.17
 7 -5 16 -1.38 -0.06
 7 -6 3 3.95 0.30
 7 -6 5 -1.03 -0.26
 7 -6 7 -1.68 0.09
 7 -6 9 3.29 -0.10
 7 -6 11 -3.36 0.26
 7 -6 13 1.08 -0.31
 8 -3 9 -5.88 0.26
 8 -3 11 4.75 -0.14
 8 -3 13 -3.07 0.07
 8 -3 15 2.14 -0.19
 8 -4 8 8.31 -0.10
 8 -4 10 -5.09 0.05
 8 -4 12 -0.13 -0.04
 8 -4 14 3.88 0.10
 8 -5 7 -8.68 0.07
 8 -5 9 6.39 0.02
 8 -5 11 -0.60 -0.01
 8 -5 13 -4.81 -0.05
 8 -6 6 4.85 -0.07
 8 -6 8 -5.79 0.00
 8 -6 10 3.72 0.03
 8 -6 12 0.11 0.03
 8 -7 7 1.01 0.00
 8 -7 9 -3.67 -0.02
 8 -7 9 -3.67 -0.02
;
_olex2_submission_special_instructions 'No special instructions were received'
loop_
_space_group_symop_operation_xyz
'x, y, z'
'-x, y, -z+1/2'
'x+1/2, y+1/2, z+1/2'
'-x+1/2, y+1/2, -z+1'
'-x, -y, -z'
'x, -y, z-1/2'
'-x+1/2, -y+1/2, -z+1/2'
'x+1/2, -y+1/2, z'
loop_
_atom_site_label
_atom_site_type_symbol
_atom_site_fract_x
_atom_site_fract_y
_atom_site_fract_z
_atom_site_U_iso_or_equiv
_atom_site_adp_type
_atom_site_occupancy
_atom_site_site_symmetry_order
_atom_site_calc_flag
_atom_site_refinement_flags_posn
_atom_site_refinement_flags_adp
Tb1 Tb 1.02195(3) 0.40843(2) 0.53765(2) 0.04882(16) Uani 1 1 d . .
O9 O 0.6632(5) 0.7288(4) 0.5330(2) 0.0765(19) Uani 1 1 d . .
O1 O 0.8692(4) 0.4159(3) 0.51773(16) 0.0533(14) Uani 1 1 d . .
O6 O 0.3353(7) 0.6658(7) 0.2459(3) 0.123(3) Uani 1 1 d . .
O3 O 0.6241(4) 0.2106(3) 0.53402(16) 0.0555(14) Uani 1 1 d . .
O10 O 0.6606(5) 0.8386(5) 0.5750(2) 0.090(2) Uani 1 1 d . .
O4 O 0.4899(4) 0.2332(3) 0.50682(16) 0.0547(14) Uani 1 1 d . .
O7 O 0.9658(5) 0.5108(4) 0.58428(17) 0.0643(17) Uani 1 1 d . .
C2 C 0.8381(7) 0.2265(6) 0.6079(3) 0.073(3) Uani 1 1 d . .
H2 H 0.7872 0.1942 0.6010 0.088 Uiso 1 1 calc R .
C10 C 1.1773(9) 0.4342(7) 0.6788(3) 0.085(3) Uani 1 1 d . .
H10 H 1.2023 0.4411 0.7037 0.102 Uiso 1 1 calc R .
O5 O 0.5367(5) 0.5253(4) 0.39870(18) 0.0725(19) Uani 1 1 d . .
C14 C 0.7222(6) 0.4389(5) 0.4897(2) 0.053(2) Uani 1 1 d . .
N2 N 1.1094(5) 0.4092(4) 0.6044(2) 0.0561(17) Uani 1 1 d . .
C15 C 0.6893(6) 0.3651(5) 0.5056(2) 0.054(2) Uani 1 1 d . .
H15 H 0.7275 0.3309 0.5213 0.065 Uiso 1 1 calc R .
C3 C 0.8690(8) 0.2347(7) 0.6452(3) 0.075(3) Uani 1 1 d . .
H3 H 0.8400 0.2069 0.6643 0.091 Uiso 1 1 calc R .
C12 C 1.1808(7) 0.4572(5) 0.6123(3) 0.062(2) Uani 1 1 d . .
H12 H 1.2081 0.4823 0.5921 0.074 Uiso 1 1 calc R .
C20 C 0.5740(6) 0.4703(5) 0.4614(2) 0.053(2) Uani 1 1 d . .
C9 C 1.0979(8) 0.3843(6) 0.6723(3) 0.074(3) Uani 1 1 d . .
C19 C 0.6618(6) 0.4918(5) 0.4685(2) 0.052(2) Uani 1 1 d . .
H19 H 0.6821 0.5433 0.4590 0.062 Uiso 1 1 calc R .
C36 C 0.9594(8) 0.6998(7) 0.6044(3) 0.083(3) Uani 1 1 d . .
H36 H 1.0141 0.6808 0.6156 0.100 Uiso 1 1 calc R .
C16 C 0.6008(6) 0.3413(5) 0.4986(2) 0.051(2) Uani 1 1 d . .
C31 C 0.8326(7) 0.6804(6) 0.5602(3) 0.064(2) Uani 1 1 d . .
H31 H 0.8036 0.6501 0.5400 0.076 Uiso 1 1 calc R .
C18 C 0.5434(6) 0.3947(5) 0.4762(2) 0.052(2) Uani 1 1 d . .
H18 H 0.4838 0.3792 0.4712 0.062 Uiso 1 1 calc R .
C32 C 0.7915(7) 0.7507(6) 0.5750(3) 0.063(2) Uani 1 1 d . .
C21 C 0.5118(6) 0.5274(6) 0.4375(2) 0.060(2) Uani 1 1 d . .
H21A H 0.4507 0.5077 0.4385 0.072 Uiso 1 1 calc R .
H21B H 0.5157 0.5857 0.4473 0.072 Uiso 1 1 calc R .
C11 C 1.2175(7) 0.4721(6) 0.6496(3) 0.070(3) Uani 1 1 d . .
H11 H 1.2676 0.5067 0.6543 0.084 Uiso 1 1 calc R .
C24 C 0.4526(10) 0.5886(8) 0.3040(3) 0.101(4) Uani 1 1 d . .
H24 H 0.4678 0.5791 0.2791 0.121 Uiso 1 1 calc R .
C1 C 0.8846(6) 0.2677(5) 0.5801(3) 0.060(2) Uani 1 1 d . .
H1 H 0.8637 0.2612 0.5546 0.073 Uiso 1 1 calc R .
C34 C 0.8363(8) 0.7968(6) 0.6033(3) 0.074(3) Uani 1 1 d . .
H34 H 0.8087 0.8444 0.6132 0.088 Uiso 1 1 calc R .
C33 C 0.6988(7) 0.7783(8) 0.5616(3) 0.074(3) Uani 1 1 d . .
C13 C 0.8199(6) 0.4607(5) 0.4942(2) 0.0495(19) Uani 1 1 d . .
N1 N 0.9570(5) 0.3156(4) 0.5880(2) 0.0565(18) Uani 1 1 d . .
C6 C 1.0686(7) 0.3723(6) 0.6341(3) 0.062(2) Uani 1 1 d . .
C28 C 0.3193(10) 0.6761(9) 0.2805(4) 0.114(5) Uani 1 1 d . .
H28 H 0.2712 0.7093 0.2869 0.136 Uiso 1 1 calc R .
C35 C 0.9214(9) 0.7750(7) 0.6176(3) 0.093(4) Uani 1 1 d . .
C30 C 0.9171(6) 0.6540(5) 0.5751(2) 0.055(2) Uani 1 1 d . .
C27 C 0.3784(9) 0.6346(8) 0.3103(3) 0.087(3) Uani 1 1 d . .
C4 C 0.9443(8) 0.2849(6) 0.6548(3) 0.069(3) Uani 1 1 d . .
C26 C 0.3568(9) 0.6467(8) 0.3483(3) 0.091(4) Uani 1 1 d . .
H26 H 0.3068 0.6794 0.3528 0.110 Uiso 1 1 calc R .
C17 C 0.5701(6) 0.2570(5) 0.5139(2) 0.053(2) Uani 1 1 d . .
C23 C 0.5054(9) 0.5561(8) 0.3345(3) 0.097(4) Uani 1 1 d . .
H23 H 0.5578 0.5269 0.3301 0.116 Uiso 1 1 calc R .
C7 C 0.9803(10) 0.2990(7) 0.6939(3) 0.091(4) Uani 1 1 d . .
H7 H 0.9517 0.2743 0.7138 0.110 Uiso 1 1 calc R .
C25 C 0.4068(8) 0.6121(6) 0.3789(3) 0.074(3) Uani 1 1 d . .
H25 H 0.3905 0.6195 0.4038 0.089 Uiso 1 1 calc R .
C5 C 0.9876(7) 0.3220(5) 0.6253(3) 0.062(2) Uani 1 1 d . .
C8 C 1.0538(10) 0.3467(7) 0.7021(3) 0.087(4) Uani 1 1 d . .
H8 H 1.0755 0.3549 0.7274 0.104 Uiso 1 1 calc R .
C29 C 0.9568(6) 0.5722(6) 0.5616(3) 0.056(2) Uani 1 1 d . .
C22 C 0.4821(8) 0.5660(7) 0.3716(3) 0.075(3) Uani 1 1 d . .
O2 O 0.8463(4) 0.5205(4) 0.47373(16) 0.0563(14) Uani 1 1 d . .
O8 O 0.9801(4) 0.5651(3) 0.52803(16) 0.0513(13) Uani 1 1 d . .
O11 O 1.0600(11) 0.8614(9) 0.6214(4) 0.179(5) Uani 1 1 d D U
C37 C 0.9794(11) 0.8299(9) 0.6458(5) 0.130(6) Uani 1 1 d D .
H37A H 1.0019 0.7964 0.6679 0.156 Uiso 1 1 calc R .
H37B H 0.9459 0.8785 0.6546 0.156 Uiso 1 1 calc R .
C43 C 1.2087(17) 0.9241(12) 0.6196(7) 0.165(6) Uani 1 1 d . U
H43 H 1.2029 0.9200 0.5931 0.198 Uiso 1 1 calc R .
C38 C 1.1436(18) 0.8969(13) 0.6414(7) 0.162(5) Uani 1 1 d . U
C39 C 1.1438(19) 0.9038(13) 0.6820(7) 0.185(7) Uani 1 1 d . U
H39 H 1.0955 0.8865 0.6952 0.222 Uiso 1 1 calc R .
C42 C 1.2875(17) 0.9599(14) 0.6398(7) 0.177(6) Uani 1 1 d . U
H42 H 1.3334 0.9810 0.6261 0.213 Uiso 1 1 calc R .
C41 C 1.295(2) 0.9631(16) 0.6768(8) 0.183(6) Uani 1 1 d . U
C40 C 1.223(2) 0.9388(15) 0.7007(8) 0.196(7) Uani 1 1 d . U
H40 H 1.2287 0.9460 0.7271 0.235 Uiso 1 1 calc R .
O12 O 1.3841(16) 1.0045(14) 0.7317(7) 0.276(9) Uani 1 1 d . U
C44 C 1.379(2) 0.9906(18) 0.6911(9) 0.233(9) Uani 1 1 d . U
H44 H 1.4265 0.9992 0.6760 0.280 Uiso 1 1 calc R .
loop_
_atom_site_aniso_label
_atom_site_aniso_U_11
_atom_site_aniso_U_22
_atom_site_aniso_U_33
_atom_site_aniso_U_23
_atom_site_aniso_U_13
_atom_site_aniso_U_12
Tb1 0.0452(2) 0.0459(2) 0.0552(2) 0.00127(18) 0.00258(18) 0.00050(18)
O9 0.065(4) 0.071(4) 0.093(5) 0.006(4) -0.004(4) 0.004(4)
O1 0.046(3) 0.048(3) 0.065(3) 0.003(3) 0.002(3) -0.001(3)
O6 0.116(8) 0.159(9) 0.089(6) 0.028(6) -0.014(6) 0.020(7)
O3 0.051(3) 0.054(3) 0.062(3) 0.001(3) 0.002(3) -0.002(3)
O10 0.072(5) 0.075(5) 0.123(6) 0.000(4) 0.011(5) 0.024(4)
O4 0.043(3) 0.054(3) 0.068(3) 0.004(3) 0.002(3) 0.000(3)
O7 0.077(5) 0.056(3) 0.061(3) 0.004(3) 0.015(3) 0.018(3)
C2 0.069(7) 0.063(6) 0.089(7) 0.009(5) 0.017(6) -0.004(5)
C10 0.105(10) 0.085(7) 0.062(6) -0.005(5) -0.011(7) 0.002(7)
O5 0.076(5) 0.078(4) 0.063(4) 0.007(3) 0.004(4) 0.023(4)
C14 0.043(5) 0.045(4) 0.069(5) -0.005(4) -0.002(4) 0.002(4)
N2 0.055(4) 0.058(4) 0.056(4) -0.003(3) 0.011(4) 0.007(4)
C15 0.052(5) 0.048(5) 0.060(5) -0.009(4) -0.009(4) 0.004(4)
C3 0.077(7) 0.082(7) 0.070(6) 0.013(5) 0.019(6) 0.002(6)
C12 0.060(6) 0.056(5) 0.068(5) 0.005(4) -0.004(5) 0.003(4)
C20 0.051(5) 0.047(4) 0.062(5) 0.001(4) 0.004(4) 0.002(4)
C9 0.092(8) 0.067(6) 0.063(6) -0.013(5) -0.005(6) -0.010(6)
C19 0.055(5) 0.047(4) 0.055(4) 0.004(4) 0.008(4) 0.003(4)
C36 0.080(8) 0.079(7) 0.088(7) -0.011(6) -0.018(6) 0.006(6)
C16 0.054(5) 0.046(4) 0.051(4) -0.002(4) 0.004(4) 0.005(4)
C31 0.060(6) 0.063(5) 0.067(5) 0.002(5) -0.003(5) -0.001(5)
C18 0.046(5) 0.054(5) 0.056(4) -0.001(4) 0.001(4) -0.006(4)
C32 0.065(6) 0.061(6) 0.065(5) 0.010(4) 0.014(5) 0.011(5)
C21 0.055(6) 0.062(5) 0.063(5) 0.012(4) -0.003(5) 0.001(4)
C11 0.070(7) 0.076(6) 0.064(6) -0.005(5) -0.002(5) -0.006(5)
C24 0.107(11) 0.122(10) 0.071(7) 0.017(7) -0.015(7) 0.034(8)
C1 0.058(6) 0.047(5) 0.076(6) 0.003(4) 0.002(5) -0.005(4)
C34 0.085(8) 0.059(6) 0.075(6) -0.004(5) -0.006(6) 0.015(5)
C33 0.059(6) 0.083(7) 0.083(7) 0.030(6) 0.014(6) 0.002(6)
C13 0.052(5) 0.038(4) 0.060(5) 0.005(4) 0.008(4) 0.003(4)
N1 0.061(5) 0.047(4) 0.062(4) 0.003(3) 0.007(4) -0.001(3)
C6 0.072(7) 0.056(5) 0.057(5) -0.005(4) 0.003(5) 0.010(5)
C28 0.098(11) 0.138(11) 0.100(9) 0.043(9) -0.028(9) -0.015(9)
C35 0.109(10) 0.070(6) 0.097(8) -0.031(6) -0.027(8) 0.024(7)
C30 0.054(5) 0.053(5) 0.059(5) 0.008(4) 0.004(4) 0.002(4)
C27 0.083(9) 0.107(8) 0.071(7) 0.017(6) -0.002(6) 0.017(7)
C4 0.077(7) 0.066(6) 0.066(6) 0.005(5) 0.022(5) -0.006(5)
C26 0.071(8) 0.105(9) 0.095(8) 0.018(7) -0.006(7) 0.023(7)
C17 0.056(5) 0.051(5) 0.051(4) -0.003(4) 0.003(4) 0.000(4)
C23 0.091(9) 0.118(9) 0.082(7) 0.003(7) 0.008(7) 0.042(8)
C7 0.127(12) 0.089(8) 0.060(6) 0.005(6) 0.019(7) -0.013(8)
C25 0.071(7) 0.078(6) 0.073(6) 0.008(5) -0.001(6) 0.009(5)
C5 0.060(6) 0.049(5) 0.076(6) 0.005(4) 0.004(5) 0.008(4)
C8 0.125(11) 0.080(7) 0.055(6) 0.009(5) 0.003(7) -0.002(7)
C29 0.046(5) 0.058(5) 0.062(5) -0.005(4) -0.005(4) 0.009(4)
C22 0.081(8) 0.078(7) 0.064(6) 0.006(5) -0.007(6) 0.009(6)
O2 0.044(3) 0.059(3) 0.065(3) 0.005(3) 0.000(3) 0.000(3)
O8 0.048(3) 0.048(3) 0.058(3) -0.003(3) 0.004(3) -0.008(2)
O11 0.162(11) 0.178(10) 0.190(11) 0.010(9) -0.028(10) -0.009(9)
C37 0.133(15) 0.094(9) 0.153(13) -0.015(9) -0.052(13) -0.006(9)
C43 0.163(7) 0.166(7) 0.167(7) -0.005(5) 0.013(5) 0.000(5)
C38 0.161(7) 0.163(7) 0.161(7) -0.001(5) 0.009(5) -0.005(5)
C39 0.184(8) 0.186(8) 0.185(8) -0.002(5) 0.012(5) -0.003(5)
C42 0.176(7) 0.178(7) 0.177(7) -0.003(5) 0.014(5) 0.003(5)
C41 0.182(7) 0.183(7) 0.182(7) -0.003(5) 0.011(5) -0.003(5)
C40 0.194(8) 0.196(8) 0.197(8) -0.004(5) 0.012(5) -0.003(5)
O12 0.279(12) 0.283(11) 0.267(11) -0.026(9) 0.034(9) -0.032(9)
C44 0.231(10) 0.235(9) 0.234(10) 0.000(5) 0.018(5) -0.004(5)
loop_
_atom_type_symbol
_atom_type_description
_atom_type_scat_dispersion_real
_atom_type_scat_dispersion_imag
_atom_type_scat_source
C C 0.0033 0.0016 'International Tables Vol C Tables 4.2.6.8 and 6.1.1.4'
H H 0.0000 0.0000 'International Tables Vol C Tables 4.2.6.8 and 6.1.1.4'
N N 0.0061 0.0033 'International Tables Vol C Tables 4.2.6.8 and 6.1.1.4'
O O 0.0106 0.0060 'International Tables Vol C Tables 4.2.6.8 and 6.1.1.4'
Tb Tb -0.1723 4.1537 'International Tables Vol C Tables 4.2.6.8 and 6.1.1.4'
loop_
_geom_angle_atom_site_label_1
_geom_angle_atom_site_label_2
_geom_angle_atom_site_label_3
_geom_angle
_geom_angle_site_symmetry_1
_geom_angle_site_symmetry_3
O1 Tb1 Tb1 69.68(13) . 5_766
O1 Tb1 O3 129.17(18) . 8
O1 Tb1 O4 76.30(18) . 8
O1 Tb1 O7 77.9(2) . .
O1 Tb1 N2 133.1(2) . .
O1 Tb1 N1 79.4(2) . .
O1 Tb1 C17 103.0(2) . 8
O1 Tb1 C29 72.4(2) . .
O1 Tb1 O8 71.72(17) . .
O3 Tb1 Tb1 126.87(14) 8 5_766
O3 Tb1 O4 53.01(18) 8 8
O3 Tb1 O7 141.13(19) 8 .
O3 Tb1 N2 76.8(2) 8 .
O3 Tb1 N1 83.0(2) 8 .
O3 Tb1 C17 26.4(2) 8 8
O3 Tb1 C29 157.9(2) 8 .
O3 Tb1 O8 152.1(2) 8 .
O4 Tb1 Tb1 109.76(13) 8 5_766
O4 Tb1 N2 117.6(2) 8 .
O4 Tb1 N1 74.0(2) 8 .
O4 Tb1 C17 26.7(2) 8 8
O4 Tb1 C29 148.6(2) 8 .
O4 Tb1 O8 139.33(17) 8 .
O7 Tb1 Tb1 85.78(14) . 5_766
O7 Tb1 O4 142.5(2) . 8
O7 Tb1 N2 64.9(2) . .
O7 Tb1 N1 74.9(2) . .
O7 Tb1 C17 153.0(2) . 8
O7 Tb1 C29 25.5(2) . .
O7 Tb1 O8 51.27(19) . .
N2 Tb1 Tb1 130.76(16) . 5_766
N2 Tb1 C17 98.4(2) . 8
N2 Tb1 C29 83.8(2) . .
N1 Tb1 Tb1 146.41(17) . 5_766
N1 Tb1 N2 64.5(2) . .
N1 Tb1 C17 78.7(2) . 8
N1 Tb1 C29 98.4(3) . .
N1 Tb1 O8 122.5(2) . .
C17 Tb1 Tb1 120.18(16) 8 5_766
C17 Tb1 C29 175.0(3) 8 .
C29 Tb1 Tb1 60.40(19) . 5_766
O2 Tb1 Tb1 68.77(13) 5_766 5_766
O2 Tb1 O1 138.44(19) 5_766 .
O2 Tb1 O3 78.8(2) 5_766 8
O2 Tb1 O4 119.1(2) 5_766 8
O2 Tb1 O7 98.2(2) 5_766 .
O2 Tb1 N2 77.0(2) 5_766 .
O2 Tb1 N1 140.2(2) 5_766 .
O2 Tb1 C17 98.3(2) 5_766 8
O2 Tb1 C29 86.5(2) 5_766 .
O2 Tb1 O8 72.18(19) 5_766 5_766
O2 Tb1 O8 73.97(19) 5_766 .
O8 Tb1 Tb1 34.94(13) . 5_766
O8 Tb1 Tb1 38.49(13) 5_766 5_766
O8 Tb1 O1 76.1(2) 5_766 .
O8 Tb1 O3 92.52(19) 5_766 8
O8 Tb1 O4 75.02(18) 5_766 8
O8 Tb1 O7 123.83(19) 5_766 .
O8 Tb1 N2 148.8(2) 5_766 .
O8 Tb1 N2 102.6(2) . .
O8 Tb1 N1 144.1(2) 5_766 .
O8 Tb1 C17 81.7(2) 5_766 8
O8 Tb1 C17 155.1(2) . 8
O8 Tb1 C29 25.8(2) . .
O8 Tb1 C29 98.7(2) 5_766 .
O8 Tb1 O8 73.4(2) 5_766 .
C13 O1 Tb1 136.6(5) . .
C17 O3 Tb1 94.9(5) . 8_455
C17 O4 Tb1 91.5(5) . 8_455
C29 O7 Tb1 95.7(5) . .
C3 C2 H2 120.8 . .
C3 C2 C1 118.4(10) . .
C1 C2 H2 120.8 . .
C9 C10 H10 119.0 . .
C11 C10 H10 119.0 . .
C11 C10 C9 122.0(9) . .
C22 O5 C21 117.6(8) . .
C15 C14 C19 117.8(8) . .
C15 C14 C13 121.4(7) . .
C19 C14 C13 120.8(8) . .
C12 N2 Tb1 122.6(6) . .
C12 N2 C6 118.8(8) . .
C6 N2 Tb1 117.2(6) . .
C14 C15 H15 119.4 . .
C16 C15 C14 121.3(7) . .
C16 C15 H15 119.4 . .
C2 C3 H3 120.2 . .
C2 C3 C4 119.6(10) . .
C4 C3 H3 120.2 . .
N2 C12 H12 118.5 . .
N2 C12 C11 123.1(10) . .
C11 C12 H12 118.5 . .
C19 C20 C18 119.0(8) . .
C19 C20 C21 120.6(8) . .
C18 C20 C21 120.4(8) . .
C6 C9 C10 115.2(10) . .
C6 C9 C8 121.8(10) . .
C8 C9 C10 122.9(10) . .
C14 C19 H19 118.9 . .
C20 C19 C14 122.2(8) . .
C20 C19 H19 118.9 . .
C35 C36 H36 119.7 . .
C30 C36 H36 119.7 . .
C30 C36 C35 120.6(10) . .
C15 C16 C18 118.9(8) . .
C15 C16 C17 119.2(7) . .
C18 C16 C17 121.9(8) . .
C32 C31 H31 119.5 . .
C32 C31 C30 121.0(9) . .
C30 C31 H31 119.5 . .
C20 C18 C16 120.8(8) . .
C20 C18 H18 119.6 . .
C16 C18 H18 119.6 . .
C31 C32 C33 123.0(9) . .
C34 C32 C31 118.9(9) . .
C34 C32 C33 118.1(10) . .
O5 C21 C20 108.5(8) . .
O5 C21 H21A 110.0 . .
O5 C21 H21B 110.0 . .
C20 C21 H21A 110.0 . .
C20 C21 H21B 110.0 . .
H21A C21 H21B 108.4 . .
C10 C11 C12 117.7(10) . .
C10 C11 H11 121.2 . .
C12 C11 H11 121.2 . .
C27 C24 H24 120.1 . .
C27 C24 C23 119.9(12) . .
C23 C24 H24 120.1 . .
C2 C1 H1 118.1 . .
N1 C1 C2 123.9(9) . .
N1 C1 H1 118.1 . .
C32 C34 H34 119.1 . .
C32 C34 C35 121.9(10) . .
C35 C34 H34 119.1 . .
O9 C33 C32 111.9(10) . .
O10 C33 O9 124.1(10) . .
O10 C33 C32 123.9(11) . .
O1 C13 C14 117.3(7) . .
O2 C13 O1 125.6(8) . .
O2 C13 C14 117.1(7) . .
C1 N1 Tb1 121.9(6) . .
C1 N1 C5 116.9(8) . .
C5 N1 Tb1 120.7(6) . .
N2 C6 C9 123.1(9) . .
N2 C6 C5 118.6(8) . .
C9 C6 C5 118.2(10) . .
O6 C28 H28 120.8 . .
O6 C28 C27 118.5(15) . .
C27 C28 H28 120.8 . .
C36 C35 C37 117.3(11) . .
C34 C35 C36 118.4(9) . .
C34 C35 C37 124.3(11) . .
C36 C30 C31 118.9(9) . .
C36 C30 C29 120.6(8) . .
C31 C30 C29 120.3(8) . .
C24 C27 C28 125.1(13) . .
C24 C27 C26 118.5(10) . .
C26 C27 C28 116.3(13) . .
C3 C4 C7 123.3(10) . .
C5 C4 C3 118.1(9) . .
C5 C4 C7 118.6(10) . .
C27 C26 H26 118.8 . .
C25 C26 C27 122.4(12) . .
C25 C26 H26 118.8 . .
O3 C17 Tb1 58.6(4) . 8_455
O3 C17 O4 120.2(8) . .
O3 C17 C16 119.9(8) . .
O4 C17 Tb1 61.9(4) . 8_455
O4 C17 C16 119.9(7) . .
C16 C17 Tb1 174.6(6) . 8_455
C24 C23 H23 119.4 . .
C24 C23 C22 121.1(12) . .
C22 C23 H23 119.4 . .
C4 C7 H7 119.1 . .
C8 C7 C4 121.8(11) . .
C8 C7 H7 119.1 . .
C26 C25 H25 121.1 . .
C26 C25 C22 117.8(11) . .
C22 C25 H25 121.1 . .
N1 C5 C6 117.3(9) . .
N1 C5 C4 123.0(9) . .
C4 C5 C6 119.7(9) . .
C9 C8 H8 120.1 . .
C7 C8 C9 119.8(10) . .
C7 C8 H8 120.1 . .
O7 C29 Tb1 58.8(4) . .
O7 C29 C30 118.5(8) . .
O7 C29 O8 120.4(8) . .
C30 C29 Tb1 175.7(7) . .
O8 C29 Tb1 61.7(4) . .
O8 C29 C30 121.0(8) . .
O5 C22 C23 114.9(11) . .
O5 C22 C25 124.8(10) . .
C25 C22 C23 120.2(10) . .
C13 O2 Tb1 139.4(5) . 5_766
Tb1 O8 Tb1 106.6(2) 5_766 .
C29 O8 Tb1 92.5(5) . .
C29 O8 Tb1 157.3(6) . 5_766
C38 O11 C37 119.9(15) . .
C35 C37 O11 103.9(13) . .
C35 C37 H37A 111.0 . .
C35 C37 H37B 111.0 . .
O11 C37 H37A 111.0 . .
O11 C37 H37B 111.0 . .
H37A C37 H37B 109.0 . .
C38 C43 H43 121.8 . .
C38 C43 C42 116(2) . .
C42 C43 H43 121.8 . .
C43 C38 O11 118(2) . .
C43 C38 C39 126(2) . .
C39 C38 O11 116(2) . .
C38 C39 H39 122.4 . .
C40 C39 C38 115(3) . .
C40 C39 H39 122.4 . .
C43 C42 H42 119.6 . .
C41 C42 C43 121(3) . .
C41 C42 H42 119.6 . .
C42 C41 C40 123(3) . .
C42 C41 C44 112(3) . .
C44 C41 C40 124(3) . .
C39 C40 C41 118(3) . .
C39 C40 H40 121.2 . .
C41 C40 H40 121.2 . .
C41 C44 O12 113(3) . .
C41 C44 H44 123.7 . .
O12 C44 H44 123.7 . .
loop_
_geom_bond_atom_site_label_1
_geom_bond_atom_site_label_2
_geom_bond_distance
_geom_bond_site_symmetry_2
Tb1 Tb1 3.9060(7) 5_766
Tb1 O1 2.345(6) .
Tb1 O3 2.415(6) 8
Tb1 O4 2.486(5) 8
Tb1 O7 2.476(6) .
Tb1 N2 2.591(7) .
Tb1 N1 2.533(7) .
Tb1 C17 2.818(8) 8
Tb1 C29 2.879(9) .
Tb1 O2 2.326(6) 5_766
Tb1 O8 2.334(6) 5_766
Tb1 O8 2.536(5) .
O9 C33 1.343(13) .
O1 C13 1.272(9) .
O6 C28 1.263(17) .
O3 Tb1 2.415(6) 8_455
O3 C17 1.260(9) .
O10 C33 1.213(13) .
O4 Tb1 2.486(5) 8_455
O4 C17 1.265(10) .
O7 C29 1.244(10) .
C2 H2 0.9300 .
C2 C3 1.358(13) .
C2 C1 1.395(13) .
C10 H10 0.9300 .
C10 C9 1.425(16) .
C10 C11 1.360(15) .
O5 C21 1.438(11) .
O5 C22 1.361(11) .
C14 C15 1.384(12) .
C14 C19 1.395(11) .
C14 C13 1.500(12) .
N2 C12 1.318(12) .
N2 C6 1.371(12) .
C15 H15 0.9300 .
C15 C16 1.382(12) .
C3 H3 0.9300 .
C3 C4 1.394(14) .
C12 H12 0.9300 .
C12 C11 1.395(12) .
C20 C19 1.362(12) .
C20 C18 1.380(11) .
C20 C21 1.496(11) .
C9 C6 1.387(12) .
C9 C8 1.405(16) .
C19 H19 0.9300 .
C36 H36 0.9300 .
C36 C35 1.398(14) .
C36 C30 1.365(12) .
C16 C18 1.394(11) .
C16 C17 1.505(12) .
C31 H31 0.9300 .
C31 C32 1.376(13) .
C31 C30 1.394(12) .
C18 H18 0.9300 .
C32 C34 1.359(13) .
C32 C33 1.495(14) .
C21 H21A 0.9700 .
C21 H21B 0.9700 .
C11 H11 0.9300 .
C24 H24 0.9300 .
C24 C27 1.356(18) .
C24 C23 1.378(14) .
C1 H1 0.9300 .
C1 N1 1.329(11) .
C34 H34 0.9300 .
C34 C35 1.378(15) .
C13 O2 1.258(9) .
N1 C5 1.352(11) .
C6 C5 1.459(14) .
C28 H28 0.9300 .
C28 C27 1.466(15) .
C35 C37 1.526(16) .
C30 C29 1.499(12) .
C27 C26 1.405(17) .
C4 C7 1.448(14) .
C4 C5 1.387(14) .
C26 H26 0.9300 .
C26 C25 1.371(13) .
C17 Tb1 2.818(8) 8_455
C23 H23 0.9300 .
C23 C22 1.379(15) .
C7 H7 0.9300 .
C7 C8 1.343(17) .
C25 H25 0.9300 .
C25 C22 1.378(16) .
C8 H8 0.9300 .
C29 O8 1.256(10) .
O2 Tb1 2.326(6) 5_766
O8 Tb1 2.334(6) 5_766
O11 C37 1.610(15) .
O11 C38 1.50(2) .
C37 H37A 0.9700 .
C37 H37B 0.9700 .
C43 H43 0.9300 .
C43 C38 1.35(3) .
C43 C42 1.44(3) .
C38 C39 1.42(3) .
C39 H39 0.9300 .
C39 C40 1.42(3) .
C42 H42 0.9300 .
C42 C41 1.29(3) .
C41 C40 1.47(3) .
C41 C44 1.38(3) .
C40 H40 0.9300 .
O12 C44 1.43(3) .
C44 H44 0.9300 .
loop_
_geom_torsion_atom_site_label_1
_geom_torsion_atom_site_label_2
_geom_torsion_atom_site_label_3
_geom_torsion_atom_site_label_4
_geom_torsion
_geom_torsion_site_symmetry_1
_geom_torsion_site_symmetry_4
Tb1 O1 C13 C14 177.3(5) . .
Tb1 O1 C13 O2 -1.1(13) . .
Tb1 O3 C17 O4 6.4(8) 8_455 .
Tb1 O3 C17 C16 -174.0(6) 8_455 .
Tb1 O4 C17 O3 -6.2(8) 8_455 .
Tb1 O4 C17 C16 174.2(7) 8_455 .
Tb1 O7 C29 C30 176.1(7) . .
Tb1 O7 C29 O8 -3.4(9) . .
Tb1 N2 C12 C11 166.3(7) . .
Tb1 N2 C6 C9 -165.5(8) . .
Tb1 N2 C6 C5 10.9(10) . .
Tb1 N1 C5 C6 -10.5(10) . .
Tb1 N1 C5 C4 167.9(7) . .
Tb1 C29 O8 Tb1 147.7(15) . 5_766
O1 C13 O2 Tb1 -1.0(14) . 5_766
O6 C28 C27 C24 3(2) . .
O6 C28 C27 C26 -178.9(13) . .
O7 C29 O8 Tb1 3.3(9) . .
O7 C29 O8 Tb1 151.0(10) . 5_766
C2 C3 C4 C7 178.3(11) . .
C2 C3 C4 C5 -2.8(16) . .
C2 C1 N1 Tb1 -169.4(7) . .
C2 C1 N1 C5 1.9(13) . .
C10 C9 C6 N2 -3.5(15) . .
C10 C9 C6 C5 -179.8(9) . .
C10 C9 C8 C7 -178.6(12) . .
C14 C15 C16 C18 -2.4(13) . .
C14 C15 C16 C17 175.3(8) . .
C14 C13 O2 Tb1 -179.4(6) . 5_766
N2 C12 C11 C10 0.6(15) . .
N2 C6 C5 N1 -0.7(12) . .
N2 C6 C5 C4 -179.1(9) . .
C15 C14 C19 C20 -3.8(13) . .
C15 C14 C13 O1 -10.2(12) . .
C15 C14 C13 O2 168.3(8) . .
C15 C16 C18 C20 -0.2(13) . .
C15 C16 C17 O3 2.4(12) . .
C15 C16 C17 O4 -178.0(8) . .
C3 C2 C1 N1 -0.9(15) . .
C3 C4 C7 C8 179.0(12) . .
C3 C4 C5 N1 4.0(15) . .
C3 C4 C5 C6 -177.7(9) . .
C12 N2 C6 C9 1.3(14) . .
C12 N2 C6 C5 177.7(8) . .
C9 C10 C11 C12 -3.0(17) . .
C9 C6 C5 N1 175.8(9) . .
C9 C6 C5 C4 -2.6(14) . .
C19 C14 C15 C16 4.3(13) . .
C19 C14 C13 O1 171.4(8) . .
C19 C14 C13 O2 -10.1(12) . .
C19 C20 C18 C16 0.7(13) . .
C19 C20 C21 O5 68.5(11) . .
C36 C35 C37 O11 64.3(16) . .
C36 C30 C29 O7 63.2(13) . .
C36 C30 C29 O8 -117.3(11) . .
C31 C32 C34 C35 -0.2(17) . .
C31 C32 C33 O9 -2.4(13) . .
C31 C32 C33 O10 177.9(10) . .
C31 C30 C29 O7 -111.3(10) . .
C31 C30 C29 O8 68.2(12) . .
C18 C20 C19 C14 1.3(14) . .
C18 C20 C21 O5 -111.0(9) . .
C18 C16 C17 O3 180.0(8) . .
C18 C16 C17 O4 -0.4(12) . .
C32 C31 C30 C36 -1.0(14) . .
C32 C31 C30 C29 173.6(9) . .
C32 C34 C35 C36 -4.6(19) . .
C32 C34 C35 C37 172.3(13) . .
C21 O5 C22 C23 -175.1(10) . .
C21 O5 C22 C25 3.0(15) . .
C21 C20 C19 C14 -178.2(8) . .
C21 C20 C18 C16 -179.8(8) . .
C11 C10 C9 C6 4.4(17) . .
C11 C10 C9 C8 -178.1(11) . .
C24 C27 C26 C25 -2(2) . .
C24 C23 C22 O5 175.4(12) . .
C24 C23 C22 C25 -3(2) . .
C1 C2 C3 C4 1.3(16) . .
C1 N1 C5 C6 178.1(8) . .
C1 N1 C5 C4 -3.5(13) . .
C34 C32 C33 O9 178.4(9) . .
C34 C32 C33 O10 -1.3(15) . .
C34 C35 C37 O11 -112.5(15) . .
C33 C32 C34 C35 179.0(11) . .
C13 C14 C15 C16 -174.1(8) . .
C13 C14 C19 C20 174.6(8) . .
C6 N2 C12 C11 0.3(13) . .
C6 C9 C8 C7 -1.3(18) . .
C28 C27 C26 C25 -179.4(11) . .
C35 C36 C30 C31 -3.9(17) . .
C35 C36 C30 C29 -178.5(11) . .
C30 C36 C35 C34 6.6(19) . .
C30 C36 C35 C37 -170.5(13) . .
C30 C31 C32 C34 3.1(14) . .
C30 C31 C32 C33 -176.1(9) . .
C30 C29 O8 Tb1 -176.2(7) . .
C30 C29 O8 Tb1 -28.5(19) . 5_766
C27 C24 C23 C22 3(2) . .
C27 C26 C25 C22 1.8(19) . .
C4 C7 C8 C9 -0.1(19) . .
C26 C25 C22 O5 -177.6(10) . .
C26 C25 C22 C23 0.4(18) . .
C17 C16 C18 C20 -177.8(8) . .
C23 C24 C27 C28 176.8(13) . .
C23 C24 C27 C26 -1(2) . .
C7 C4 C5 N1 -177.1(9) . .
C7 C4 C5 C6 1.3(15) . .
C5 C4 C7 C8 0.1(18) . .
C8 C9 C6 N2 178.9(10) . .
C8 C9 C6 C5 2.6(15) . .
C22 O5 C21 C20 173.0(8) . .
O11 C38 C39 C40 -179.1(18) . .
C37 O11 C38 C43 -178.7(17) . .
C37 O11 C38 C39 -3(3) . .
C43 C38 C39 C40 -3(4) . .
C43 C42 C41 C40 -6(4) . .
C43 C42 C41 C44 173(2) . .
C38 O11 C37 C35 -163.5(13) . .
C38 C43 C42 C41 2(3) . .
C38 C39 C40 C41 -1(3) . .
C42 C43 C38 O11 178.5(16) . .
C42 C43 C38 C39 3(4) . .
C42 C41 C40 C39 5(4) . .
C42 C41 C44 O12 173(2) . .
C40 C41 C44 O12 -8(4) . .
C44 C41 C40 C39 -174(2) . .
