#------------------------------------------------------------------------------
#$Date: 2017-12-29 11:03:52 +0200 (Fri, 29 Dec 2017) $
#$Revision: 204580 $
#$URL: file:///home/coder/svn-repositories/cod/cif/1/54/85/1548556.cif $
#------------------------------------------------------------------------------
#
# This file is available in the Crystallography Open Database (COD),
# http://www.crystallography.net/
#
# All data on this site have been placed in the public domain by the
# contributors.
#
data_1548556
loop_
_publ_author_name
'Marina Barsukova'
'Tatiana Goncharova'
'Denis Samsonenko'
'Danil Dybtsev'
'Andrei Potapov'
_publ_section_title
;
 Synthesis, Crystal Structure, and Luminescent Properties of New Zinc(II)
 and Cadmium(II) Metal-Organic Frameworks Based on Flexible
 Bis(imidazol-1-yl)alkane Ligands
;
_journal_name_full               Crystals
_journal_page_first              132
_journal_paper_doi               10.3390/cryst6100132
_journal_volume                  6
_journal_year                    2016
_chemical_formula_sum            'C22 H27 Cd N5 O5'
_chemical_formula_weight         553.88
_space_group_crystal_system      monoclinic
_space_group_IT_number           14
_space_group_name_Hall           '-P 2ybc'
_space_group_name_H-M_alt        'P 1 21/c 1'
_symmetry_space_group_name_Hall  '-P 2ybc'
_symmetry_space_group_name_H-M   'P 1 21/c 1'
_atom_sites_solution_hydrogens   geom
_atom_sites_solution_primary     direct
_atom_sites_solution_secondary   difmap
_cell_angle_alpha                90
_cell_angle_beta                 104.140(3)
_cell_angle_gamma                90
_cell_formula_units_Z            4
_cell_length_a                   10.8546(3)
_cell_length_b                   23.6261(7)
_cell_length_c                   9.6799(3)
_cell_measurement_reflns_used    11092
_cell_measurement_temperature    130(2)
_cell_measurement_theta_max      30.73
_cell_measurement_theta_min      3.93
_cell_volume                     2407.22(13)
_computing_cell_refinement
;
CrysAlisPro, Agilent Technologies,
Version 1.171.37.35 (release 13-08-2014 CrysAlis171 .NET)
(compiled Aug 13 2014,18:06:01)
;
_computing_data_collection
;
CrysAlisPro, Agilent Technologies,
Version 1.171.37.35 (release 13-08-2014 CrysAlis171 .NET)
(compiled Aug 13 2014,18:06:01)
;
_computing_data_reduction
;
CrysAlisPro, Agilent Technologies,
Version 1.171.37.35 (release 13-08-2014 CrysAlis171 .NET)
(compiled Aug 13 2014,18:06:01)
;
_computing_molecular_graphics    'ShelXle (H\"ubschle, 2011)'
_computing_publication_material  'CIFTAB-2014 (Sheldrick, 2014)'
_computing_structure_refinement  'SHELXL-2014 (Sheldrick, 2014)'
_computing_structure_solution    'SHELXS-2014 (Sheldrick, 2014)'
_diffrn_ambient_temperature      130(2)
_diffrn_detector                 'CCD plate'
_diffrn_detector_area_resol_mean 10.6168
_diffrn_detector_type            AtlasS2
_diffrn_measured_fraction_theta_full 0.998
_diffrn_measured_fraction_theta_max 0.895
_diffrn_measurement_device       'four-circle diffractometer'
_diffrn_measurement_device_type  'New Xcalibur, AtlasS2'
_diffrn_measurement_method       '\w scans'
_diffrn_radiation_monochromator  graphite
_diffrn_radiation_probe          x-ray
_diffrn_radiation_source         'fine-focus sealed tube'
_diffrn_radiation_type           MoK\a
_diffrn_radiation_wavelength     0.71073
_diffrn_reflns_av_R_equivalents  0.0184
_diffrn_reflns_av_unetI/netI     0.0182
_diffrn_reflns_Laue_measured_fraction_full 0.998
_diffrn_reflns_Laue_measured_fraction_max 0.895
_diffrn_reflns_limit_h_max       15
_diffrn_reflns_limit_h_min       -15
_diffrn_reflns_limit_k_max       31
_diffrn_reflns_limit_k_min       -32
_diffrn_reflns_limit_l_max       11
_diffrn_reflns_limit_l_min       -13
_diffrn_reflns_number            24703
_diffrn_reflns_point_group_measured_fraction_full 0.998
_diffrn_reflns_point_group_measured_fraction_max 0.895
_diffrn_reflns_theta_full        26.500
_diffrn_reflns_theta_max         31.135
_diffrn_reflns_theta_min         3.355
_diffrn_source                   'sealed X-ray tube'
_exptl_absorpt_coefficient_mu    0.949
_exptl_absorpt_correction_T_max  1.00000
_exptl_absorpt_correction_T_min  0.78574
_exptl_absorpt_correction_type   multi-scan
_exptl_absorpt_process_details
;
CrysAlisPro, Agilent Technologies,
Version 1.171.37.35 (release 13-08-2014 CrysAlis171 .NET)
(compiled Aug 13 2014,18:06:01)
Empirical absorption correction using spherical harmonics,
 implemented in SCALE3 ABSPACK scaling algorithm.
;
_exptl_crystal_colour            colorless
_exptl_crystal_density_diffrn    1.528
_exptl_crystal_description       stick
_exptl_crystal_F_000             1128
_exptl_crystal_size_max          0.880
_exptl_crystal_size_mid          0.150
_exptl_crystal_size_min          0.130
_refine_diff_density_max         1.584
_refine_diff_density_min         -0.379
_refine_diff_density_rms         0.064
_refine_ls_extinction_coef       .
_refine_ls_extinction_method     none
_refine_ls_goodness_of_fit_ref   1.090
_refine_ls_hydrogen_treatment    constr
_refine_ls_matrix_type           full
_refine_ls_number_parameters     300
_refine_ls_number_reflns         6948
_refine_ls_number_restraints     0
_refine_ls_restrained_S_all      1.090
_refine_ls_R_factor_all          0.0317
_refine_ls_R_factor_gt           0.0268
_refine_ls_shift/su_max          0.001
_refine_ls_shift/su_mean         0.000
_refine_ls_structure_factor_coef Fsqd
_refine_ls_weighting_details
'w=1/[\s^2^(Fo^2^)+(0.0261P)^2^+1.4838P] where P=(Fo^2^+2Fc^2^)/3'
_refine_ls_weighting_scheme      calc
_refine_ls_wR_factor_gt          0.0607
_refine_ls_wR_factor_ref         0.0628
_reflns_Friedel_coverage         0.000
_reflns_Friedel_fraction_full    .
_reflns_Friedel_fraction_max     .
_reflns_number_gt                6270
_reflns_number_total             6948
_reflns_threshold_expression     >2\s(I)
_cod_data_source_file            2.cif
_cod_data_source_block           bmo281_3m
_cod_original_cell_volume        2407.21(13)
_cod_database_code               1548556
_shelx_space_group_comment
;
The symmetry employed for this shelxl refinement is uniquely defined
by the following loop, which should always be used as a source of
symmetry information in preference to the above space-group names.
They are only intended as comments.
;
_shelx_estimated_absorpt_t_min   0.489
_shelx_estimated_absorpt_t_max   0.887
_shelx_res_file
;
 
    bmo281_3m.res created by SHELXL-2014/7
 
 
TITL bmo281_3m in P2(1)/c; 130K; Xcalibur
CELL 0.71073  10.8546  23.6261   9.6799  90.0000 104.140  90.0000
ZERR    4.00   0.0003   0.0007   0.0003   0.0000   0.003   0.0000
LATT  1
SYMM -x, y+1/2,-z+1/2
SFAC C  H   N  O  Cd
UNIT 88 108 20 20 4
 
LIST 4 ! automatically inserted. Change 6 to 4 for CHECKCIF!!
TEMP -143
 
L.S. 6
BOND $H
FMAP 2
PLAN 5
 
ACTA 53
SIZE 0.88 0.15 0.13
 
WGHT    0.026100    1.483800
FVAR       2.80160
CD1   5    0.319342    0.105539    0.472377    11.00000    0.02419    0.01884 =
         0.01717   -0.00211    0.00010   -0.00114
O11   4    0.164052    0.044576    0.361013    11.00000    0.03865    0.03245 =
         0.01895   -0.00319    0.00098   -0.01128
O12   4    0.231752    0.099611    0.210447    11.00000    0.03354    0.02726 =
         0.02377   -0.00339   -0.00006   -0.00975
C11   1    0.163821    0.060298    0.235809    11.00000    0.02191    0.01946 =
         0.02105   -0.00287    0.00003    0.00143
C12   1    0.078421    0.029224    0.113254    11.00000    0.02021    0.01761 =
         0.01950   -0.00263   -0.00018    0.00128
C13   1   -0.013677   -0.007979    0.137893    11.00000    0.02414    0.02135 =
         0.01874   -0.00128    0.00302    0.00026
AFIX  43
H13   2   -0.023125   -0.013389    0.232010    11.00000   -1.20000
AFIX   0
C14   1    0.091551    0.037115   -0.025318    11.00000    0.02155    0.02074 =
         0.02359   -0.00134    0.00334   -0.00236
AFIX  43
H14   2    0.153976    0.062504   -0.042627    11.00000   -1.20000
AFIX   0
O21   4    0.423505    0.033604    0.619641    11.00000    0.04673    0.02545 =
         0.01868    0.00099    0.00832    0.00302
O22   4    0.330056    0.098289    0.722338    11.00000    0.04126    0.03900 =
         0.02235    0.00233    0.00310    0.01666
C21   1    0.396935    0.054610    0.728272    11.00000    0.02221    0.02370 =
         0.01951   -0.00122    0.00143   -0.00385
C22   1    0.449284    0.026128    0.869141    11.00000    0.01915    0.02334 =
         0.01692   -0.00146    0.00189   -0.00139
C23   1    0.520816   -0.023285    0.875535    11.00000    0.02372    0.02514 =
         0.01759   -0.00416    0.00471    0.00026
AFIX  43
H23   2    0.535233   -0.039088    0.790612    11.00000   -1.20000
AFIX   0
C24   1    0.429090    0.049402    0.994765    11.00000    0.02171    0.02308 =
         0.02101   -0.00259    0.00274    0.00304
AFIX  43
H24   2    0.380923    0.083183    0.991072    11.00000   -1.20000
AFIX   0
N11   3    0.511751    0.121908    0.430468    11.00000    0.02596    0.02384 =
         0.02404    0.00098    0.00167   -0.00158
N12   3    0.702268    0.100504    0.405078    11.00000    0.02606    0.02319 =
         0.02598   -0.00150    0.00421   -0.00380
N13   3    1.127820    0.229909    0.919979    11.00000    0.02810    0.02327 =
         0.02518    0.00059    0.00579   -0.00125
N14   3    1.248480    0.305513    0.969188    11.00000    0.02936    0.02051 =
         0.02301    0.00316    0.00130    0.00004
C101  1    0.609847    0.087119    0.469125    11.00000    0.02570    0.02181 =
         0.02010   -0.00194    0.00263   -0.00384
AFIX  43
H101  2    0.614113    0.056583    0.533975    11.00000   -1.20000
AFIX   0
C102  1    0.544239    0.159230    0.336227    11.00000    0.03542    0.02777 =
         0.03581    0.01057    0.00368   -0.00183
AFIX  43
H102  2    0.492101    0.189246    0.289533    11.00000   -1.20000
AFIX   0
C103  1    0.661679    0.146797    0.319935    11.00000    0.03999    0.03007 =
         0.03386    0.00747    0.00941   -0.00584
AFIX  43
H103  2    0.706823    0.166111    0.261593    11.00000   -1.20000
AFIX   0
C104  1    0.824763    0.071567    0.425237    11.00000    0.02853    0.02801 =
         0.03609   -0.00688    0.01034   -0.00072
AFIX  23
H10A  2    0.835717    0.058590    0.331725    11.00000   -1.20000
H10B  2    0.825505    0.037802    0.486000    11.00000   -1.20000
AFIX   0
C105  1    0.934607    0.110112    0.494160    11.00000    0.02620    0.03540 =
         0.03543   -0.00515    0.01121   -0.00349
AFIX  23
H10C  2    0.939171    0.141567    0.428024    11.00000   -1.20000
H10D  2    1.014892    0.088448    0.509611    11.00000   -1.20000
AFIX   0
C106  1    0.923151    0.134721    0.635871    11.00000    0.02319    0.02687 =
         0.03075   -0.00027    0.00659   -0.00151
AFIX  23
H10E  2    0.910622    0.103463    0.699175    11.00000   -1.20000
H10F  2    0.847297    0.159438    0.619253    11.00000   -1.20000
AFIX   0
C107  1    1.040112    0.168939    0.710303    11.00000    0.02437    0.03005 =
         0.03140   -0.00289    0.00791   -0.00265
AFIX  23
H10G  2    1.116039    0.144211    0.730095    11.00000   -1.20000
H10H  2    1.054055    0.199985    0.647130    11.00000   -1.20000
AFIX   0
C108  1    1.022121    0.193433    0.848691    11.00000    0.02755    0.02830 =
         0.03151   -0.00066    0.00893   -0.00527
AFIX  23
H10I  2    0.942377    0.215636    0.828868    11.00000   -1.20000
H10J  2    1.013486    0.162054    0.913454    11.00000   -1.20000
AFIX   0
C109  1    1.223761    0.216607    1.036590    11.00000    0.03764    0.02571 =
         0.03355    0.01009    0.00026    0.00018
AFIX  43
H109  2    1.236532    0.181554    1.086121    11.00000   -1.20000
AFIX   0
C110  1    1.296454    0.263678    1.066552    11.00000    0.03568    0.02868 =
         0.03488    0.00959   -0.00810   -0.00118
AFIX  43
H110  2    1.369666    0.267317    1.143310    11.00000   -1.20000
AFIX   0
C111  1    1.146749    0.283390    0.882827    11.00000    0.02860    0.02256 =
         0.02157    0.00165    0.00415    0.00119
AFIX  43
H111  2    1.093742    0.302775    0.804501    11.00000   -1.20000
AFIX   0
O1    4    0.871311    0.201382    0.140249    11.00000    0.04851    0.06620 =
         0.03919    0.00441   -0.00266   -0.02343
N1    3    0.727417    0.163248   -0.047397    11.00000    0.03077    0.03013 =
         0.03842   -0.00056    0.00309   -0.00285
C1    1    0.786269    0.205890    0.031860    11.00000    0.03977    0.03737 =
         0.03531    0.00111    0.00884   -0.00982
AFIX  43
H1    2    0.759752    0.243131    0.001392    11.00000   -1.20000
AFIX   0
C2    1    0.762761    0.105024   -0.012170    11.00000    0.03955    0.03205 =
         0.06625    0.00400    0.01649    0.00268
AFIX  37
H2A   2    0.774707    0.085425   -0.097174    11.00000   -1.50000
H2B   2    0.695380    0.086253    0.022120    11.00000   -1.50000
H2C   2    0.842144    0.103943    0.062411    11.00000   -1.50000
AFIX   0
C3    1    0.624417    0.173276   -0.171536    11.00000    0.05462    0.04802 =
         0.05555   -0.00364   -0.01396   -0.00073
AFIX  37
H3A   2    0.641571    0.153333   -0.253626    11.00000   -1.50000
H3B   2    0.617155    0.213964   -0.191554    11.00000   -1.50000
H3C   2    0.544764    0.159323   -0.153505    11.00000   -1.50000
AFIX   0
HKLF 4
 
REM  bmo281_3m in P2(1)/c; 130K; Xcalibur
REM R1 =  0.0268 for    6270 Fo > 4sig(Fo)  and  0.0317 for all    6948 data
REM    300 parameters refined using      0 restraints
 
END
 
WGHT      0.0261      1.4838
 
REM Highest difference peak  1.584,  deepest hole -0.379,  1-sigma level  0.064
Q1    1   0.3806  0.1095  0.4410  11.00000  0.05    1.58
Q2    1   0.2574  0.1085  0.5189  11.00000  0.05    0.50
Q3    1   0.4227  0.0359  0.9280  11.00000  0.05    0.42
Q4    1   0.0454  0.0059  0.1223  11.00000  0.05    0.38
Q5    1   0.0782  0.0338  0.0441  11.00000  0.05    0.38
;
_shelx_res_checksum              55677
_shelx_hkl_file
;
  -2   0   0 122107. 1531.88   6
   2   0   0 124455. 1531.94   6
  -3   0   0 89079.9 1163.48   6
   3   0   0 86922.6 1158.61   6
  -4   0   0 3319.31 138.581   6
   4   0   0 3547.84 144.413   6
   5   0   0 89244.0 1278.95   6
  -5   0   0 93590.9 1292.78   6
   6   0   0 55287.0 893.291   6
  -6   0   0 56260.4 905.581   6
   7   0   0 4365.40 203.048   6
   8   0   0 47559.1 859.933   6
   9   0   0 17387.1 479.205   6
  10   0   0 1872.72 184.233   6
  11   0   0 30964.3 740.195   6
  12   0   0 9369.27 408.604   6
 -12   0   0 9417.63 419.201   4
 -13   0   0 13884.2 537.221   4
  13   0   0 14225.6 439.198   3
 -14   0   0 8543.41 425.257   6
 -14   0   0 7689.65 412.694   4
   2   1   0 10402.8 195.332   6
  -2   1   0 9627.86 188.032   6
  -2  -1   0 9777.47 193.021   6
   2  -1   0 9815.24 186.583   6
   3   1   0 14806.5 290.754   6
   3  -1   0 14892.5 283.550   6
  -3  -1   0 15008.9 289.069   6
  -3   1   0 14983.6 285.115   6
  -4   1   0 50769.1 751.571   6
   4   1   0 49393.1 752.903   6
   4  -1   0 49398.8 747.434   6
  -4  -1   0 50417.7 760.397   6
   5  -1   0 12255.4 305.176   6
   5   1   0 13334.5 319.721   6
  -5  -1   0 12897.6 316.934   6
  -5   1   0 13560.9 319.327   6
   6  -1   0 6219.18 221.011   6
  -6  -1   0 6094.86 225.212   6
  -6   1   0 6380.68 230.270   6
   6   1   0 5984.15 227.684   6
   7  -1   0 30656.2 610.485   6
   7   1   0 31894.0 625.823   6
   8  -1   0 237.620 96.7778   6
   8   1   0 66.4830 88.0791   6
   9   1   0 2565.19 187.900   6
   9  -1   0 2995.48 196.218   6
  10   1   0 31550.1 724.650   6
  10  -1   0 32293.5 722.043   6
  11  -1   0 676.358 141.513   6
  11   1   0 388.558 128.980   6
  12   1   0 5392.68 319.348   6
  12  -1   0 5330.00 257.338   3
 -12   1   0 5526.32 328.958   4
 -12  -1   0 5222.63 319.313   4
  13  -1   0 4914.25 257.541   3
 -13   1   0 4613.32 323.365   4
 -13  -1   0 4375.30 309.606   4
 -13   1   0 5466.19 327.334   6
 -14  -1   0 947.177 188.115   4
 -14   1   0 1093.94 189.199   6
 -14  -1   0 781.150 170.565   6
 -14   1   0 963.739 182.994   4
   2  -2   0 55583.2 724.700   6
  -2  -2   0 55301.0 744.037   6
   2   2   0 54058.4 702.260   1
   2   2   0 54919.8 742.966   6
  -2   2   0 57366.4 730.917   6
   3   2   0 849.708 83.5061   6
  -3  -2   0 743.686 70.2497   6
   3   2   0 808.405 42.3741   1
   3  -2   0 826.206 77.1965   6
  -3   2   0 742.486 69.9156   6
  -4  -2   0 7023.09 201.293   6
  -4   2   0 6629.50 189.819   6
   4   2   0 6060.41 116.282   1
   4  -2   0 6600.51 190.077   6
   4   2   0 6322.43 198.442   6
  -5  -2   0 799.870 92.6596   6
   5   2   0 974.671 101.430   6
  -5   2   0 884.304 88.6384   6
   5  -2   0 739.798 91.1524   6
   6   2   0 3510.47 178.994   6
   6  -2   0 3680.64 173.191   6
  -6  -2   0 4115.91 185.682   6
  -6   2   0 4041.40 178.996   6
   7  -2   0 311.672 84.7003   6
   7   2   0 186.525 86.6955   6
   8   2   0 24286.7 559.151   6
   8  -2   0 23695.0 543.536   6
   9  -2   0 154.230 93.5052   6
   9   2   0 32.8474 92.1077   6
  10   2   0 2003.14 194.377   6
  10  -2   0 1891.28 178.263   6
  11  -2   0 145.086 87.2704   3
  11   2   0 150.147 111.843   6
  11  -2   0 276.958 114.746   6
 -12   2   0 7829.27 359.831   6
 -12  -2   0 7688.45 379.889   4
  12  -2   0 8772.73 327.640   3
  12   2   0 7600.28 373.812   6
 -12   2   0 7759.33 387.774   4
 -13   2   0 1641.61 198.809   6
 -13  -2   0 2025.25 227.831   4
 -13   2   0 1950.24 226.156   4
  13  -2   0 1819.15 176.530   3
 -14  -2   0 860.367 181.482   4
 -14   2   0 1042.95 188.851   6
 -14  -2   0 922.846 182.663   6
 -14   2   0 1227.21 206.449   4
   2  -3   0 178885. 2142.27   6
   2  -3   0 175574. 2155.92   3
  -2   3   0 178091. 2148.61   6
  -2  -3   0 177748. 2171.56   6
  -2   3   0 184169. 2131.58   1
   2   3   0 163695. 2144.77   1
   2   3   0 177552. 2173.14   6
   3  -3   0 1510.22 79.3106   3
  -3  -3   0 1492.26 90.6735   6
   3  -3   0 1465.46 83.4821   6
   3   3   0 1399.57 97.5183   6
   3   3   0 1386.02 64.8685   1
  -3   3   0 1663.69 86.9164   6
  -3   3   0 1497.39 51.6310   1
   4  -3   0 36668.0 578.794   6
   4   3   0 37080.8 605.859   6
  -4  -3   0 37299.0 610.363   6
  -4   3   0 37849.1 588.752   6
   4   3   0 36627.8 507.089   1
  -5   3   0 43648.4 697.932   6
   5   3   0 42376.8 709.473   6
  -5  -3   0 43823.2 714.901   6
   5  -3   0 41234.9 679.907   6
  -6  -3   0 16138.2 390.977   6
  -6   3   0 15944.0 378.868   6
   6  -3   0 15253.6 364.385   6
   6   3   0 15241.5 382.127   6
   7   3   0 64099.8 1048.32   6
   7  -3   0 64093.2 1019.27   6
   8  -3   0 11726.0 353.650   6
   8   3   0 11230.9 364.358   6
   9  -3   0 24266.2 511.323   3
   9  -3   0 23690.1 563.774   6
   9   3   0 22256.5 570.704   6
  10   3   0 31943.7 742.806   6
  10  -3   0 34729.8 670.927   3
  10  -3   0 31908.9 724.237   6
  11  -3   0 2268.53 173.113   3
  11   3   0 2319.72 211.635   6
 -12  -3   0 6093.91 338.038   4
  12   3   0 7283.04 359.977   6
  12  -3   0 7172.08 301.020   3
 -12   3   0 6706.62 336.143   6
 -12   3   0 7053.78 363.410   4
 -13  -3   0 10498.0 463.439   4
  13   3   0 10763.1 468.129   6
  13  -3   0 11121.4 389.954   3
 -13   3   0 10807.7 473.379   4
 -13   3   0 10715.3 449.012   6
 -14  -3   0 777.853 186.754   4
 -14   3   0 603.792 177.521   4
 -14   3   0 724.658 171.324   6
   0  -4   0 242891. 2891.16   2
   0   4   0 244053. 2889.04   5
   0   4   0 242150. 2892.78   2
   0  -4   0 238202. 2845.71   6
   0   4   0 226473. 2910.46   1
   0   4   0 244703. 2846.46   6
   1  -4   0 102361. 1248.75   2
  -1   4   0 99191.9 1260.78   3
   1   4   0 101971. 1266.39   2
  -1   4   0 100531. 1211.57   6
  -1  -4   0 101261. 1240.29   6
   1   4   0 101387. 1243.30   6
  -1  -4   0 104306. 1251.95   5
  -1   4   0 100229. 1247.88   2
   1  -4   0 99289.1 1212.12   6
  -1   4   0 101354. 1271.13   1
  -1  -4   0 101352. 1264.35   2
   1   4   0 94094.1 1274.67   1
   2   4   0 152789. 2021.31   1
   2  -4   0 166145. 2023.89   3
  -2   4   0 167154. 1997.05   6
  -2  -4   0 162107. 2025.87   6
  -2   4   0 164456. 1991.03   6
  -2   4   0 169685. 2008.86   1
   2   4   0 164936. 2033.98   6
  -3   4   0 317343. 3787.36   1
  -3   4   0 323136. 3838.27   6
   3   4   0 310747. 3866.08   6
  -3  -4   0 322487. 3865.87   6
   3  -4   0 315453. 3826.00   6
   3   4   0 312192. 3818.71   1
   3  -4   0 320851. 3841.10   3
   4  -4   0 857.797 78.4452   6
  -4  -4   0 869.059 89.0124   6
   4  -4   0 1093.14 85.4095   3
   4   4   0 852.088 89.2789   6
   4   4   0 938.882 58.6842   1
  -4   4   0 928.161 45.9549   1
  -4   4   0 921.093 80.2479   6
   5   4   0 111532. 1419.30   1
   5  -4   0 110672. 1514.53   6
   5   4   0 112036. 1559.77   6
  -5   4   0 116189. 1536.90   6
  -5  -4   0 116614. 1562.68   6
   5  -4   0 113029. 1498.99   3
   6   4   0 54380.2 896.178   6
   6  -4   0 54158.6 829.310   3
   6  -4   0 52701.6 856.097   6
  -6   4   0 56499.3 884.857   6
   7  -4   0 12332.1 310.783   3
   7  -4   0 11619.4 330.105   6
   7   4   0 11872.9 354.558   6
   8  -4   0 44383.8 752.288   3
   8  -4   0 42278.4 788.798   6
   8   4   0 43593.9 829.669   6
   9   4   0 7427.87 312.132   6
   9  -4   0 7150.10 291.270   6
   9  -4   0 8109.13 275.195   3
  10  -4   0 1663.37 143.130   3
  10   4   0 1728.38 181.340   6
  11   4   0 21988.5 627.100   6
  11  -4   0 22718.2 545.465   3
 -11   4   0 22280.4 596.122   6
 -12  -4   0 4319.84 291.625   4
  12  -4   0 4684.27 248.711   3
  12   4   0 4893.26 304.945   6
 -12   4   0 4717.07 308.911   4
 -12   4   0 4797.23 286.101   6
  13   4   0 3274.07 275.857   6
 -13   4   0 3304.37 271.662   6
 -13  -4   0 3203.93 265.809   4
  13  -4   0 3486.11 226.842   3
 -13   4   0 3133.02 275.063   4
 -14  -4   0 9235.57 447.360   4
 -14   4   0 9311.47 431.978   6
   0  -5   0 127.959 44.8790   2
   0   5   0 81.5607 43.5006   5
   0  -5   0 131.685 24.1522   6
   0   5   0 106.461 40.8392   2
   0   5   0 162.520 25.8784   6
  -1   5   0 183715. 2214.96   2
   1  -5   0 181708. 2163.40   6
   1  -5   0 182460. 2214.11   2
   1   5   0 167724. 2247.80   1
  -1  -5   0 184663. 2216.67   5
  -1  -5   0 182508. 2194.58   6
   1   5   0 183363. 2233.14   2
  -1   5   0 182299. 2230.38   3
  -1  -5   0 183859. 2231.61   2
   1   5   0 182543. 2198.02   6
  -1   5   0 180407. 2162.12   6
  -1   5   0 183329. 2245.55   1
   2  -5   0 110.192 56.5206   3
   2   5   0 91.8357 58.9060   6
   2   5   0 298.433 68.0809   1
  -2   5   0 103.651 45.7742   2
  -2  -5   0 169.363 59.0998   2
  -2   5   0 141.531 36.9393   6
  -2   5   0 95.2887 34.6862   6
  -2  -5   0 153.207 43.5826   6
  -2   5   0 101.391 52.4468   3
  -2   5   0 454.304 66.2891   1
   3  -5   0 104907. 1358.76   3
  -3   5   0 104709. 1328.37   6
   3   5   0 103016. 1378.99   6
  -3  -5   0 104373. 1370.38   6
  -3   5   0 106179. 1320.72   1
   3   5   0 102429. 1349.34   1
   4   5   0 20337.9 408.334   6
  -4  -5   0 20726.0 406.019   6
  -4   5   0 20656.6 322.697   1
   4   5   0 21279.4 358.447   1
   4  -5   0 21218.5 384.568   3
  -4   5   0 21950.6 388.942   6
   5  -5   0 7763.12 222.122   6
  -5   5   0 7823.37 229.402   6
   5  -5   0 7670.55 217.492   3
   5   5   0 7885.01 249.203   6
   5   5   0 7961.65 184.061   1
  -5  -5   0 8252.85 248.078   6
   6  -5   0 15471.8 359.316   6
   6  -5   0 15327.2 346.215   3
  -6   5   0 16150.1 378.099   6
   6   5   0 15875.6 393.972   6
   7  -5   0 1165.58 110.682   6
   7  -5   0 1362.59 113.065   3
   7   5   0 1521.96 136.922   6
   8   5   0 186.243 102.108   6
   8  -5   0 49.0905 75.9119   6
   8  -5   0 103.499 73.7445   3
   9   5   0 78.1837 100.624   6
   9  -5   0 96.8354 75.9299   3
  10  -5   0 4369.48 218.581   3
 -10   5   0 3918.95 229.921   6
  10   5   0 3858.38 243.726   6
 -11   5   0 1758.11 201.676   4
 -11   5   0 1287.92 168.215   6
  11   5   0 1160.12 173.941   6
  11  -5   0 1337.93 146.497   3
 -12  -5   0-55.4077 106.099   4
  12   5   0 92.4272 124.419   6
 -12   5   0 83.8321 107.513   6
 -12   5   0 320.560 134.944   4
  12  -5   0-11.9119 92.3697   3
 -12  -5   0 147.146 88.8547   2
  13  -5   0 299.061 115.906   3
  13   5   0 206.335 133.081   6
 -13   5   0 86.5064 128.147   6
 -13  -5   0 390.017 143.110   4
 -13   5   0 75.4589 120.248   4
 -14  -5   0 49.4256 129.326   4
 -14   5   0 164.258 140.369   6
   0  -6   0 118739. 1438.98   6
   0  -6   0 119312. 1504.55   2
   0   6   0 118253. 1438.20   6
   0   6   0 117089. 1535.70   1
   0   6   0 121481. 1503.05   5
   0   6   0 120805. 1505.34   2
  -1   6   0 23774.4 399.892   1
  -1  -6   0 23224.6 371.967   5
   1   6   0 23383.9 345.895   6
  -1   6   0 24074.9 370.899   2
   1  -6   0 23169.2 367.639   2
  -1  -6   0 22476.5 380.119   2
   1  -6   0 23569.6 314.015   6
   1   6   0 23838.0 385.710   2
   1   6   0 24687.8 376.292   5
  -1  -6   0 22748.8 341.761   6
  -1   6   0 23365.5 312.237   6
   1   6   0 21742.2 400.096   1
  -2   6   0 299404. 3605.74   2
  -2   6   0 300398. 3563.65   6
   2   6   0 301397. 3620.00   6
  -2  -6   0 301845. 3637.82   2
  -2   6   0 298433. 3567.93   6
  -2   6   0 298371. 3633.46   3
   2   6   0 282387. 3646.65   1
  -2  -6   0 297889. 3612.06   6
  -2   6   0 306388. 3635.24   1
  -3  -6   0 35569.8 558.528   6
  -3   6   0 36380.5 530.344   2
  -3   6   0 36827.6 530.054   6
  -3   6   0 36339.7 534.062   1
   3   6   0 35560.6 569.876   6
   3  -6   0 35340.8 558.996   3
  -3   6   0 35777.4 518.295   6
  -3  -6   0 35643.1 562.670   2
  -3   6   0 36053.5 560.943   3
   3   6   0 34858.7 559.023   1
   4   6   0 30830.5 504.988   1
  -4  -6   0 32051.2 543.957   6
  -4   6   0 31673.0 471.198   1
   4   6   0 32228.9 553.427   6
  -4   6   0 30876.0 497.496   6
  -4   6   0 32836.1 519.490   6
   4  -6   0 31357.2 525.092   3
   5   6   0 28278.5 540.416   6
  -5   6   0 28729.2 509.499   6
  -5  -6   0 28378.2 532.883   6
  -5   6   0 27763.1 415.536   1
  -5   6   0 27666.1 487.637   6
   5   6   0 28822.8 464.158   1
   5  -6   0 27774.4 500.069   3
   6   6   0 40596.2 736.907   6
   6  -6   0 40767.5 680.054   3
  -6   6   0 41728.0 704.298   6
   6   6   0 40161.7 607.081   1
   7  -6   0 664.499 93.4796   3
   7   6   0 553.434 107.926   6
   8  -6   0 25059.5 526.657   3
  -8   6   0 24949.8 540.781   6
   8   6   0 25332.4 591.122   6
   9   6   0 4336.82 243.803   6
  -9   6   0 4590.41 229.654   6
   9  -6   0 4452.72 209.505   3
 -10   6   0 4303.90 236.861   6
  10  -6   0 4991.70 235.451   3
  10   6   0 4399.15 263.128   6
 -11   6   0 24130.0 669.613   4
 -11   6   0 23153.1 606.686   6
  11  -6   0 25094.0 583.647   3
 -11  -6   0 23255.7 642.668   4
  11   6   0 24421.7 662.008   6
 -12   6   0 2724.81 227.605   6
 -12  -6   0 2412.31 182.174   2
  12  -6   0 2874.49 207.073   3
 -12  -6   0 2634.02 229.763   4
 -12   6   0 2446.78 236.229   4
  12   6   0 2711.02 242.147   6
 -13   6   0 5375.62 317.655   6
 -13  -6   0 4945.24 315.749   4
  13  -6   0 5324.75 278.321   3
 -13   6   0 4727.69 323.114   4
  13   6   0 5635.03 348.541   6
 -14   6   0 3170.98 269.810   6
 -14  -6   0 4093.89 305.575   4
   0  -7   0 87.8319 26.6993   6
   0   7   0 232.020 68.1416   1
   0  -7   0 199.738 58.9319   2
   0   7   0 171.213 53.8128   5
   0   7   0 174.550 48.6942   2
   0   7   0 134.428 30.8917   6
  -1  -7   0 92284.3 1219.15   2
  -1  -7   0 92278.0 1200.56   5
  -1  -7   0 92305.4 1160.14   6
  -1   7   0 92851.5 1238.35   1
  -1   7   0 90967.5 1123.01   6
   1   7   0 95073.2 1206.33   5
   1   7   0 88564.5 1243.51   1
   1  -7   0 92648.8 1124.87   6
   1   7   0 93333.5 1218.82   2
   1  -7   0 91720.2 1198.98   2
  -1   7   0 93905.5 1201.70   2
   1   7   0 91591.0 1162.21   6
  -2  -7   0 179193. 2229.06   6
   2   7   0 182215. 2239.77   6
  -2  -7   0 181532. 2239.90   5
  -2   7   0 180119. 2235.02   2
   2   7   0 171949. 2283.04   1
  -2   7   0 181319. 2263.07   3
  -2  -7   0 180594. 2265.93   2
  -2   7   0 183683. 2267.89   1
  -2   7   0 180482. 2176.26   6
   3   7   0 140016. 1826.18   6
  -3   7   0 142607. 1787.32   2
  -3  -7   0 141649. 1813.28   6
  -3   7   0 138757. 1754.53   6
   3   7   0 138410. 1830.64   1
  -3   7   0 143924. 1801.00   1
  -3  -7   0 142318. 1828.39   2
  -3   7   0 141281. 1824.67   3
  -3   7   0 143238. 1768.18   6
   3  -7   0 141630. 1824.08   3
   4   7   0 165273. 2178.29   6
  -4  -7   0 168542. 2166.26   6
   4  -7   0 166797. 2154.46   3
   4   7   0 167268. 2139.73   1
  -4   7   0 168560. 2107.90   2
  -4   7   0 170226. 2096.26   1
  -4  -7   0 166232. 2157.74   2
  -4   7   0 171137. 2126.17   6
  -4   7   0 165137. 2104.88   6
   5  -7   0 157689. 2098.71   3
  -5   7   0 162305. 2092.66   6
   5   7   0 158766. 2143.60   6
  -5  -7   0 161062. 2133.60   6
  -5   7   0 159535. 2068.93   6
   5   7   0 165983. 2065.37   1
  -5   7   0 161910. 2005.79   1
  -6   7   0 28106.2 535.740   6
   6   7   0 27319.6 565.412   6
   6   7   0 28042.2 471.129   1
   6  -7   0 27050.4 520.670   3
  -6   7   0 27300.5 510.836   6
   7  -7   0 43749.5 752.525   3
   7   7   0 43661.7 813.310   6
  -7   7   0 44389.7 752.525   6
  -8   7   0 14548.3 387.361   6
   8   7   0 14478.2 433.649   6
   8  -7   0 14635.5 381.897   3
  -9   7   0 10709.1 347.642   6
   9  -7   0 10698.4 334.636   3
   9   7   0 10725.0 386.629   6
  10  -7   0 40041.7 770.642   3
  10   7   0 37969.5 839.442   6
 -10   7   0 38686.8 787.502   6
 -10  -7   0 37976.1 740.860   2
  11  -7   0 303.746 103.652   3
 -11  -7   0 482.196 137.566   4
 -11   7   0 390.868 140.373   4
 -11  -7   0 516.521 113.167   2
 -11   7   0 481.010 132.897   6
  11   7   0 408.666 135.943   6
  12  -7   0 9754.42 365.509   3
  12   7   0 9461.50 424.384   6
 -12  -7   0 9578.32 346.863   2
 -12   7   0 9443.01 390.491   6
 -12  -7   0 9379.24 408.511   4
 -12   7   0 8745.83 420.043   4
  13  -7   0 2259.00 200.738   3
 -13   7   0 2612.35 257.242   4
 -13  -7   0 2258.19 233.856   4
 -13   7   0 2568.23 235.586   6
  13   7   0 2705.28 258.423   6
 -14  -7   0 112.694 130.258   4
 -14   7   0-129.756 128.006   6
   0  -8   0 5201.99 109.315   6
   0   8   0 4913.70 152.205   2
   0   8   0 5202.06 158.020   5
   0   8   0 5151.61 109.036   6
   0   8   0 4929.15 178.141   1
   0  -8   0 5281.56 160.463   2
  -1  -8   0 21848.4 333.860   6
  -1   8   0 21691.4 376.688   2
  -1   8   0 21983.8 316.558   4
   1   8   0 21443.2 387.147   2
   1   8   0 22173.4 378.358   5
   1  -8   0 21679.9 375.083   2
  -1   8   0 21345.4 299.600   6
  -1   8   0 21681.3 407.390   1
   1   8   0 20416.0 410.422   1
  -1  -8   0 21850.9 391.991   2
   1   8   0 21141.6 334.626   6
   1  -8   0 21550.3 301.080   6
  -1  -8   0 20951.9 372.858   5
  -2  -8   0 1703.73 89.3118   6
  -2  -8   0 1991.59 105.923   5
  -2   8   0 2294.45 120.159   1
   2  -8   0 2042.69 97.8703   2
  -2   8   0 2021.14 67.8834   6
   2  -8   0 1993.35 67.9410   6
  -2  -8   0 1989.51 111.232   2
  -2   8   0 1971.56 107.726   3
   2   8   0 2047.61 122.658   1
   2   8   0 2070.18 101.387   6
  -2   8   0 1956.28 98.7989   2
  -3   8   0 91562.0 1177.96   6
  -3  -8   0 90927.7 1264.98   2
   3   8   0 92990.0 1255.09   6
  -3   8   0 92216.8 1187.88   6
  -3   8   0 92531.9 1263.10   3
  -3  -8   0 92360.1 1242.05   6
   3   8   0 90965.1 1273.97   1
  -3   8   0 92997.4 1223.67   2
  -3   8   0 93985.8 1244.32   1
   4  -8   0 6107.19 201.172   3
  -4   8   0 6326.24 179.466   6
  -4   8   0 6576.39 179.815   1
  -4   8   0 6187.86 167.541   6
   4   8   0 6361.16 210.537   6
  -4  -8   0 6289.22 203.034   2
   4   8   0 6797.89 205.779   1
  -4   8   0 6314.31 202.751   3
  -4   8   0 6357.33 179.254   2
  -4  -8   0 6269.61 200.089   6
  -5   8   0 104721. 1399.24   6
  -5   8   0 102594. 1337.86   1
   5   8   0 105388. 1397.16   1
  -5   8   0 100537. 1373.01   6
   5   8   0 100498. 1453.04   6
  -5   8   0 101470. 1365.51   2
  -5  -8   0 102026. 1440.34   6
  -5  -8   0 101476. 1423.95   2
   5  -8   0 102845. 1423.63   3
   6   8   0 24218.8 438.212   1
   6  -8   0 23420.9 478.087   3
   6   8   0 24245.7 521.113   6
  -6   8   0 23512.6 454.747   6
  -6  -8   0 22840.4 474.396   2
  -6   8   0 24248.5 479.892   6
  -6   8   0 22396.4 379.262   1
   7   8   0 3971.51 150.498   1
   7  -8   0 4344.59 194.222   3
   7   8   0 4197.81 219.680   6
  -7   8   0 3953.52 179.291   6
  -7   8   0 4231.82 196.402   6
  -7  -8   0 4291.57 192.611   2
  -8   8   0 15669.2 401.211   6
   8  -8   0 15438.7 400.177   3
   8   8   0 15374.8 450.517   6
  -8  -8   0 15238.4 393.464   2
  -9   8   0 12957.1 383.277   6
  -9  -8   0 12841.5 370.694   2
   9  -8   0 12915.8 378.122   3
   9   8   0 12697.3 426.858   6
  10   8   0 3447.04 242.643   6
  10  -8   0 3967.89 222.171   3
 -10   8   0 3679.84 215.181   6
 -10  -8   0 3471.95 205.128   2
  11  -8   0 7965.38 319.053   3
 -11  -8   0 8222.34 313.359   2
 -11   8   0 8220.33 342.805   6
 -11  -8   0 8116.77 357.207   4
  11   8   0 7237.03 354.981   6
 -11   8   0 8177.24 380.070   4
 -12  -8   0 614.883 139.605   4
  12  -8   0 962.392 139.637   3
  12   8   0 681.397 155.224   6
 -12  -8   0 915.410 134.879   2
 -12   8   0 1101.32 180.137   4
 -12   8   0 797.811 145.973   6
 -13   8   0 2232.40 235.094   4
 -13   8   0 2620.66 233.044   6
  13  -8   0 2213.96 200.809   3
  13   8   0 1989.46 227.351   6
 -13  -8   0 2310.42 230.851   4
 -14   8   0 238.524 145.270   6
 -14  -8   0 431.886 156.319   4
   0   9   0 77.0957 60.0531   5
   0  -9   0 54.9245 57.0270   2
   0   9   0 136.484 32.6246   6
   0   9   0 32.0483 45.5100   2
   0   9   0 162.466 75.1691   1
   0  -9   0 47.0758 27.1085   6
   1   9   0 468.987 69.3255   5
   1  -9   0 395.757 66.3070   2
  -1  -9   0 348.534 67.4198   2
   1   9   0 547.464 52.5710   6
  -1  -9   0 321.878 70.9128   5
  -1   9   0 394.653 70.1996   1
   1   9   0 401.827 70.8210   2
  -1   9   0 411.612 33.7520   6
   1  -9   0 376.037 32.2821   6
  -1   9   0 405.836 36.9924   4
  -1  -9   0 396.834 44.4081   6
   1   9   0 463.316 84.8999   1
  -1   9   0 399.474 68.7994   2
  -2  -9   0 13720.8 266.726   6
  -2  -9   0 13718.4 290.396   5
  -2   9   0 14170.7 308.126   3
  -2  -9   0 13428.1 306.334   2
  -2   9   0 13404.3 284.502   2
   2  -9   0 13844.7 288.130   2
  -2   9   0 14544.0 317.993   1
  -2   9   0 13848.7 222.318   6
   2   9   0 13242.9 321.020   1
   2   9   0 14136.7 279.162   6
   2  -9   0 13640.4 224.433   6
  -3  -9   0 52493.6 783.735   6
   3   9   0 52933.4 795.027   6
  -3   9   0 54030.8 814.791   3
  -3   9   0 53265.6 718.755   6
  -3   9   0 53388.8 728.243   6
  -3  -9   0 52629.8 784.910   5
  -3   9   0 53454.7 776.960   2
   3   9   0 53103.4 829.503   1
  -3  -9   0 53372.4 817.633   2
  -3   9   0 54698.8 803.025   1
   4   9   0 52042.9 806.045   1
  -4  -9   0 51329.5 795.846   6
  -4   9   0 50772.6 761.926   1
   4   9   0 51690.4 809.591   6
  -4  -9   0 49492.6 799.347   2
  -4   9   0 51549.4 761.103   2
  -4   9   0 51434.5 805.707   3
  -4   9   0 52224.0 746.441   6
   4  -9   0 51213.7 804.724   3
  -4   9   0 50484.6 723.964   6
  -5   9   0 1026.92 90.5376   6
  -5  -9   0 899.554 100.068   2
   5   9   0 1013.66 96.1236   1
   5   9   0 962.553 113.575   6
   5  -9   0 922.853 101.242   3
  -5   9   0 999.123 80.1893   2
  -5   9   0 994.909 82.2502   6
  -5   9   0 1049.38 80.1788   1
  -5  -9   0 969.956 99.4819   6
   6  -9   0 1457.51 123.136   3
   6   9   0 1574.32 139.537   6
  -6  -9   0 1112.65 110.189   2
  -6   9   0 1319.28 79.9369   1
  -6   9   0 1252.25 98.1284   6
   6   9   0 1413.81 102.818   1
  -6   9   0 1339.45 94.7011   2
  -6   9   0 1389.63 111.464   6
  -7   9   0 7751.92 250.086   6
   7   9   0 7988.82 297.647   6
   7  -9   0 8065.04 273.134   3
   7   9   0 7732.44 225.771   1
  -7   9   0 8147.18 271.818   6
  -7  -9   0 7896.93 270.130   2
   8  -9   0 2766.34 176.537   3
   8   9   0 2572.67 195.557   6
  -8  -9   0 2544.03 164.085   2
  -8   9   0 2634.98 157.998   6
  -9  -9   0 221.268 90.5069   2
  -9   9   0 475.286 102.286   6
   9   9   0 357.449 127.925   6
   9  -9   0 432.034 105.371   3
 -10  -9   0 5211.26 272.288   4
 -10   9   0 5422.09 260.777   6
 -10   9   0 5420.27 298.777   4
 -10  -9   0 5502.18 251.082   2
  10  -9   0 5693.31 265.082   3
  10   9   0 5457.41 298.047   6
 -11   9   0 2141.93 219.708   4
 -11   9   0 2174.89 191.996   6
 -11  -9   0 2000.78 175.078   2
  11  -9   0 2232.59 193.111   3
 -11  -9   0 2007.99 196.276   4
  11   9   0 1834.20 206.070   6
 -12  -9   0 1279.21 175.105   4
 -12   9   0 1152.75 175.738   4
 -12  -9   0 1613.34 160.117   2
  12  -9   0 1237.41 162.480   3
  12   9   0 1495.41 199.121   6
 -12   9   0 1307.88 171.276   6
 -13   9   0 2389.50 246.052   4
  13  -9   0 2302.32 199.973   3
 -13   9   0 2027.72 212.726   6
  13   9   0 2286.99 246.405   6
 -13  -9   0 2026.51 220.752   4
 -14  -9   0 151.132 129.994   4
 -14   9   0-104.225 135.879   6
   0  10   0 202242. 2454.29   6
   0 -10   0 199936. 2453.51   6
   0  10   0 200754. 2613.20   1
   0  10   0 208863. 2567.62   5
   0 -10   0 203034. 2564.97   2
   0  10   0 212110. 2574.52   2
   1  10   0 1300.28 72.4143   6
  -1  10   0 1176.44 98.8073   1
   1 -10   0 1188.72 51.2600   6
  -1  10   0 1202.24 90.9968   2
  -1 -10   0 1068.63 62.8247   6
  -1  10   0 1088.96 48.5499   6
   1  10   0 1101.95 97.3768   2
  -1 -10   0 973.270 92.4813   5
  -1 -10   0 1267.34 100.793   2
   1  10   0 1228.09 95.5603   5
   1 -10   0 1337.44 99.1260   2
  -1  10   0 1295.71 54.0102   4
   1  10   0 1091.60 106.928   1
  -2  10   0 134075. 1772.94   3
   2  10   0 135452. 1775.19   2
  -2  10   0 136263. 1688.45   4
   2  10   0 130918. 1805.90   1
  -2  10   0 137416. 1788.50   1
  -2 -10   0 131975. 1702.53   6
   2 -10   0 131521. 1737.67   2
   2 -10   0 132235. 1638.78   6
  -2  10   0 135017. 1743.87   2
  -2 -10   0 134527. 1744.17   5
   2  10   0 135223. 1718.45   6
  -2 -10   0 132451. 1773.43   2
  -2  10   0 133838. 1635.77   6
  -3 -10   0 173285. 2221.88   5
  -3  10   0 172447. 2132.27   6
  -3  10   0 173825. 2217.34   2
  -3 -10   0 172535. 2262.54   2
   3  10   0 173262. 2283.06   1
  -3  10   0 174077. 2143.41   6
  -3  10   0 177732. 2249.35   1
  -3  10   0 174905. 2260.11   3
   3  10   0 175381. 2232.78   6
  -3 -10   0 173301. 2209.83   6
  -4  10   0 14917.8 319.815   2
  -4  10   0 15676.9 358.497   3
  -4 -10   0 14360.8 349.849   2
  -4  10   0 14653.0 282.367   6
  -4  10   0 15164.8 298.960   6
   4  10   0 15617.1 361.194   1
  -4  10   0 15777.3 331.632   1
  -4 -10   0 15206.7 332.812   5
   4  10   0 14856.5 352.009   6
  -4 -10   0 14749.0 339.826   6
   5  10   0 45072.4 775.679   6
   5 -10   0 45376.7 764.648   3
  -5 -10   0 44606.0 763.648   6
  -5  10   0 46072.4 715.588   6
  -5  10   0 45827.0 702.645   1
   5  10   0 47280.5 756.153   1
  -5  10   0 45263.7 688.396   6
  -5 -10   0 44174.4 759.719   2
  -5  10   0 45321.9 711.704   2
  -6  10   0 49213.6 738.417   1
  -6 -10   0 47434.3 825.619   2
   6  10   0 48170.5 865.782   6
  -6  10   0 49681.2 773.354   6
  -6  10   0 49419.1 773.541   2
   6  10   0 51021.5 803.110   1
  -6  10   0 51142.2 806.261   6
   6 -10   0 49001.5 831.076   3
   7 -10   0 2384.73 160.771   3
  -7  10   0 2440.09 131.727   2
  -7 -10   0 2265.89 153.333   2
   7  10   0 2457.19 134.944   1
   7  10   0 2061.71 167.326   6
  -7  10   0 2194.87 145.749   6
  -7  10   0 2428.82 141.796   6
   8  10   0 9533.37 348.231   6
   8 -10   0 8850.57 307.410   3
  -8 -10   0 9243.84 311.198   2
  -8  10   0 9256.62 268.879   2
  -8  10   0 9457.31 297.574   6
   9 -10   0 32580.9 678.307   3
  -9 -10   0 31454.1 661.571   2
  -9  10   0 32552.9 659.980   6
   9  10   0 31159.0 730.347   6
 -10  10   0 3859.36 221.544   6
 -10 -10   0 3542.61 227.077   4
  10  10   0 3330.14 244.185   6
  10 -10   0 3597.84 219.003   3
 -10  10   0 3955.77 265.206   4
 -10 -10   0 3718.83 217.827   2
 -11  10   0 34382.4 750.943   6
  11  10   0 33319.6 822.830   6
 -11 -10   0 33618.9 727.891   2
 -11  10   0 32482.7 821.175   4
  11 -10   0 34441.7 750.675   3
 -11 -10   0 32840.8 770.931   4
 -12  10   0 1178.90 178.530   4
  12 -10   0 1242.12 157.359   3
 -12  10   0 1133.76 161.690   6
  12  10   0 1037.02 176.247   6
 -12 -10   0 1091.63 145.287   2
 -12 -10   0 1097.41 162.024   4
  13  10   0 6167.55 377.683   6
  13 -10   0 6213.75 321.710   3
 -13 -10   0 6136.31 347.102   4
 -13  10   0 6480.48 337.838   6
 -13 -10   0 5892.85 301.447   2
 -13  10   0 6574.10 381.103   4
 -14 -10   0 6187.65 358.440   4
 -14  10   0 6702.93 361.416   6
   0 -11   0 199.569 73.8816   2
   0  11   0 252.937 37.9693   6
   0  11   0 372.131 77.6022   5
   0  11   0 264.641 93.8202   1
   0 -11   0 232.012 37.2423   6
   0  11   0 205.948 60.9174   2
  -1  11   0 159972. 1952.91   6
  -1 -11   0 161116. 1997.27   6
  -1 -11   0 163653. 2106.42   2
  -1  11   0 165582. 2093.37   2
  -1  11   0 163243. 2141.75   1
   1  11   0 157424. 2146.36   1
   1  11   0 158272. 2001.77   6
  -1  11   0 167079. 2105.86   5
   1  11   0 162378. 2103.63   2
   1 -11   0 161454. 1955.64   6
  -1  11   0 159119. 1954.12   4
   1 -11   0 160909. 2081.60   2
   1  11   0 166650. 2090.12   5
  -2 -11   0 117150. 1567.94   2
  -2  11   0 116034. 1533.54   2
   2  11   0 119842. 1499.52   6
   2  11   0 114180. 1596.67   1
  -2 -11   0 117472. 1532.04   5
   2  11   0 119282. 1568.51   2
  -2  11   0 114658. 1407.03   6
  -2  11   0 117315. 1456.64   4
  -2  11   0 119307. 1580.78   1
  -2  11   0 117474. 1563.89   3
   2 -11   0 117539. 1530.86   2
   2 -11   0 115327. 1411.72   6
  -2 -11   0 117166. 1481.23   6
  -2 -11   0 105601. 1373.64   4
  -3  11   0 3034.02 146.123   1
  -3 -11   0 2641.07 134.117   5
  -3 -11   0 2652.11 121.389   6
  -3  11   0 2819.39 144.447   3
  -3  11   0 2479.54 87.4241   6
   3  11   0 2620.47 153.136   1
   3  11   0 2683.00 135.514   6
  -3 -11   0 2681.84 156.625   2
  -3  11   0 2681.50 128.010   2
  -3  11   0 2597.07 94.5376   6
  -4  11   0 41876.0 615.970   6
  -4 -11   0 41584.3 697.207   6
   4  11   0 42699.6 730.587   1
  -4  11   0 42910.7 725.761   3
  -4 -11   0 43242.2 692.796   5
  -4  11   0 43358.9 637.082   6
   4  11   0 42241.7 711.302   6
  -4  11   0 41822.1 677.863   2
  -4  11   0 42373.8 691.582   1
  -4 -11   0 41913.9 725.319   2
   5  11   0 3721.51 172.212   1
  -5  11   0 3574.85 135.349   6
   5  11   0 3817.12 186.450   6
  -5  11   0 3876.76 155.317   1
  -5  11   0 3645.76 147.431   6
  -5  11   0 3849.74 155.864   2
  -5 -11   0 3498.60 175.209   2
  -6  11   0 14381.0 313.724   1
  -6  11   0 14098.9 329.939   2
  -6  11   0 13992.8 320.005   6
  -6 -11   0 13594.3 370.961   2
  -6  11   0 14259.3 340.659   6
   6  11   0 14563.5 357.838   1
   6  11   0 14082.8 390.442   6
  -7 -11   0 40417.5 758.760   2
   7 -11   0 40868.2 761.688   3
  -7  11   0 42466.3 741.295   6
  -7  11   0 40730.4 695.896   2
   7  11   0 41763.9 713.672   1
   7  11   0 40472.4 798.037   6
  -7  11   0 42231.3 707.686   6
  -8  11   0 10504.4 313.301   6
   8  11   0 10236.3 371.825   6
   8 -11   0 10782.0 347.926   3
  -8 -11   0 10303.2 336.987   2
  -8  11   0 10320.3 292.246   2
  -9 -11   0 6425.76 278.204   4
  -9  11   0 6515.98 262.398   6
  -9  11   0 6557.44 308.980   4
   9 -11   0 6205.61 273.380   3
   9  11   0 6613.62 314.929   6
  -9 -11   0 6102.63 267.431   2
  10  11   0 11915.4 438.571   6
 -10 -11   0 11332.4 379.539   2
 -10  11   0 10819.6 418.981   4
  10 -11   0 11594.2 388.890   3
 -10  11   0 10717.7 363.983   6
 -10 -11   0 10806.7 385.737   4
 -11  11   0 1091.14 175.524   4
 -11  11   0 917.144 140.861   6
  11 -11   0 879.350 144.066   3
 -11 -11   0 1096.66 154.887   4
  11  11   0 858.203 168.440   6
 -11 -11   0 1004.65 148.398   2
 -12 -11   0 2563.45 205.786   2
 -12 -11   0 2157.40 206.778   4
  12  11   0 1929.56 217.506   6
  12 -11   0 2166.07 197.322   3
 -12  11   0 2374.95 249.720   4
 -12  11   0 2554.00 209.211   6
 -13  11   0 9311.96 401.386   6
 -13 -11   0 9272.75 377.795   2
 -13  11   0 8896.77 436.049   4
  13  11   0 9917.38 468.581   6
 -13 -11   0 8973.09 411.309   4
 -14 -11   0 1056.77 179.716   4
 -14  11   0 776.479 168.632   6
   0  12   0 36331.4 659.481   1
   0  12   0 36402.7 616.298   2
   0  12   0 34795.8 499.463   6
   0 -12   0 35966.8 610.662   2
   0 -12   0 34928.2 498.313   6
   0  12   0 37471.5 618.070   5
   1  12   0 1222.03 78.8519   6
   1  12   0 1442.72 135.090   1
  -1  12   0 1210.46 101.659   2
  -1 -12   0 1239.36 109.336   2
   1 -12   0 1223.56 102.806   2
  -1  12   0 1127.50 51.7244   4
  -1  12   0 1047.67 51.4646   6
   1  12   0 1260.36 111.164   5
  -1 -12   0 989.312 64.2749   6
  -1  12   0 1183.72 105.575   5
  -1  12   0 1034.66 118.954   1
   1 -12   0 1076.36 52.6158   6
   1  12   0 1089.20 107.583   2
  -2 -12   0 2885.85 153.090   2
   2 -12   0 2673.40 83.3082   6
   2  12   0 3002.94 152.616   2
   2 -12   0 2828.64 141.281   2
  -2 -12   0 3001.62 142.349   5
   2  12   0 2952.83 125.306   6
  -2  12   0 2805.18 83.1562   6
  -2 -12   0 2905.03 116.018   6
   2  12   0 2933.64 168.449   1
  -2  12   0 2850.31 102.753   4
  -2  12   0 3054.03 153.492   3
  -2  12   0 3283.57 160.095   1
  -2  12   0 3124.25 145.758   2
  -3  12   0 38869.4 544.779   6
  -3  12   0 38555.3 553.769   6
  -3 -12   0 38935.3 624.218   6
  -3 -12   0 38454.9 647.753   5
  -3  12   0 39254.6 681.007   3
  -3  12   0 39371.8 675.218   1
   3  12   0 38674.9 638.919   6
   3  12   0 38135.4 699.579   1
  -3 -12   0 38327.0 680.850   2
  -3  12   0 39148.0 611.994   4
  -3 -12   0 38963.9 538.640   4
  -3  12   0 38888.5 645.093   2
  -4  12   0 5216.00 155.835   6
  -4 -12   0 5418.43 217.716   2
  -4  12   0 5186.46 145.709   6
  -4  12   0 5539.22 200.818   1
  -4  12   0 4735.27 179.316   2
  -4 -12   0 5078.27 190.187   5
  -4 -12   0 4820.33 187.241   6
   4  12   0 5239.21 216.310   1
   4  12   0 5530.43 205.524   6
  -5 -12   0 1359.49 111.431   5
  -5  12   0 1346.21 101.115   2
  -5  12   0 1323.07 93.7999   6
   5  12   0 1391.17 123.888   6
   5  12   0 1309.04 114.515   1
  -5  12   0 1267.15 98.7764   1
  -5  12   0 1289.65 84.4109   6
  -5 -12   0 1157.95 117.476   2
   6  12   0 843.968 101.775   1
  -6  12   0 696.763 77.5860   6
  -6  12   0 935.428 87.5605   2
  -6  12   0 808.351 86.5699   6
  -6  12   0 847.239 80.2209   1
  -6 -12   0 873.856 106.122   2
   6  12   0 905.590 123.800   6
  -7  12   0 790.029 93.2305   6
  -7  12   0 820.047 104.149   6
   7  12   0 968.312 102.032   1
   7  12   0 1017.56 138.996   6
  -7 -12   0 738.916 112.263   2
  -7  12   0 711.121 87.6158   2
   8  12   0 1875.23 176.171   6
  -8  12   0 1815.64 167.476   4
  -8  12   0 2047.79 143.769   6
  -8 -12   0 1718.87 153.010   2
  -9  12   0 709.134 131.068   4
  -9 -12   0 922.797 130.758   2
  -9  12   0 968.281 118.792   6
   9 -12   0 664.902 127.466   3
   9  12   0 767.173 147.866   6
  -9 -12   0 746.001 118.540   4
 -10  12   0 241.730 98.3897   6
 -10 -12   0 109.808 99.1479   4
  10  12   0 117.177 123.244   6
  10 -12   0-142.060 110.637   3
 -10 -12   0 141.562 106.327   2
 -10  12   0 265.389 126.295   4
 -11 -12   0 1255.40 161.292   4
 -11  12   0 1159.03 177.152   4
  11  12   0 1292.35 188.958   6
 -11 -12   0 1161.28 153.473   2
 -11  12   0 1160.27 147.036   6
 -12 -12   0 2379.47 205.323   2
 -12 -12   0 2202.88 209.262   4
 -12  12   0 2274.83 227.034   4
  12  12   0 2707.00 253.289   6
 -12  12   0 2348.90 202.103   6
 -13  12   0 479.555 135.342   6
 -13 -12   0 495.638 150.059   4
  13  12   0 640.356 179.261   6
 -13  12   0 615.678 177.660   4
 -14 -12   0 666.038 167.403   4
 -14  12   0 869.305 169.216   6
   0 -13   0 142.813 81.3005   2
   0  13   0 106.884 58.2414   2
   0  13   0 241.159 88.4073   1
   0  13   0 240.075 42.5331   6
   0  13   0 152.331 75.8123   5
   0 -13   0 138.133 35.5827   6
   1  13   0 34515.1 596.342   5
  -1  13   0 33281.3 632.317   1
  -1  13   0 34354.4 598.451   2
   1  13   0 33790.9 645.867   1
   1 -13   0 33812.1 592.153   2
  -1 -13   0 33536.6 502.681   6
   1  13   0 33414.7 510.203   6
   1 -13   0 33123.2 464.421   6
  -1 -13   0 33482.8 604.981   2
  -1  13   0 31954.1 450.039   4
   1  13   0 34281.7 610.582   2
  -1  13   0 32834.9 461.055   6
  -1  13   0 34964.0 611.994   5
  -2 -13   0 22329.2 452.078   5
   2  13   0 22106.1 498.621   1
  -2  13   0 23058.3 476.858   3
  -2  13   0 23205.8 488.607   1
  -2  13   0 22969.2 336.981   6
   2  13   0 24051.6 484.883   2
   2 -13   0 22168.8 448.259   2
  -2 -13   0 22552.3 397.881   6
   2  13   0 22972.6 413.344   6
   2 -13   0 22125.9 338.682   6
  -2  13   0 22978.8 458.454   2
  -2 -13   0 23029.2 483.064   2
  -2  13   0 22564.9 369.880   4
  -3  13   0 245.865 56.2610   4
  -3  13   0 247.565 39.3092   6
  -3  13   0 232.535 67.0276   2
  -3  13   0 383.798 49.2643   6
  -3 -13   0 253.904 76.0283   5
  -3  13   0 423.446 83.8866   1
   3  13   0 336.704 71.7585   6
  -3 -13   0 451.428 65.3293   6
   3  13   0 299.561 90.4143   1
  -3 -13   0 284.653 32.1870   4
  -3 -13   0 398.262 88.3504   2
  -4  13   0 76425.2 1123.36   2
  -4 -13   0 77004.6 1028.12   4
  -4 -13   0 76624.4 1122.28   6
  -4  13   0 77792.2 1149.13   1
   4  13   0 77132.6 1147.00   6
  -4  13   0 76971.0 1040.46   6
  -4 -13   0 76889.7 1182.00   2
  -4  13   0 77295.9 1114.77   4
  -4  13   0 75489.1 1019.67   6
  -4 -13   0 75719.9 1131.01   5
   4  13   0 79340.4 1201.18   1
   5  13   0 2078.56 152.826   6
  -5  13   0 2001.54 134.243   4
  -5 -13   0 2033.09 135.786   5
  -5  13   0 1959.89 100.185   6
  -5  13   0 2099.11 131.314   1
  -5  13   0 2573.86 138.002   2
  -5  13   0 2199.29 117.678   6
  -5 -13   0 2061.31 154.350   2
   5  13   0 2271.02 153.341   1
   6  13   0 4654.49 208.175   1
  -6  13   0 4346.56 182.216   2
   6  13   0 4097.74 214.128   6
  -6  13   0 4378.27 177.955   6
  -6  13   0 4182.20 201.344   4
  -6  13   0 4355.70 175.754   1
  -6 -13   0 3875.58 186.152   5
  -6  13   0 4236.73 159.718   6
  -6 -13   0 4469.20 215.963   2
  -7  13   0 46093.8 749.535   1
   7  13   0 46782.2 892.227   6
  -7 -13   0 46715.9 798.624   4
  -7  13   0 47556.6 875.339   4
  -7 -13   0 46103.6 858.166   2
  -7  13   0 47948.7 772.337   6
  -7  13   0 47063.3 802.714   6
   7  13   0 48814.5 829.984   1
  -8 -13   0 19469.7 507.451   2
   8  13   0 19523.2 456.476   1
  -8  13   0 20289.8 452.374   6
  -8  13   0 20536.2 537.817   4
   8  13   0 20816.4 550.940   6
  -8 -13   0 19905.1 475.535   4
  -9 -13   0 6403.60 285.644   2
  -9 -13   0 6535.30 275.928   4
  -9  13   0 6443.86 309.224   4
   9  13   0 6643.84 322.011   6
  -9  13   0 6319.86 252.793   6
  10  13   0 15535.0 516.544   6
 -10 -13   0 14895.0 459.818   2
 -10  13   0 14698.6 498.726   4
 -10  13   0 15435.1 432.601   6
 -10 -13   0 14044.9 438.380   4
 -11  13   0 270.248 114.165   6
 -11 -13   0 75.5163 106.205   2
 -11 -13   0 130.639 105.985   4
  11  13   0 132.984 149.282   6
 -11  13   0 269.415 136.914   4
 -12  13   0 3907.43 247.255   6
 -12 -13   0 3071.48 227.835   2
  12  13   0 3365.87 279.422   6
 -12  13   0 3436.03 274.991   4
 -12 -13   0 3264.15 243.888   4
 -13 -13   0 5072.35 298.854   2
 -13 -13   0 5036.07 313.776   4
 -13  13   0 4891.20 293.506   6
 -13  13   0 4550.91 319.044   4
 -14 -13   0 373.258 149.015   4
   0  14   0 234371. 2951.84   5
   0 -14   0 228345. 2942.68   2
   0  14   0 230318. 3004.48   1
   0  14   0 235762. 2953.80   2
   0 -14   0 227195. 2781.30   6
   0  14   0 225713. 2782.75   6
  -1  14   0 49542.1 810.778   2
   1  14   0 49263.9 710.116   6
   1  14   0 49787.1 866.484   1
   1  14   0 51096.8 816.243   5
  -1  14   0 50448.7 859.425   1
   1 -14   0 50185.2 810.897   2
  -1 -14   0 49298.7 702.846   6
  -1 -14   0 49063.8 821.357   2
  -1  14   0 49631.7 819.989   5
   1 -14   0 49855.7 661.713   6
  -1  14   0 48545.1 658.012   6
  -2 -14   0 24782.5 497.528   5
  -2  14   0 26503.7 510.702   2
   2  14   0 25991.1 452.881   6
  -2  14   0 25177.6 399.567   4
   2 -14   0 25220.4 498.653   2
   2  14   0 25464.0 555.730   1
   2 -14   0 24503.5 370.975   6
  -2 -14   0 25431.2 436.582   6
  -2  14   0 25852.0 536.365   1
  -2  14   0 25222.9 368.799   6
  -2 -14   0 25040.5 522.926   2
  -3 -14   0 101714. 1300.21   4
  -3  14   0 108687. 1529.21   1
   3  14   0 107519. 1462.28   6
  -3 -14   0 107973. 1538.71   2
  -3  14   0 109382. 1496.52   2
  -3  14   0 106374. 1335.96   6
  -3 -14   0 106064. 1488.37   5
  -3 -14   0 107840. 1440.91   6
   3  14   0 109587. 1572.12   1
  -3  14   0 106082. 1406.94   4
  -3  14   0 107287. 1346.27   6
  -4  14   0 75.6850 65.3682   2
  -4 -14   0 92.9562 35.9150   4
  -4 -14   0-3.44581 71.1841   5
  -4 -14   0-6.11147 52.1331   6
   4  14   0 30.0311 65.5073   6
  -4  14   0 91.1705 43.4757   6
  -4 -14   0 232.874 79.5600   2
  -4  14   0 95.9714 38.2807   6
  -4  14   0 157.594 76.0290   1
   4  14   0-43.5241 79.9422   1
  -4  14   0 6.28430 51.2664   4
  -5 -14   0 64279.1 1016.93   5
  -5 -14   0 66028.1 929.782   4
  -5  14   0 65810.2 1017.25   4
   5  14   0 66575.5 1072.81   1
  -5  14   0 63671.6 910.696   6
  -5  14   0 65963.2 942.376   6
  -5 -14   0 63763.0 1065.94   2
   5  14   0 64825.6 1046.63   6
  -5  14   0 65704.2 1017.94   1
  -5  14   0 65431.6 1005.90   2
  -6 -14   0 11095.9 352.318   2
  -6  14   0 10360.9 325.663   4
  -6 -14   0 10846.3 318.250   5
  -6  14   0 10751.1 299.465   1
  -6  14   0 10298.5 260.713   6
   6  14   0 11562.6 346.927   1
  -6  14   0 11101.2 288.776   6
  -6 -14   0 11295.1 284.959   4
   6  14   0 10455.0 341.702   6
  -7  14   0 73.1425 88.8020   4
  -7 -14   0 120.424 82.0501   5
  -7  14   0-25.3221 59.5280   6
  -7  14   0 176.693 74.4699   1
  -7 -14   0 193.253 95.3880   2
  -7 -14   0 146.595 68.8170   4
   7  14   0 116.189 90.5469   6
  -7  14   0 170.288 82.2386   6
   7  14   0 132.325 77.2606   1
  -8 -14   0 42926.6 776.360   4
  -8  14   0 42625.0 742.568   6
   8  14   0 43610.5 785.325   1
   8  14   0 42583.1 870.469   6
  -8  14   0 42234.8 850.828   4
  -8 -14   0 42149.6 835.576   2
  -9 -14   0 11785.5 403.008   2
  -9 -14   0 11934.0 374.452   4
  -9  14   0 13045.7 438.614   4
   9  14   0 12310.9 445.646   6
  -9  14   0 13057.2 366.771   6
 -10  14   0 3252.56 197.521   6
 -10  14   0 2867.34 229.662   4
 -10 -14   0 2818.89 213.577   2
  10  14   0 2949.31 245.327   6
 -10 -14   0 3203.63 206.518   4
 -11 -14   0 14327.3 459.865   4
 -11  14   0 13855.6 510.124   4
 -11 -14   0 14255.4 472.733   2
  11  14   0 14138.1 525.395   6
 -11  14   0 15284.4 451.852   6
 -12  14   0 3082.01 261.108   4
  12  14   0 2509.59 254.545   6
 -12  14   0 2666.80 212.354   6
 -12 -14   0 2815.41 226.074   4
 -12 -14   0 2256.02 210.562   2
 -13  14   0 2986.09 280.915   4
 -13 -14   0 2770.34 243.438   4
 -13 -14   0 3056.58 243.897   2
   0  15   0 1245.19 146.400   1
   0 -15   0 938.751 117.019   2
   0 -15   0 941.260 65.6082   6
   0  15   0 895.315 64.4091   6
  -1  15   0 39399.9 550.443   6
   1  15   0 40194.6 762.783   1
   1 -15   0 40944.6 710.473   2
   1 -15   0 40179.5 554.202   6
  -1 -15   0 40068.6 595.762   6
  -1 -15   0 39849.7 718.447   2
  -1  15   0 40381.1 754.339   1
   1  15   0 40197.7 606.276   6
   2  15   0 26216.7 572.034   1
   2  15   0 26430.8 463.548   6
  -2  15   0 25931.3 552.736   1
   2 -15   0 24947.3 377.770   6
  -2  15   0 25678.1 403.123   4
   2 -15   0 25918.1 519.977   2
  -2 -15   0 25985.9 545.063   2
  -2 -15   0 26296.8 449.961   6
  -2  15   0 25451.1 375.829   6
  -3  15   0 483.417 85.5892   1
  -3  15   0 435.844 42.3638   6
  -3 -15   0 367.428 90.1227   2
  -3  15   0 397.877 45.6080   6
  -3 -15   0 437.245 89.8507   5
   3  15   0 384.145 94.4313   1
  -3  15   0 295.357 55.1470   4
  -3 -15   0 298.307 22.4921   4
  -3 -15   0 448.253 65.0912   6
   3  15   0 414.371 78.4514   6
  -4 -15   0 7596.81 259.483   5
   4  15   0 8401.77 267.204   6
  -4 -15   0 7944.32 249.086   6
  -4  15   0 8124.98 237.243   4
   4  15   0 8524.20 305.115   1
  -4  15   0 8336.42 186.174   6
  -4  15   0 8185.88 196.173   6
  -4 -15   0 8177.68 176.329   4
  -4  15   0 8096.07 272.969   1
  -4 -15   0 7705.96 284.703   2
  -5 -15   0 9640.93 229.458   4
  -5 -15   0 9594.55 328.803   2
   5  15   0 10098.6 335.108   1
   5  15   0 10169.4 317.376   6
  -5  15   0 9907.55 227.611   6
  -5  15   0 9906.47 289.014   4
  -5  15   0 9698.34 243.029   6
  -5  15   0 9668.23 299.846   1
  -5 -15   0 10040.3 306.482   5
   6  15   0 1194.91 138.648   6
   6  15   0 1495.09 142.084   1
  -6 -15   0 1253.11 135.665   2
  -6 -15   0 1399.88 130.148   5
  -6  15   0 1206.31 90.0963   6
  -6  15   0 1411.76 104.961   6
  -6  15   0 1249.62 110.636   1
  -6 -15   0 1241.98 94.8607   4
  -6  15   0 1150.60 117.802   4
  -7  15   0 8190.58 243.117   6
  -7  15   0 7926.32 256.732   1
  -7 -15   0 8733.07 297.466   5
  -7  15   0 8184.85 305.843   4
   7  15   0 8301.72 300.320   1
  -7 -15   0 7861.12 252.818   4
   7  15   0 8511.43 324.681   6
  -7  15   0 8252.94 266.718   6
  -7 -15   0 8677.93 328.839   2
  -8 -15   0 473.384 95.7284   4
   8  15   0 686.755 132.534   6
  -8 -15   0 702.862 127.270   2
   8  15   0 750.241 113.877   1
  -8  15   0 647.354 94.1870   6
  -8 -15   0 639.981 112.728   5
  -8  15   0 620.911 120.131   4
   9  15   0 5911.86 311.506   6
  -9 -15   0 6199.76 260.537   4
  -9  15   0 6071.43 298.087   4
  -9  15   0 6356.00 247.641   6
  -9 -15   0 5640.07 284.568   2
  -9 -15   0 6133.26 270.743   5
 -10 -15   0 4082.80 227.687   4
 -10 -15   0 4085.10 253.965   2
  10  15   0 3801.31 269.868   6
 -10  15   0 4162.78 217.950   6
 -10 -15   0 3863.85 223.517   5
 -10  15   0 3980.78 258.976   4
  11  15   0 297.077 148.093   6
 -11 -15   0 242.742 104.039   4
 -11 -15   0 458.210 119.253   5
 -11  15   0 257.230 128.973   4
 -11 -15   0 305.745 128.230   2
 -11  15   0 279.897 103.285   6
 -12 -15   0 474.580 135.287   2
  12  15   0 545.693 170.215   6
 -12 -15   0 605.194 140.242   4
 -12  15   0 421.632 143.009   4
 -13 -15   0 2717.60 243.819   2
 -13 -15   0 2391.81 224.433   4
   0  16   0 84940.2 1322.60   1
   0  16   0 82872.8 1095.21   6
   0 -16   0 85548.4 1269.14   2
   0 -16   0 83583.4 1092.64   6
  -1  16   0 11479.5 213.302   6
   1  16   0 11979.6 371.414   1
  -1  16   0 12477.9 373.715   1
   1 -16   0 11681.3 215.640   6
  -1 -16   0 11612.3 342.975   2
   1  16   0 11983.1 260.288   6
  -1 -16   0 11760.2 248.315   6
   1 -16   0 12175.3 340.501   2
  -2 -16   0 15134.1 314.040   6
   2  16   0 15333.3 327.709   6
  -2 -16   0 15442.4 404.750   2
  -2  16   0 15229.3 409.237   1
  -2  16   0 14568.8 246.180   6
   2 -16   0 14520.7 248.639   6
   2  16   0 15335.6 427.173   1
   2 -16   0 15482.3 384.593   2
  -2  16   0 14890.4 268.427   4
  -3 -16   0 9113.51 289.709   5
   3  16   0 9227.87 326.391   1
   3  16   0 8699.93 257.899   6
  -3  16   0 9227.98 181.458   6
  -3  16   0 8852.51 301.238   1
  -3 -16   0 8848.07 308.280   2
  -3 -16   0 9081.63 249.010   6
  -3  16   0 9029.07 223.259   4
  -3  16   0 8885.34 185.810   6
  -4  16   0 1446.64 74.6880   6
  -4 -16   0 1287.15 105.787   6
   4  16   0 1546.77 142.362   1
  -4  16   0 1528.57 82.9885   6
   4  16   0 1619.82 129.443   6
  -4  16   0 1554.63 106.008   4
  -4 -16   0 1289.15 122.678   5
  -4  16   0 1634.44 133.972   1
  -4 -16   0 1421.48 63.8557   4
  -4 -16   0 1651.55 151.232   2
   5  16   0 11543.8 371.014   1
  -5 -16   0 11027.8 242.069   4
  -5  16   0 11073.3 308.980   4
  -5  16   0 11160.8 241.906   6
   5  16   0 11336.0 339.704   6
  -5 -16   0 10897.8 329.898   5
  -5 -16   0 9865.61 345.335   2
  -5  16   0 11088.5 260.561   6
  -5  16   0 11244.5 335.432   1
  -6  16   0 115.775 75.8435   4
  -6 -16   0 58.4487 47.5380   4
   6  16   0 136.416 89.5980   6
  -6 -16   0 191.066 88.5638   5
   6  16   0 3.56130 87.8112   1
  -6  16   0 108.474 48.8363   6
  -6  16   0 85.5585 57.8021   6
  -6 -16   0 8.42024 89.7674   2
  -6  16   0 95.2295 67.3583   1
  -7  16   0-23.3694 53.7173   6
  -7 -16   0 211.594 97.8820   5
  -7 -16   0 72.0193 94.9497   2
  -7  16   0 106.235 87.9417   4
   7  16   0-7.23780 95.3737   6
  -7  16   0 93.1744 78.8687   1
   7  16   0 63.2764 80.4016   1
  -7 -16   0-8.46688 53.6414   4
  -7  16   0 28.0911 72.7151   6
   8  16   0 7872.89 300.359   1
  -8  16   0 7836.98 254.823   6
  -8 -16   0 7604.23 325.020   2
  -8 -16   0 8355.86 306.217   5
  -8 -16   0 8484.02 277.864   4
   8  16   0 7693.67 338.847   6
  -8  16   0 7846.85 319.787   4
  -9 -16   0 7858.07 308.357   5
  -9  16   0 7865.38 275.716   6
  -9  16   0 7331.64 330.425   4
  -9 -16   0 7498.75 282.927   4
  -9 -16   0 7620.43 335.570   2
   9  16   0 7695.45 355.347   6
 -10 -16   0 144.145 98.9524   5
 -10 -16   0 56.7828 115.949   2
 -10 -16   0 66.8484 88.4736   4
 -10  16   0 176.646 122.825   4
 -10  16   0 151.697 89.1108   6
  10  16   0 8.83252 113.346   6
 -11 -16   0 2303.73 214.223   2
 -11  16   0 2320.72 182.408   6
  11  16   0 2794.37 249.595   6
 -11 -16   0 2587.33 199.520   5
 -11  16   0 2807.75 248.856   4
 -11 -16   0 2779.26 203.795   4
  12  16   0 29.6597 143.028   6
 -12  16   0 107.114 136.192   4
 -12 -16   0 252.771 105.255   4
 -12 -16   0 247.602 136.172   2
 -13 -16   0 1333.78 196.565   2
   0 -17   0 525.699 54.8902   6
   0  17   0 634.998 129.616   1
   0 -17   0 413.752 105.484   2
   0  17   0 602.820 59.5484   6
  -1  17   0 80821.2 1065.32   6
  -1  17   0 84844.3 1327.27   1
   1 -17   0 82777.3 1068.86   6
   1  17   0 86020.2 1141.37   6
  -1 -17   0 83743.9 1285.77   2
   1 -17   0 82931.9 1267.00   2
  -1 -17   0 83706.7 1120.12   6
   1  17   0 83682.1 1336.14   1
  -2  17   0 13867.1 250.720   4
  -2 -17   0 13514.3 297.635   6
   2  17   0 13949.2 314.366   6
   2 -17   0 13819.1 371.491   2
   2  17   0 14541.2 424.432   1
   2 -17   0 12978.9 231.029   6
  -2  17   0 14462.6 407.015   1
  -2 -17   0 13358.6 385.520   2
  -2  17   0 13138.5 230.172   6
  -3 -17   0 75.0853 84.7145   2
  -3  17   0 269.787 52.4202   4
  -3  17   0 267.871 82.6849   1
   3  17   0 183.173 92.0249   1
  -3  17   0 129.994 30.1291   6
  -3  17   0 116.721 31.2977   6
  -3 -17   0 107.019 54.3333   6
   3  17   0 171.600 67.1207   6
  -4 -17   0 25963.4 596.983   2
   4  17   0 27328.2 617.381   1
   4  17   0 26241.9 535.963   6
  -4  17   0 26329.9 407.321   6
  -4  17   0 26622.1 574.871   1
  -4  17   0 26681.6 488.529   4
  -4 -17   0 26635.3 558.176   5
  -4 -17   0 24584.8 368.500   4
  -4  17   0 25835.7 421.092   6
  -5 -17   0 40295.3 803.677   2
   5  17   0 40895.7 810.648   1
  -5  17   0 39900.5 601.943   6
  -5  17   0 39800.1 623.531   6
  -5  17   0 40959.9 759.853   1
   5  17   0 39464.1 749.761   6
  -5  17   0 40830.6 708.911   4
  -5 -17   0 39623.2 747.221   5
  -5 -17   0 39502.7 591.104   4
  -6 -17   0 4854.64 252.220   2
  -6  17   0 5517.74 230.497   4
   6  17   0 5559.51 259.501   6
  -6  17   0 5338.38 170.792   6
   6  17   0 5296.60 257.870   1
  -6 -17   0 5509.58 177.961   4
  -6  17   0 5118.06 185.972   6
  -6  17   0 5081.25 225.404   1
  -6 -17   0 5399.50 242.725   5
  -7  17   0 25863.1 552.254   1
  -7  17   0 25654.6 588.541   4
  -7 -17   0 26617.7 510.235   4
  -7 -17   0 26170.1 635.694   2
   7  17   0 27579.7 625.010   1
  -7 -17   0 25965.7 586.721   5
   7  17   0 27497.0 641.948   6
  -7  17   0 26310.4 489.525   6
  -8 -17   0 5189.66 251.284   5
   8  17   0 4594.93 239.853   1
  -8 -17   0 4805.92 266.988   2
   8  17   0 4999.98 278.268   6
  -8 -17   0 4965.31 209.058   4
  -8  17   0 4621.04 192.072   6
  -8  17   0 4641.09 250.498   4
  -9  17   0 18254.0 435.726   6
  -9 -17   0 18728.6 465.440   4
  -9 -17   0 18138.1 493.695   5
   9  17   0 18879.9 573.669   6
  -9 -17   0 18941.3 551.818   2
  -9  17   0 18108.1 533.079   4
 -10 -17   0 17165.2 491.146   5
  10  17   0 16796.5 562.950   6
 -10 -17   0 17069.8 470.846   4
 -10 -17   0 17613.5 545.065   2
 -10  17   0 17676.8 551.489   4
 -10  17   0 18423.2 457.457   6
 -11 -17   0 1348.45 185.159   2
 -11  17   0 1563.32 198.804   4
 -11 -17   0 1460.20 163.162   5
  11  17   0 1434.02 211.322   6
 -12  17   0 8651.09 430.326   4
  12  17   0 10466.2 476.803   6
 -12 -17   0 9923.44 428.979   2
 -13 -17   0 4577.09 311.813   2
   0  18   0 60014.0 826.204   6
   0  18   0 58713.7 1049.35   1
   0 -18   0 59787.4 1007.23   2
   0 -18   0 59613.2 819.789   6
   1 -18   0 4525.13 123.954   6
  -1 -18   0 4479.13 148.622   6
   1 -18   0 4762.96 223.872   2
  -1 -18   0 4954.74 233.758   2
   1  18   0 4994.69 254.134   1
   1  18   0 5089.22 165.813   6
  -1  18   0 4692.12 242.771   1
  -1  18   0 4763.73 124.953   6
   2  18   0 33811.6 570.151   6
  -2 -18   0 33667.0 679.760   2
   2 -18   0 30841.7 456.801   6
   2 -18   0 33796.9 656.185   2
  -2 -18   0 33422.0 548.972   6
  -2  18   0 33636.8 692.934   1
   2  18   0 33206.2 709.366   1
  -2  18   0 31250.4 453.039   6
  -3 -18   0 28289.5 518.074   6
   3  18   0 28323.6 538.888   6
  -3  18   0 27600.0 408.266   6
  -3  18   0 26765.0 415.277   6
  -3  18   0 27973.6 468.041   4
  -3  18   0 28882.0 624.075   1
   3  18   0 30009.5 661.705   1
  -3 -18   0 27329.6 620.329   2
   4  18   0 996.979 140.293   1
  -4  18   0 892.611 64.7332   6
  -4 -18   0 737.770 112.510   5
   4  18   0 800.040 100.860   6
  -4 -18   0 880.977 130.381   2
  -4  18   0 1002.71 60.4271   6
  -4  18   0 932.900 89.0997   4
  -4  18   0 859.443 113.594   1
  -5  18   0 10679.4 303.379   4
  -5  18   0 10893.2 233.377   6
  -5 -18   0 10735.6 381.407   2
  -5  18   0 10540.3 246.318   6
   5  18   0 10647.3 340.501   6
  -5  18   0 11207.6 352.665   1
   5  18   0 11403.8 389.256   1
  -5 -18   0 10518.6 216.655   4
  -5 -18   0 11406.0 353.956   5
  -6 -18   0 28974.2 678.729   2
  -6  18   0 28875.4 601.057   4
   6  18   0 29571.0 653.737   6
   6  18   0 30389.4 680.583   1
  -6  18   0 28886.6 616.882   1
  -6 -18   0 28588.6 622.916   5
  -6  18   0 29771.1 497.443   6
  -6 -18   0 29300.2 495.494   4
  -7  18   0 2359.66 171.982   4
  -7  18   0 2303.62 123.854   6
   7  18   0 2553.82 191.601   6
  -7 -18   0 2301.04 174.497   5
  -7 -18   0 2499.74 203.741   2
  -7 -18   0 2299.71 128.031   4
   7  18   0 2696.52 191.855   1
  -7  18   0 2341.76 160.440   1
  -8 -18   0 12052.5 386.816   5
   8  18   0 12069.4 426.914   6
  -8  18   0 11555.9 392.817   4
  -8 -18   0 10957.8 314.798   4
  -8 -18   0 12232.0 430.820   2
  -8  18   0 11764.0 309.461   6
   8  18   0 11874.8 397.029   1
  -9 -18   0 2213.40 184.076   5
  -9  18   0 2413.32 202.368   4
  -9  18   0 2466.25 151.318   6
  -9 -18   0 2546.86 161.999   4
  -9 -18   0 2291.07 207.788   2
   9  18   0 2529.69 216.409   6
 -10 -18   0 215.261 124.457   2
  10  18   0 82.0219 118.824   6
 -10  18   0 329.155 125.730   4
 -10 -18   0 208.609 111.828   5
 -11  18   0 13360.7 507.253   4
 -11 -18   0 14209.7 512.303   2
  11  18   0 13915.0 533.155   6
 -12  18   0 488.004 150.580   4
 -12 -18   0 379.293 148.540   2
   0  19   0 621.090 65.8858   6
   0 -19   0 553.894 59.0206   6
   0  19   0 564.167 128.183   1
   0 -19   0 509.486 112.488   2
  -1 -19   0 106.150 40.8901   6
   1 -19   0 56.2524 27.1741   6
  -1 -19   0 116.684 94.3373   2
   1 -19   0 113.483 78.6816   2
  -1  19   0 201.213 95.1617   1
  -1  19   0 175.360 35.4281   6
   1  19   0 199.332 56.0148   6
   1  19   0 97.4678 89.3964   1
  -2 -19   0 545.896 70.3888   6
   2  19   0 430.389 80.1039   6
  -2  19   0 475.394 40.4242   6
  -2 -19   0 510.750 114.546   2
   2  19   0 570.407 125.546   1
  -2  19   0 526.614 121.453   1
   2 -19   0 865.852 128.943   2
  -3  19   0-8.64971 26.8462   6
  -3 -19   0-3.90718 90.8788   2
  -3  19   0-55.9903 78.0883   1
  -3 -19   0-68.2824 55.3534   6
  -3  19   0 52.7275 42.9260   4
   3  19   0 29.7886 94.8140   1
   3  19   0 60.0898 68.2658   6
  -3  19   0 23.8617 29.3186   6
  -4 -19   0 154.339 91.9216   2
  -4  19   0 310.233 89.1975   1
  -4  19   0 273.651 63.0473   4
  -4 -19   0 262.191 91.0976   5
  -4  19   0 242.738 40.5252   6
   4  19   0 250.518 79.7310   6
   4  19   0 482.524 113.368   1
  -4  19   0 325.926 39.8056   6
  -5 -19   0 3505.81 228.177   2
   5  19   0 3159.47 187.460   6
  -5  19   0 3310.91 116.073   6
  -5 -19   0 3111.02 96.2850   4
  -5 -19   0 3258.02 196.432   5
  -5  19   0 3387.86 200.042   1
  -5  19   0 3460.42 168.088   4
   5  19   0 3699.69 229.890   1
  -5  19   0 3333.74 127.467   6
  -6  19   0-15.9268 74.9114   1
  -6  19   0-2.64479 48.1487   6
   6  19   0 151.140 96.3251   1
  -6 -19   0 0.11765 93.4197   5
  -6 -19   0-40.0829 44.0545   4
  -6 -19   0 50.7083 105.811   2
   6  19   0-59.1959 88.3383   6
  -6  19   0-94.2062 75.2774   4
  -7  19   0 196.412 86.9122   4
   7  19   0 327.405 98.2110   1
  -7 -19   0 263.095 108.300   5
  -7 -19   0 98.9890 112.218   2
  -7  19   0 277.628 88.1525   1
  -7 -19   0 163.942 55.4905   4
  -7  19   0 257.271 62.9664   6
   7  19   0 263.150 100.031   6
   8  19   0 480.088 114.295   1
  -8 -19   0 514.341 121.224   5
  -8 -19   0 362.250 73.3695   4
   8  19   0 472.248 123.221   6
  -8  19   0 546.509 116.896   4
  -8 -19   0 378.101 124.174   2
   9  19   0 319.315 131.871   6
  -9 -19   0 220.411 113.562   5
  -9 -19   0 346.399 131.289   2
  -9  19   0 142.499 103.825   4
 -10 -19   0 599.089 145.333   2
  10  19   0 840.639 171.122   6
 -10 -19   0 720.213 130.317   5
 -10  19   0 531.960 138.063   4
 -11  19   0 1648.42 199.336   4
 -11 -19   0 1266.44 195.727   2
  11  19   0 1389.10 204.686   6
 -12 -19   0 312.993 155.269   2
 -12  19   0 379.702 145.394   4
   0 -20   0 52759.6 748.424   6
   0  20   0 53865.7 1008.35   1
   0 -20   0 51532.4 950.848   2
   0  20   0 53980.7 761.574   6
  -1  20   0 3797.99 229.094   1
   1  20   0 3854.86 239.049   1
  -1  20   0 3850.98 113.181   6
   1 -20   0 3952.64 216.849   2
  -1 -20   0 3787.10 136.697   6
   1 -20   0 3531.41 109.135   6
   1  20   0 3610.51 143.165   6
  -1 -20   0 3792.46 222.061   2
   2  20   0 42059.8 849.302   1
   2 -20   0 41442.9 782.565   2
  -2  20   0 41820.1 824.958   1
   2 -20   0 36491.8 531.690   6
  -2  20   0 37754.3 531.748   6
   2  20   0 41804.7 669.503   6
  -2 -20   0 41231.4 806.196   2
  -2 -20   0 41459.9 646.767   6
  -3 -20   0 46054.2 888.947   2
  -3  20   0 46369.2 887.107   1
   3  20   0 47332.9 778.855   6
   3  20   0 47794.1 932.067   1
  -3 -20   0 46621.2 748.863   6
  -3  20   0 46113.4 672.724   4
  -3  20   0 42630.8 595.846   6
  -4 -20   0-34.1558 103.323   2
  -4  20   0 144.421 83.3601   1
   4  20   0 290.455 107.334   1
   4  20   0 269.982 85.3744   6
  -4  20   0 144.666 31.1983   6
  -4  20   0 255.462 62.2919   4
  -5 -20   0 6120.56 269.566   5
   5  20   0 5772.38 294.665   1
  -5  20   0 5890.84 268.565   1
  -5  20   0 6073.71 223.027   4
   5  20   0 5735.15 253.991   6
  -5 -20   0 5735.81 287.343   2
  -5  20   0 6057.63 156.247   6
   6  20   0 12119.7 424.470   1
  -6  20   0 12478.2 264.422   6
   6  20   0 11236.3 383.594   6
  -6  20   0 12455.9 391.511   1
  -6 -20   0 12364.6 395.757   5
  -6 -20   0 12512.1 436.289   2
  -6  20   0 11829.6 347.067   4
   7  20   0 1447.02 162.353   6
  -7  20   0 1311.64 139.506   4
   7  20   0 1401.69 174.417   1
  -7  20   0 1493.20 147.937   1
  -7 -20   0 1390.17 170.546   2
  -7 -20   0 1350.55 158.468   5
  -8  20   0 9408.25 352.100   4
   8  20   0 9672.91 387.540   6
  -8 -20   0 9648.40 362.749   5
  -8 -20   0 9920.91 408.760   2
   8  20   0 10227.2 387.766   1
   9  20   0 11410.4 450.790   6
  -9  20   0 12307.0 429.756   4
  -9 -20   0 11484.4 454.635   2
  -9 -20   0 11187.9 400.161   5
 -10 -20   0 712.628 139.965   5
  10  20   0 514.586 150.513   6
 -10  20   0 583.966 147.776   4
 -10 -20   0 363.168 140.260   2
 -11 -20   0 9076.72 424.438   2
 -11  20   0 9015.17 412.876   4
  11  20   0 9171.69 437.467   6
 -12  20   0 2101.15 233.548   4
 -12 -20   0 2856.25 261.275   2
   0 -21   0 539.692 116.208   2
   0  21   0 615.183 135.485   1
   0 -21   0 466.503 54.6730   6
   0  21   0 520.839 59.4863   6
   1 -21   0 20892.0 530.003   2
  -1  21   0 21791.7 574.177   1
   1  21   0 21412.0 401.958   6
  -1 -21   0 20850.6 383.725   6
  -1  21   0 20522.2 338.467   6
   1 -21   0 19757.5 329.758   6
   1  21   0 20934.1 571.450   1
  -1 -21   0 21038.8 541.842   2
  -2 -21   0 36946.6 596.861   6
  -2 -21   0 38387.6 775.505   2
  -2  21   0 38099.3 786.047   1
   2 -21   0 38565.6 750.727   2
   2  21   0 37955.5 623.670   6
   2  21   0 38816.8 813.894   1
   3  21   0 4743.94 199.322   6
  -3  21   0 4914.61 257.726   1
  -3 -21   0 4746.94 190.809   6
  -3  21   0 3924.24 95.2134   6
   3  21   0 4883.30 272.689   1
  -3 -21   0 4795.83 263.159   2
  -4  21   0 31578.3 700.952   1
  -4  21   0 31102.6 535.902   4
  -4 -21   0 31060.2 712.573   2
   4  21   0 32803.3 746.430   1
   4  21   0 31918.0 624.870   6
  -4  21   0 28578.3 422.179   6
   5  21   0 14910.4 426.120   6
  -5  21   0 15296.5 368.599   4
  -5 -21   0 15124.7 482.329   2
   5  21   0 15855.7 502.508   1
  -5  21   0 15223.0 455.647   1
   6  21   0 678.342 117.981   6
  -6 -21   0 455.748 119.110   5
  -6  21   0 539.887 112.808   1
   6  21   0 593.555 130.281   1
  -6 -21   0 728.229 143.871   2
  -6  21   0 603.211 97.5675   4
  -7 -21   0 20053.8 534.652   5
  -7  21   0 19299.7 511.466   1
  -7  21   0 20118.3 502.369   4
  -7 -21   0 19553.7 586.642   2
   7  21   0 19187.1 563.112   1
   7  21   0 19872.0 552.813   6
  -8 -21   0 447.926 118.226   5
  -8 -21   0 598.656 151.023   2
   8  21   0 610.055 137.107   1
   8  21   0 535.724 135.307   6
  -8  21   0 333.335 101.033   4
   9  21   0 4222.73 286.832   6
  -9 -21   0 4795.37 309.657   2
  -9  21   0 4581.12 262.961   4
  -9 -21   0 4626.34 263.946   5
 -10 -21   0 7658.82 385.542   2
  10  21   0 7434.23 386.479   6
 -10 -21   0 7607.26 341.557   5
 -10  21   0 7056.61 348.517   4
  11  21   0 64.5564 126.615   6
 -11  21   0 232.914 136.493   4
 -11 -21   0-5.23116 132.948   2
 -12  21   0 6198.83 367.816   4
   0  22   0 9765.34 385.361   1
   0 -22   0 9468.28 356.737   2
   0 -22   0 9575.01 214.425   6
   0  22   0 9378.26 221.533   6
  -1  22   0 2803.24 97.5096   6
   1 -22   0 2867.48 208.936   2
  -1  22   0 3022.72 221.633   1
  -1 -22   0 2884.70 125.187   6
   1  22   0 3033.09 223.857   1
  -1 -22   0 2937.64 207.363   2
   1  22   0 2768.75 131.401   6
  -2 -22   0 1499.65 105.364   6
   2  22   0 1505.32 175.700   1
  -2  22   0 1901.46 183.896   1
   2 -22   0 1746.28 169.546   2
   2  22   0 1907.53 123.686   6
  -2  22   0 1390.39 57.7897   6
  -2 -22   0 1595.85 175.459   2
   3  22   0 963.266 152.152   1
  -3  22   0 950.338 138.512   1
  -3 -22   0 1008.14 153.363   2
   3  22   0 900.247 101.830   6
  -4 -22   0 1894.11 188.406   2
  -4  22   0 1943.57 174.836   1
  -4  22   0 1860.35 109.374   4
   4  22   0 2030.20 153.559   6
   4  22   0 2184.27 203.115   1
   5  22   0 6066.68 312.909   1
  -5 -22   0 5601.94 301.080   2
  -5  22   0 5460.44 207.972   4
  -5  22   0 5366.95 270.580   1
   5  22   0 5653.95 255.269   6
  -6  22   0 4137.02 238.374   1
   6  22   0 4625.60 246.562   6
  -6  22   0 4466.27 207.131   4
  -6 -22   0 4422.46 250.026   5
  -6 -22   0 3929.57 263.279   2
   6  22   0 4718.20 279.777   1
  -7 -22   0 114.664 119.188   2
   7  22   0 292.522 111.792   6
  -7 -22   0 21.1102 109.961   5
  -7  22   0 267.155 92.4094   4
  -7  22   0 179.541 90.1252   1
   7  22   0 223.655 112.735   1
  -8  22   0 4543.07 246.235   4
   8  22   0 4160.15 262.289   1
  -8 -22   0 4256.47 253.152   5
   8  22   0 3944.42 261.251   6
  -8 -22   0 4115.00 289.422   2
  -9 -22   0 752.377 166.512   2
  -9  22   0 843.946 147.730   4
  -9 -22   0 815.863 142.458   5
   9  22   0 793.897 152.979   6
  10  22   0-11.8123 127.630   6
 -10  22   0 202.030 124.932   4
 -11  22   0 382.532 138.529   4
 -11 -22   0 302.481 146.755   2
  11  22   0 368.682 149.630   6
   0  23   0 309.514 54.5225   6
   0 -23   0 305.964 122.404   2
   0  23   0 411.899 129.753   1
   1 -23   0 15612.3 469.768   2
  -1 -23   0 15923.4 485.610   2
   1  23   0 16601.3 339.439   6
   1  23   0 15752.6 508.716   1
  -1  23   0 16217.5 510.125   1
  -1  23   0 14197.2 261.976   6
  -2 -23   0 3038.87 225.262   2
  -2  23   0 3433.82 238.699   1
   2  23   0 3207.32 238.942   1
   2 -23   0 3529.09 230.324   2
   2  23   0 3049.69 155.303   6
   3  23   0 2384.65 152.662   6
  -3 -23   0 2647.08 212.408   2
  -3  23   0 2516.04 201.285   1
   3  23   0 2140.04 210.292   1
   4  23   0 685.670 106.560   6
  -4 -23   0 539.354 131.869   2
  -4  23   0 846.224 136.121   1
   4  23   0 1021.41 161.106   1
  -5  23   0 3815.78 235.982   1
  -5  23   0 3983.40 177.395   4
  -5 -23   0 4182.30 271.597   2
   5  23   0 4124.93 222.111   6
   5  23   0 3830.59 264.360   1
  -6 -23   0 942.910 159.720   2
   6  23   0 1325.76 176.846   1
  -6  23   0 878.424 128.830   1
  -6  23   0 1294.06 122.921   4
   6  23   0 1395.45 156.636   6
  -7  23   0 4711.15 231.335   4
   7  23   0 4703.73 291.351   1
  -7 -23   0 4434.98 293.185   2
  -7 -23   0 4607.72 265.632   5
   7  23   0 4631.12 264.087   6
  -8 -23   0 206.271 127.055   5
  -8  23   0-12.9426 91.0117   4
   8  23   0 107.281 121.599   6
  -8 -23   0 32.7226 147.353   2
   9  23   0-27.4666 126.129   6
  -9 -23   0 139.504 118.498   5
  -9 -23   0 370.154 153.502   2
  -9  23   0 172.484 106.560   4
 -10  23   0 3178.38 245.280   4
  10  23   0 3667.86 282.128   6
 -10 -23   0 3381.61 278.712   2
   0  24   0 40204.3 884.843   1
   0 -24   0 40961.6 846.990   2
   0  24   0 36132.4 571.125   6
   1  24   0 5879.33 323.395   1
  -1  24   0 5767.05 310.593   1
   1  24   0 5343.07 182.283   6
  -1 -24   0 5615.69 298.987   2
   1 -24   0 6375.68 307.855   2
   2  24   0 22102.2 456.097   6
   2  24   0 22351.8 641.051   1
  -2 -24   0 21233.9 597.053   2
  -2  24   0 21803.7 619.331   1
   2 -24   0 22120.9 588.880   2
   3  24   0 31059.7 783.419   1
  -3 -24   0 31288.9 755.918   2
   3  24   0 30936.6 609.871   6
  -3  24   0 30543.1 748.411   1
  -4 -24   0 413.280 122.403   2
   4  24   0 448.113 99.3477   6
   4  24   0 623.888 152.503   1
  -4  24   0 445.444 103.555   1
  -5 -24   0 20848.8 622.703   2
   5  24   0 21963.3 640.072   1
  -5  24   0 20194.0 577.421   1
   5  24   0 22166.1 543.419   6
  -6 -24   0 16858.7 559.437   2
   6  24   0 17197.0 497.805   6
  -6  24   0 17009.0 516.535   1
   6  24   0 17657.3 571.008   1
  -7 -24   0 61.5343 140.474   2
   7  24   0 167.256 111.319   1
   7  24   0 199.600 108.238   6
  -8 -24   0 13244.1 511.631   2
   8  24   0 12603.0 465.310   6
   9  24   0 9357.35 416.949   6
  -9 -24   0 9109.45 437.111   2
  -9 -24   0 9394.77 392.125   5
  10  24   0 402.945 149.828   6
   0  25   0 383.937 129.135   1
   0 -25   0 386.280 131.351   2
  -1 -25   0 17925.5 547.523   2
   1  25   0 17143.4 564.734   1
  -1  25   0 17420.3 556.613   1
   1 -25   0 17157.8 527.754   2
   2 -25   0 10649.1 403.374   2
  -2 -25   0 11089.4 430.875   2
   2  25   0 10930.0 446.547   1
  -2  25   0 10526.0 427.125   1
   2  25   0 10747.9 296.808   6
  -3 -25   0 198.072 134.978   2
  -3  25   0 261.587 126.518   1
   3  25   0 290.438 131.824   1
   3  25   0 153.989 87.5361   6
   4  25   0 15621.2 423.884   6
  -4 -25   0 15549.8 525.324   2
  -4  25   0 15082.9 502.246   1
   4  25   0 15357.8 542.581   1
  -5  25   0 1560.93 171.458   1
   5  25   0 1626.45 157.395   6
   5  25   0 1418.88 189.174   1
  -5 -25   0 1080.99 177.656   2
   6  25   0 6000.43 341.828   1
  -6 -25   0 6150.99 348.944   2
  -6  25   0 5886.05 302.146   1
   6  25   0 5980.61 290.857   6
   7  25   0 3995.23 254.737   6
   7  25   0 3297.22 263.276   1
  -7 -25   0 2648.57 248.626   2
  -8 -25   0 1835.23 215.582   2
   8  25   0 2191.54 217.595   6
   9  25   0 3316.24 270.185   6
  -9 -25   0 4098.97 306.795   2
  10  25   0 2039.53 224.353   6
   0  26   0 437.915 138.320   1
   0 -26   0 68.3675 124.899   2
   1 -26   0 870.099 160.364   2
   1  26   0 672.397 165.132   1
  -1  26   0 692.337 157.284   1
  -1 -26   0 430.898 135.660   2
   2  26   0 772.145 164.123   1
  -2 -26   0 847.617 165.895   2
   2 -26   0 548.962 141.277   2
  -2  26   0 966.873 167.543   1
   3  26   0 62.5740 121.475   1
  -3 -26   0 64.0579 121.055   2
  -3  26   0 71.2420 102.318   1
  -4  26   0 12.2645 98.9436   1
   4  26   0 9.47359 78.4583   6
   4  26   0 199.220 130.074   1
  -4 -26   0 76.2837 147.019   2
   5  26   0 130.582 110.825   1
  -5 -26   0 100.462 119.196   2
   5  26   0 110.644 91.1735   6
  -5  26   0-9.20590 100.557   1
   6  26   0 183.981 101.088   6
  -6  26   0-143.830 116.015   1
  -6 -26   0 254.785 145.883   2
   6  26   0 232.228 142.506   1
   7  26   0-69.9054 119.009   6
  -7 -26   0-4.86630 131.386   2
   7  26   0 260.154 133.320   1
   8  26   0-85.9897 128.663   6
  -8 -26   0 127.712 131.860   2
   9  26   0-44.1363 129.753   6
   0 -27   0 21.5498 120.116   2
   0  27   0 87.9610 129.623   1
  -1 -27   0 11386.4 448.416   2
  -1  27   0 11125.5 464.397   1
   1  27   0 10982.2 464.832   1
   1 -27   0 10934.1 436.715   2
  -2 -27   0 11587.0 462.612   2
   2 -27   0 11492.7 444.710   2
  -2  27   0 12525.8 480.911   1
   2  27   0 11604.3 480.290   1
  -3 -27   0-62.4561 129.949   2
  -3  27   0 185.359 122.275   1
   3  27   0 361.237 153.343   1
  -4  27   0 5393.44 311.795   1
  -4 -27   0 5555.37 328.982   2
   4  27   0 5385.16 333.265   1
  -5  27   0 2710.55 225.642   1
  -5 -27   0 2833.94 262.646   2
   5  27   0 2485.44 242.643   1
  -6  27   0 2489.44 219.632   1
   6  27   0 2779.41 256.044   1
  -6 -27   0 3135.48 265.464   2
   7  27   0 9812.33 450.144   1
  -7 -27   0 9333.73 445.113   2
   0 -28   0 15102.0 532.586   2
   0  28   0 15702.7 562.411   1
  -1 -28   0 410.305 146.869   2
  -1  28   0 386.478 145.694   1
   1  28   0 85.0729 126.808   1
   1 -28   0 399.264 152.438   2
  -2  28   0 13032.9 504.774   1
  -2 -28   0 12624.8 495.702   2
   2  28   0 12800.4 515.622   1
  -3 -28   0 15181.8 555.495   2
   3  28   0 15573.7 573.486   1
  -3  28   0 15640.1 551.081   1
  -4  28   0 1656.89 192.795   1
   4  28   0 1836.48 227.693   1
  -4 -28   0 1508.07 202.111   2
  -5  28   0 7263.71 370.233   1
  -5 -28   0 7565.46 402.794   2
   5  28   0 7691.60 405.630   1
  -6 -28   0 8051.90 423.228   2
   6  28   0 8729.10 438.008   1
   0  29   0 86.8335 123.688   1
   0 -29   0 50.5002 129.836   2
  -1 -29   0 617.273 161.250   2
   1  29   0 1080.37 180.643   1
   1 -29   0 910.526 170.628   2
  -1  29   0 791.077 177.162   1
  -2  29   0 1166.69 197.026   1
   2  29   0 639.690 169.371   1
  -2 -29   0 887.838 179.380   2
  -3  29   0 677.136 165.330   1
   3  29   0 422.035 156.689   1
  -3 -29   0 769.289 175.585   2
   4  29   0 975.031 185.224   1
  -4 -29   0 1115.99 189.165   2
  -4  29   0 1007.21 167.747   1
   5  29   0 642.583 174.215   1
  -5  29   0 1055.66 165.904   1
  -5 -29   0 873.808 183.778   2
   6  29   0 511.419 163.931   1
   0  30   0 13400.2 544.315   1
   0 -30   0 13480.2 523.659   2
   1  30   0 313.621 155.267   1
   1 -30   0 63.7056 134.807   2
  -1 -30   0 203.758 159.310   2
  -1  30   0 315.838 143.549   1
   2  30   0 4052.60 318.879   1
  -2 -30   0 3528.86 289.889   2
  -2  30   0 3715.68 295.298   1
  -3 -30   0 5929.13 366.378   2
   3  30   0 5497.62 356.454   1
  -3  30   0 5595.51 349.118   1
  -4  30   0 26.1056 113.872   1
   4  30   0 437.074 166.436   1
  -4 -30   0 203.164 157.210   2
   5  30   0 5359.38 360.865   1
  -5  30   0 5921.75 342.690   1
   0  31   0 330.299 153.321   1
   0 -31   0 106.486 141.708   2
  -1 -31   0 7142.72 400.929   2
   1  31   0 7141.31 408.308   1
  -1  31   0 7114.88 403.292   1
   1 -31   0 7469.33 397.294   2
  -2  31   0 10411.5 488.114   1
  -2 -31   0 11149.2 499.361   2
   2  31   0 11473.6 519.779   1
  -3  31   0 1200.26 206.651   1
   3  31   0 768.397 184.641   1
  -4  31   0 16614.1 604.847   1
   1 -32   0 219.620 157.320   2
  14   0  -1 291.874 155.202   6
 -14   0   1 181.697 145.682   4
  13   0  -1-142.571 151.685   6
  12   0  -1 161.046 124.355   6
  11   0  -1 27.6683 110.469   6
  10   0  -1-44.8183 96.2763   6
   9   0  -1-102.283 89.2784   6
   8   0  -1 36.6146 82.5411   6
   7   0  -1 27.2290 73.5062   6
  -6   0   1 40.9056 62.6997   6
   6   0  -1 84.9634 73.5288   6
  -5   0   1 8.39955 62.4137   6
   5   0  -1 62.6969 61.3730   6
  -5   0   1-6.77302 16.2680   1
   4   0  -1 1.13924 62.2302   6
  -4   0   1 21.9554 52.7956   6
  -3   0   1 111.295 50.7591   6
   3   0  -1 65.3589 60.4233   6
  -2   0   1-20.6795 34.5158   6
   2   0  -1 94.7228 42.4374   6
  -2   0  -1 161.067 47.4357   6
  -2   0  -1 99.5117 54.3762   4
  -2   0  -1-10.9385 52.3866   6
   3   0   1 127.898 66.1772   6
  -3   0  -1-18.9401 50.9813   6
  -3   0  -1-8.02828 66.8166   4
  -4   0  -1 312.064 79.4007   4
  -4   0  -1 67.3515 65.7241   6
   4   0   1 187.400 71.7210   6
  -5   0  -1 58.7701 68.1478   6
   5   0   1 27.2623 70.4549   6
   6   0   1 133.315 87.9391   6
  -7   0  -1 102.914 80.2247   4
   7   0   1 3.99013 79.5664   6
  -8   0  -1 462.261 121.182   4
   8   0   1 181.091 100.339   6
   9   0   1-94.0571 96.3566   6
  -9   0  -1 149.348 105.289   4
 -10   0  -1 71.5129 114.798   4
 -11   0  -1 280.957 145.623   4
 -11   0  -1 334.692 139.203   6
  11   0   1 104.442 85.8569   3
 -12   0  -1-89.9915 122.668   4
 -12   0  -1-50.0710 110.920   6
 -13   0  -1 138.132 140.013   6
 -13   0  -1 18.9354 135.176   4
 -14  -1   1 9341.54 456.522   4
  14   1  -1 10255.4 465.345   6
  14  -1  -1 9410.70 389.519   3
 -14   1   1 9414.56 456.581   4
  13   1  -1 2019.26 221.566   6
  13  -1  -1 1817.33 182.057   3
  13  -1  -1 2043.34 223.740   6
  12   1  -1 9543.27 407.479   6
  12  -1  -1 9365.12 402.516   6
  11   1  -1 11366.0 416.758   6
  11  -1  -1 11137.2 412.202   6
  10   1  -1 8377.71 343.349   6
  10  -1  -1 8402.86 334.768   6
   9  -1  -1 1441.10 143.276   6
   9   1  -1 1198.75 141.734   6
   8   1  -1 28427.2 613.886   6
   8  -1  -1 29718.0 612.563   6
   7   1  -1 1363.33 125.954   6
   7  -1  -1 1341.90 118.472   6
   6  -1  -1 84155.9 1169.77   6
   6   1  -1 83947.3 1176.01   6
  -6   1   1 84900.2 1172.56   6
  -6  -1   1 85897.1 1186.18   6
  -5  -1   1 28524.2 500.259   6
   5   1  -1 27615.1 500.422   6
   5  -1  -1 26860.1 485.604   6
  -5  -1   1 25931.0 365.716   1
  -5   1   1 28132.7 490.948   6
  -4  -1   1 22522.3 405.399   6
  -4   1   1 23804.1 402.464   6
   4  -1  -1 22388.2 399.053   6
   4   1  -1 21752.0 406.970   6
   3  -1  -1 258289. 3143.53   6
  -3   1   1 259848. 3141.82   6
   3   1  -1 257573. 3152.93   6
  -3  -1   1 259389. 3151.72   6
  -2   1   1 287518. 3413.23   6
   2   1  -1 284522. 3426.99   6
  -2  -1   1 284209. 3426.42   6
   2  -1  -1 286584. 3414.30   6
  -1  -1  -1 39484.7 529.508   6
  -1  -1  -1 39431.9 524.902   4
  -1  -1  -1 38941.9 493.227   2
   1   1   1 39087.5 528.910   6
   1   1   1 39714.0 494.052   2
   1   1   1 39252.9 525.789   4
  -2  -1  -1 2366.91 65.0064   2
  -2   1  -1 2463.22 95.5191   6
   2  -1   1 2392.18 63.5025   3
  -2  -1  -1 2604.60 100.236   4
  -2   1  -1 2392.74 97.0297   6
  -2   1  -1 2408.74 101.662   4
  -2  -1  -1 2622.05 98.6383   6
   2   1   1 2292.05 98.2613   6
  -3  -1  -1 32169.4 512.977   6
  -3   1  -1 31870.4 521.954   4
   3   1   1 31236.0 511.445   6
  -3   1  -1 32685.5 509.254   6
  -3   1  -1 30346.8 501.398   6
  -3  -1  -1 31149.4 513.464   4
  -4   1  -1 22571.0 420.147   6
  -4   1  -1 20196.9 424.300   4
  -4  -1  -1 20286.8 418.633   4
   4   1   1 22321.0 423.610   6
  -4  -1  -1 22645.4 427.914   6
   4  -1   1 22698.5 419.018   6
   5  -1   1 58098.2 912.076   6
  -5   1  -1 61305.5 926.629   6
   5   1   1 57866.1 918.533   6
  -5  -1  -1 60611.7 924.744   6
   6  -1   1 79487.4 1205.60   6
   6   1   1 81030.7 1219.18   6
  -6   1  -1 81288.3 1215.01   6
   7  -1   1 331.928 94.6471   6
  -7  -1  -1 338.474 99.4184   4
   7   1   1 200.347 91.1319   6
  -7   1  -1 329.162 100.499   4
   8   1   1 56935.2 1009.75   6
  -8   1  -1 58656.8 1043.42   4
  -8  -1  -1 58468.1 1036.40   4
   9  -1   1 546.738 84.7915   3
  -9   1  -1 559.814 127.744   4
  -9  -1  -1 786.315 139.255   4
   9   1   1 491.041 106.489   6
 -10   1  -1 357.723 138.348   4
 -10   1  -1 321.399 118.194   6
 -10  -1  -1 502.363 145.931   4
  10  -1   1 443.076 92.8469   3
 -11   1  -1 31381.3 782.721   4
  11  -1   1 31566.1 629.876   3
 -11   1  -1 31052.9 749.290   6
 -11  -1  -1 31013.5 774.468   4
 -11  -1  -1 30966.8 756.884   6
  12  -1   1 17.5526 80.5061   3
 -12  -1  -1 191.022 126.044   6
 -12   1  -1 16.5912 117.252   4
 -12  -1  -1 206.736 132.921   4
 -12   1  -1 108.407 121.358   6
 -13  -1  -1 3714.38 287.923   4
 -13   1  -1 4366.31 315.992   4
 -13  -1  -1 4346.47 300.875   6
 -13   1  -1 4033.90 290.167   6
 -14  -2   1 288.070 150.964   4
 -14   2   1 182.096 144.476   4
  14   2  -1 203.635 154.902   6
  14  -2  -1-9.91144 128.141   3
  13  -2  -1 12756.9 489.095   6
  13   2  -1 12494.2 495.900   6
  13  -2  -1 14003.0 455.971   3
  12  -2  -1 5185.54 295.386   6
  12   2  -1 5374.80 310.954   6
  11   2  -1 2416.88 205.082   6
  11  -2  -1 2368.39 196.744   6
  10  -2  -1 37239.1 778.981   6
  10   2  -1 37640.0 805.208   6
   9   2  -1 4122.67 230.169   6
   9  -2  -1 4357.61 223.478   6
   8   2  -1 3931.13 207.651   6
   8  -2  -1 4002.02 207.224   6
   7  -2  -1 42226.2 744.652   6
   7   2  -1 43399.9 770.768   6
  -6  -2   1 3509.26 93.6715   1
  -6   2   1 3878.25 169.464   6
  -6  -2   1 3840.25 170.872   6
   6   2  -1 3927.90 180.858   6
   6  -2  -1 3624.63 166.764   6
  -5   2   1 99306.9 1351.21   6
   5  -2  -1 99514.2 1346.66   6
   5   2  -1 98007.4 1364.73   6
  -5  -2   1 98051.6 1227.18   1
  -5  -2   1 99231.0 1365.99   6
  -4  -2   1 159654. 2002.57   6
   4   2  -1 156030. 2001.44   6
   4  -2  -1 155497. 1977.71   6
  -4  -2   1 154275. 1899.40   1
  -4   2   1 157923. 1980.42   6
   3   2  -1 337870. 4107.50   6
  -3   2   1 342490. 4085.98   6
  -3  -2   1 343254. 4107.55   6
   3  -2  -1 336533. 4087.50   6
   2   2  -1 360311. 4292.86   6
  -2   2   1 363769. 4265.52   6
  -2  -2   1 354474. 4292.35   6
   2  -2  -1 356950. 4265.70   6
  -1  -2  -1 244148. 2917.34   4
   1  -2   1 245033. 2927.34   6
  -1  -2  -1 245089. 2927.67   6
  -1   2  -1 243679. 2925.69   6
   1  -2   1 244328. 2929.91   4
   1   2   1 244860. 2917.46   4
   1   2   1 240386. 2905.63   2
  -1  -2  -1 246428. 2927.17   6
  -1   2  -1 242095. 2929.41   4
   2  -2   1 15255.8 238.903   3
  -2  -2  -1 16431.7 287.613   6
  -2   2  -1 15317.8 274.475   6
   2   2   1 15767.1 285.978   6
  -2   2  -1 15900.3 240.830   3
  -2  -2  -1 15652.2 278.046   4
   2  -2   1 15729.8 275.587   6
  -2  -2  -1 16115.0 246.097   2
  -2   2  -1 15834.2 287.933   4
  -3   2  -1 19189.0 347.317   6
  -3  -2  -1 18816.2 357.411   4
  -3  -2  -1 19203.0 361.772   6
   3  -2   1 19449.8 299.966   3
  -3   2  -1 19159.0 346.751   6
   3   2   1 19124.0 361.047   6
  -3  -2  -1 19082.3 300.102   2
  -3   2  -1 18740.5 367.615   4
   4  -2   1 75583.3 977.235   3
  -4   2  -1 76379.6 1048.51   6
  -4   2  -1 70978.8 1072.02   4
  -4  -2  -1 70279.1 1058.61   4
  -4   2  -1 77465.2 1058.81   6
   4  -2   1 72793.0 912.107   1
  -4  -2  -1 76729.9 1067.05   6
   4   2   1 76195.2 1070.17   6
   5  -2   1 20873.6 363.378   3
  -5   2  -1 21479.3 438.059   6
   5   2   1 20605.2 315.439   1
   5   2   1 20353.1 440.306   6
  -5  -2  -1 21855.5 446.831   6
   6   2   1 53539.9 707.635   1
   6   2   1 59233.3 933.661   6
  -6   2  -1 60255.6 928.243   6
   6  -2   1 60004.4 824.133   3
  -7   2  -1 35302.5 708.682   4
  -7  -2  -1 35468.8 703.286   4
   7   2   1 33644.7 681.661   6
   7  -2   1 33988.7 577.765   3
   8  -2   1 452.310 80.0844   3
   8   2   1 293.895 109.289   6
  -8   2  -1 427.648 119.391   4
  -8  -2  -1 627.409 124.588   4
  -9  -2  -1 14379.2 450.366   4
  -9   2  -1 13992.0 424.206   6
   9  -2   1 14310.6 354.350   3
  -9   2  -1 13852.8 450.932   4
   9   2   1 13937.3 439.679   6
  10   2   1 34634.0 788.346   6
 -10  -2  -1 36158.6 812.434   4
 -10   2  -1 36513.3 785.634   6
 -10   2  -1 36139.6 825.908   4
  10  -2   1 36347.7 673.834   3
  11  -2   1 115.795 90.0691   3
 -11   2  -1 454.577 144.286   4
 -11   2  -1 390.118 139.280   6
 -11  -2  -1 402.088 138.378   4
  12  -2   1 12681.1 379.427   3
 -12   2  -1 11920.6 478.447   4
 -12  -2  -1 12668.9 489.291   4
 -12  -2  -1 11967.8 470.246   6
 -12   2  -1 12922.6 476.162   6
 -13   2  -1 2356.82 247.285   4
 -13   2  -1 2615.84 237.260   6
 -13  -2  -1 2831.14 254.032   6
 -13  -2  -1 2364.28 242.901   4
 -14   2  -1 167.467 142.410   6
 -14   3   1 3063.96 261.386   6
  14   3  -1 2870.48 264.242   6
  14  -3  -1 3231.57 238.635   3
 -14  -3   1 2499.18 254.311   4
 -14   3   1 2421.94 250.991   4
  13   3  -1 3581.34 280.186   6
  13  -3  -1 3594.70 243.308   3
  12  -3  -1 3146.22 217.774   3
  12  -3  -1 3232.91 241.794   6
  12   3  -1 3100.77 239.960   6
  11   3  -1 935.423 151.880   6
  11  -3  -1 826.704 143.777   6
  10  -3  -1 159.181 93.8737   6
  10   3  -1 238.946 115.901   6
   9  -3  -1 10366.4 343.965   6
   9   3  -1 10359.7 364.290   6
   8  -3  -1 17862.4 441.616   6
   8   3  -1 17826.1 462.314   6
  -7   3   1 1777.29 132.838   6
   7  -3  -1 1465.88 122.930   6
   7   3  -1 1799.38 141.497   6
  -6  -3   1 4009.24 177.465   6
   6   3  -1 3993.51 181.160   6
   6  -3  -1 3620.79 161.721   6
  -6   3   1 3869.59 166.393   6
   5   3  -1 93746.4 1327.80   6
  -5   3   1 95446.7 1303.57   6
  -5  -3   1 96008.1 1208.84   1
   5  -3  -1 95499.6 1300.24   6
  -5  -3   1 93730.3 1330.48   6
   4   3  -1 5858.96 188.032   6
  -4  -3   1 5581.31 134.589   1
  -4  -3   1 6423.22 186.291   6
  -4   3   1 6085.41 169.799   6
   4  -3  -1 6227.82 172.611   6
  -3  -3   1 52550.4 699.804   1
  -3   3   1 53627.2 716.308   6
   3   3  -1 52701.8 744.778   6
  -3  -3   1 54018.1 743.190   6
   3  -3  -1 50957.4 712.744   6
   2   3  -1 107539. 1373.99   6
  -2  -3   1 109188. 1374.47   6
  -2   3   1 110371. 1334.78   6
   2  -3  -1 110256. 1339.15   6
  -2  -3   1 107555. 1359.15   1
  -1  -3   1 14270.1 226.327   6
  -1   3   1 14021.2 225.511   5
   1  -3  -1 14340.6 226.630   5
   1   3  -1 12810.5 225.885   6
   1  -3  -1 14282.3 233.038   3
   0  -3  -1 109223. 1331.89   6
   0  -3  -1 112616. 1366.93   2
   0  -3   1 112304. 1357.74   6
   0   3   1 110264. 1332.71   6
   0   3  -1 111279. 1356.69   6
   0   3   1 111165. 1365.64   2
  -1  -3  -1 16245.8 259.424   6
  -1   3  -1 16203.7 257.889   6
  -1  -3  -1 16241.4 256.405   2
   1  -3   1 16121.6 227.234   2
   1   3   1 16510.0 260.932   6
  -1   3  -1 16311.7 229.786   2
   1  -3   1 16488.9 259.272   6
  -1   3  -1 16470.9 261.653   4
   1  -3   1 16259.3 261.742   4
  -1  -3  -1 15930.6 245.790   4
   1   3   1 16465.2 256.907   2
   1   3   1 16386.2 247.173   4
  -2   3  -1 65.2043 38.2311   3
  -2  -3  -1 71.9070 47.6835   4
  -2  -3  -1 24.4617 37.4638   2
  -2   3  -1 47.5524 22.2377   2
   2   3   1 85.8463 59.7163   6
   2  -3   1 203.008 46.5843   6
  -2   3  -1 4.94090 52.4758   4
  -2  -3  -1 244.382 52.4334   6
  -2   3  -1 34.3486 48.7921   6
  -3   3  -1 27204.8 443.844   6
   3   3   1 27026.9 463.652   6
  -3  -3  -1 27739.8 410.206   2
  -3  -3  -1 27654.0 461.037   6
  -3   3  -1 26906.2 445.447   6
   3  -3   1 26017.9 402.507   3
  -3  -3  -1 27172.9 452.028   4
  -3   3  -1 26870.1 468.757   4
   3  -3   1 26562.6 377.190   1
  -4  -3  -1 666.514 86.0801   4
  -4   3  -1 729.074 81.8646   6
   4   3   1 668.860 92.6908   6
   4  -3   1 699.371 38.5319   1
   4  -3   1 666.992 59.8734   3
  -4  -3  -1 761.722 85.5688   6
  -4   3  -1 629.279 75.8070   6
  -4   3  -1 505.448 85.0632   4
   5  -3   1 44210.9 650.204   3
   5  -3   1 41918.0 560.315   1
  -5   3  -1 42415.2 745.721   4
  -5  -3  -1 44850.9 742.395   6
  -5   3  -1 44238.9 713.664   6
  -5   3  -1 45328.2 728.558   6
   5   3   1 45981.1 612.281   1
   5   3   1 43047.3 735.557   6
   6   3   1 15585.8 256.533   1
  -6   3  -1 15586.3 374.849   6
   6  -3   1 15295.5 319.276   3
  -6   3  -1 16142.3 388.901   6
  -6  -3  -1 15935.9 399.137   4
   6   3   1 15507.1 397.575   6
  -6   3  -1 15975.2 410.380   4
  -7   3  -1 13514.2 396.784   4
   7  -3   1 12423.8 302.652   3
  -7   3  -1 13199.5 360.586   6
  -7  -3  -1 13612.7 388.240   4
   7   3   1 13126.4 382.083   6
  -8   3  -1 13065.5 384.084   6
  -8   3  -1 13829.1 425.690   4
   8  -3   1 13433.5 326.695   3
  -8  -3  -1 13794.9 414.019   4
   8   3   1 13019.8 402.643   6
  -9   3  -1 407.712 128.409   4
   9  -3   1 194.777 69.6114   3
   9   3   1 256.462 107.343   6
  -9   3  -1 236.472 99.6427   6
  -9  -3  -1 268.803 109.134   4
 -10  -3  -1 895.561 151.213   4
 -10   3  -1 1074.30 148.246   6
 -10   3  -1 949.987 161.282   4
  10   3   1 1003.92 155.400   6
  10  -3   1 981.415 114.843   3
  11  -3   1 2335.16 160.533   3
 -11  -3  -1 2499.01 155.678   2
 -11   3  -1 2485.43 206.738   6
 -11   3  -1 2433.95 216.673   4
 -11  -3  -1 2448.33 220.587   4
  12  -3   1 2727.42 179.835   3
 -12   3  -1 2117.86 212.173   6
 -12  -3  -1 2616.77 236.860   4
 -12  -3  -1 2399.64 232.263   6
 -12   3  -1 2775.94 251.781   4
 -13  -3  -1 1805.21 219.129   6
 -13   3  -1 2161.79 232.306   6
 -13   3  -1 1584.48 215.957   4
 -13  -3  -1 1822.33 218.818   4
 -14   3  -1 279.732 153.882   6
 -14   4   1 5.07810 127.897   4
 -14  -4   1 173.610 145.907   4
  14   4  -1 3.42821 141.780   6
 -14   4   1 306.879 138.581   6
  14  -4  -1 125.793 127.386   3
  13  -4  -1 3435.41 236.295   3
  13   4  -1 2920.26 259.447   6
  12  -4  -1 1997.72 206.117   6
  12   4  -1 2016.39 206.330   6
  12  -4  -1 2016.40 178.632   3
  11   4  -1 45.6945 108.445   6
  11  -4  -1 25.8726 91.7365   3
  11  -4  -1 95.6197 104.506   6
  10   4  -1 13587.9 445.933   6
  10  -4  -1 13265.0 419.568   6
  10  -4  -1 13855.0 402.879   3
   9   4  -1 12682.7 402.961   6
   9  -4  -1 12072.8 379.219   6
   8   4  -1 5124.76 242.526   6
   8  -4  -1 4770.78 215.156   6
   7   4  -1 21042.3 482.727   6
  -7   4   1 20736.4 466.559   6
   7  -4  -1 21491.5 460.866   6
   6  -4  -1 2001.16 125.145   6
  -6   4   1 1960.97 128.132   6
  -6   4   1 2047.95 66.3706   1
   6   4  -1 2059.03 138.277   6
  -6  -4   1 1771.19 133.017   6
   5  -4  -1 16901.7 348.486   6
  -5  -4   1 17754.2 306.654   1
  -5   4   1 17143.9 354.507   6
  -5  -4   1 17587.8 378.154   6
   5   4  -1 17010.8 381.072   6
  -4  -4   1 48061.5 729.031   6
   4   4  -1 46642.5 737.366   6
   4  -4  -1 47734.0 692.692   6
  -4   4   1 48524.3 698.380   6
  -4  -4   1 47925.1 666.833   1
   3   4  -1 8183.66 204.981   6
  -3  -4   1 8568.80 181.313   1
  -3  -4   1 8674.77 201.085   6
   3  -4  -1 8067.81 173.332   6
   3  -4  -1 8194.01 202.549   3
  -3   4   1 8688.67 177.412   6
  -2  -4   1 57214.3 731.558   5
  -2   4   1 57981.6 728.374   6
   2  -4  -1 58693.7 790.565   3
   2   4  -1 58393.1 780.040   6
  -2  -4   1 58162.1 775.396   1
   2  -4  -1 57352.4 730.199   6
  -2  -4   1 58878.9 779.734   6
  -1   4   1 20027.6 318.903   3
  -1  -4   1 20430.8 322.582   1
  -1   4   1 20477.0 315.370   5
  -1   4   1 20015.5 319.349   2
   1  -4  -1 20832.3 321.039   3
  -1  -4   1 19681.8 305.579   6
   1   4  -1 19619.1 306.281   6
   0  -4   1 19971.3 322.307   1
   0  -4  -1 21018.3 319.089   2
   0   4   1 20442.9 318.573   2
   0  -4  -1 20104.9 274.423   6
   0  -4  -1 21589.5 324.815   5
   0  -4   1 20604.2 306.076   2
   0  -4  -1 20341.6 275.099   6
   0   4  -1 20327.4 300.942   6
   0  -4   1 20212.7 301.079   6
   0   4   1 20723.5 309.871   3
  -1  -4  -1 82581.4 1031.94   4
   1  -4   1 83714.5 1053.79   6
   1  -4   1 82609.9 1063.56   1
  -1   4  -1 84139.1 1035.55   2
  -1  -4  -1 83497.4 1056.06   6
  -1  -4  -1 82874.7 1065.22   2
   1  -4   1 83551.8 1032.35   2
   1  -4   1 84817.3 1061.25   4
   1   4   1 83271.4 1064.80   2
  -1   4  -1 83348.2 1051.68   6
   1   4   1 83897.6 1058.29   6
  -1   4  -1 83181.2 1056.17   4
   1   4   1 82515.5 1033.34   4
  -2  -4  -1 16214.3 275.557   4
  -2   4  -1 16236.2 279.764   6
  -2   4  -1 16159.6 239.260   2
   2   4   1 16078.1 276.422   2
   2  -4   1 15753.7 278.163   6
  -2  -4  -1 16165.6 279.060   2
  -2   4  -1 16739.1 298.413   4
   2  -4   1 15902.6 265.860   1
  -2  -4  -1 15765.7 292.377   6
   2   4   1 15784.3 296.313   6
  -2   4  -1 15891.4 270.341   3
  -3  -4  -1 12109.0 256.924   4
  -3   4  -1 12074.3 253.621   6
   3  -4   1 11669.5 229.745   3
   3   4   1 11596.0 269.730   6
  -3  -4  -1 11724.2 266.548   6
  -3  -4  -1 12051.7 235.818   2
  -3   4  -1 11656.4 229.771   3
  -3   4  -1 11857.6 194.390   2
  -3   4  -1 11997.1 274.469   4
  -3   4  -1 11457.3 246.232   6
   3  -4   1 11552.8 207.929   1
  -4   4  -1 8439.78 222.696   6
   4  -4   1 8575.86 165.562   1
  -4   4  -1 8104.25 244.518   4
   4  -4   1 8528.86 197.115   3
  -4   4  -1 8462.98 227.335   6
   4   4   1 8364.34 242.943   6
  -4  -4  -1 8218.96 199.270   2
  -4  -4  -1 7956.49 228.026   4
  -4  -4  -1 8726.46 241.209   6
   5  -4   1 25379.6 433.325   3
  -5  -4  -1 25861.8 506.788   6
   5   4   1 25741.1 408.706   1
  -5  -4  -1 24039.1 430.068   2
  -5   4  -1 26380.7 493.456   6
  -5   4  -1 25864.4 479.944   6
  -5   4  -1 24256.6 507.963   4
  -5  -4  -1 24337.8 492.397   4
   5   4   1 24726.0 503.576   6
   6   4   1 13493.0 246.286   1
   6   4   1 13143.8 359.639   6
  -6  -4  -1 13435.3 361.178   4
   6  -4   1 12608.8 291.537   3
  -6   4  -1 12458.1 332.797   6
  -6   4  -1 13036.0 346.778   6
  -6   4  -1 13004.9 369.367   4
  -7   4  -1 32254.1 629.140   6
  -7   4  -1 33865.0 687.468   4
   7   4   1 32495.8 663.804   6
   7  -4   1 32978.6 568.236   3
   7   4   1 31636.5 461.989   1
  -7  -4  -1 33411.7 665.722   4
  -8  -4  -1 925.851 134.674   4
  -8   4  -1 1246.94 134.430   6
   8   4   1 1116.55 139.368   6
   8  -4   1 845.673 92.0226   3
  -8   4  -1 1048.35 142.355   4
  -9  -4  -1 138.444 64.5626   2
  -9   4  -1 29.1989 84.4973   6
   9  -4   1 97.5172 63.3593   3
  -9   4  -1 24.0114 96.3132   4
   9   4   1 96.0917 98.3225   6
  -9  -4  -1 45.1815 94.8033   4
  10   4   1 14255.1 475.763   6
 -10   4  -1 14174.3 448.178   6
 -10  -4  -1 14410.0 370.210   2
  10  -4   1 14678.5 386.269   3
 -10  -4  -1 14958.4 480.021   4
 -10   4  -1 14521.3 492.808   4
  11   4   1 214.484 120.024   6
 -11  -4  -1 189.175 114.737   4
  11  -4   1 53.4938 77.3997   3
 -11  -4  -1-4.56879 67.1779   2
 -11   4  -1 214.227 128.547   4
 -11   4  -1 181.662 107.240   6
 -12   4  -1 3614.75 277.016   4
 -12  -4  -1 3819.06 272.510   4
  12  -4   1 3873.16 211.451   3
 -12   4  -1 3856.54 270.539   6
 -13  -4  -1 920.980 175.517   6
 -13  -4  -1 1026.98 178.659   4
 -13   4  -1 1336.55 199.365   4
 -13   4  -1 1289.72 189.747   6
 -14   4  -1 86.8104 130.642   6
 -14  -5   1 9256.74 449.010   4
  14  -5  -1 9249.73 394.991   3
  14   5  -1 9883.36 470.483   6
 -14   5   1 9661.12 438.838   6
 -14   5   1 9111.76 460.158   4
 -13   5   1 4437.42 284.626   6
  13   5  -1 4519.76 309.394   6
  13  -5  -1 4740.21 276.791   3
  12   5  -1 1057.50 169.003   6
  12  -5  -1 883.780 139.642   3
  11   5  -1 20975.5 606.181   6
  11  -5  -1 20056.1 555.861   6
  11  -5  -1 21506.0 545.848   3
  10  -5  -1 1734.48 162.296   3
  10   5  -1 1565.51 190.343   6
  10  -5  -1 1388.15 162.055   6
   9  -5  -1 13258.0 393.570   6
   9   5  -1 14132.1 434.958   6
   9  -5  -1 14268.0 394.797   3
   8  -5  -1 54658.0 909.891   3
   8  -5  -1 54102.6 913.995   6
   8   5  -1 53798.7 966.116   6
   7   5  -1 1446.61 138.932   6
  -7   5   1 1405.91 121.576   6
   7  -5  -1 1299.38 112.918   6
   7  -5  -1 1384.67 122.314   3
   6  -5  -1 86293.9 1199.94   3
  -6   5   1 81710.0 1050.21   1
  -6  -5   1 80458.7 1227.80   6
   6   5  -1 83877.7 1231.88   6
   6  -5  -1 82477.1 1175.87   6
  -6   5   1 80108.0 1187.35   6
   5   5  -1 168921. 2230.67   6
  -5  -5   1 169536. 2137.73   1
  -5  -5   1 176043. 2226.81   6
   5  -5  -1 171322. 2205.33   3
   5  -5  -1 171971. 2175.55   6
  -5   5   1 166204. 2181.61   6
   4  -5  -1 9135.44 236.251   3
   4  -5  -1 8966.13 206.210   6
   4   5  -1 9016.51 244.307   6
  -4   5   1 8913.23 211.210   6
  -4  -5   1 9088.12 206.907   1
  -4  -5   1 9264.96 238.840   6
  -3  -5   1 148711. 1890.82   6
   3  -5  -1 148410. 1836.50   6
  -3   5   1 149369. 1840.25   6
   3   5  -1 148545. 1892.92   6
   3  -5  -1 149025. 1900.78   3
  -3  -5   1 151655. 1873.46   1
  -2   5   1 43322.7 622.284   3
  -2   5   1 43439.0 543.799   6
   2  -5  -1 41778.6 545.301   6
   2  -5  -1 43158.7 624.631   3
  -2  -5   1 43997.5 606.630   6
   2   5  -1 41659.6 605.963   6
  -2  -5   1 43179.6 613.470   1
  -2  -5   1 42426.4 568.687   5
   2   5  -1 41675.9 613.280   1
  -1   5   1 27791.6 424.405   5
   1   5  -1 27821.1 400.423   5
   1   5  -1 28013.5 436.333   1
   1   5  -1 27332.6 407.616   6
  -1  -5   1 28300.8 407.791   6
   1  -5  -1 27880.2 429.079   3
  -1   5   1 28313.2 427.365   3
  -1   5   1 28358.2 428.029   2
  -1  -5   1 28471.6 435.280   1
   0  -5  -1 698259. 8450.39   6
   0  -5   1 728801. 8503.24   2
   0   5  -1 713927. 8484.52   6
   0  -5   1 726378. 8527.85   1
   0  -5  -1 737681. 8521.09   5
   0   5  -1 730776. 8529.57   1
   0   5   1 701540. 8514.21   2
   0  -5   1 730136. 8486.09   6
   0   5  -1 732735. 8505.42   2
   0   5   1 728134. 8508.41   3
   0  -5  -1 712960. 8515.20   2
   1   5   1 3652.25 116.915   2
   1   5   1 3501.33 104.642   6
   1  -5   1 3565.93 98.2541   2
  -1   5  -1 3568.99 102.351   4
  -1   5  -1 3422.95 99.4264   6
  -1  -5  -1 3689.34 119.748   2
   1  -5   1 3649.98 115.031   1
   1   5   1 3473.61 83.8513   4
  -1  -5  -1 3632.69 102.750   6
   1  -5   1 3407.95 99.1055   6
  -1   5  -1 3789.58 103.836   2
   1  -5   1 3604.35 103.275   4
  -2   5  -1 287.589 38.8742   2
  -2   5  -1 318.069 55.3840   6
  -2  -5  -1 222.171 44.6398   4
  -2  -5  -1 222.144 55.1597   6
   2   5   1 280.590 57.3380   2
   2  -5   1 267.570 48.1134   1
   2  -5   1 334.133 48.8458   6
   2  -5   1 301.731 38.7478   2
  -2   5  -1 620.926 68.6328   4
  -2   5  -1 589.267 63.4061   3
   2   5   1 274.957 68.8505   6
  -2  -5  -1 312.167 57.3333   2
   3   5   1 170017. 2203.48   6
  -3   5  -1 170761. 2161.15   6
   3  -5   1 172375. 2131.79   1
  -3  -5  -1 174210. 2198.51   6
  -3   5  -1 172969. 2202.92   4
  -3  -5  -1 173445. 2168.06   4
  -3   5  -1 174545. 2169.19   6
  -3   5  -1 176538. 2154.75   3
  -3   5  -1 172397. 2100.98   2
  -3  -5  -1 172702. 2161.65   2
  -4  -5  -1 5854.07 172.162   2
  -4  -5  -1 6161.39 203.818   6
   4  -5   1 6064.74 169.365   3
  -4   5  -1 6047.65 184.683   6
  -4   5  -1 6258.18 186.067   6
   4  -5   1 6444.84 150.712   1
   4   5   1 5685.93 202.964   6
  -4  -5  -1 5838.35 191.357   4
  -4   5  -1 5682.94 205.783   4
   5   5   1 56921.9 910.860   6
  -5   5  -1 57887.7 883.391   6
  -5  -5  -1 56328.3 891.745   4
  -5  -5  -1 57198.7 836.002   2
  -5   5  -1 55471.8 918.900   4
   5  -5   1 56540.7 829.730   3
  -5  -5  -1 58406.6 912.947   6
  -5   5  -1 57706.7 872.611   6
   5   5   1 57956.0 813.440   1
  -6  -5  -1 82365.3 1243.48   4
  -6   5  -1 84708.9 1241.72   6
   6  -5   1 82165.1 1156.20   3
  -6   5  -1 81761.0 1271.17   4
   6   5   1 80999.1 1254.76   6
  -6  -5  -1 81075.2 1158.98   2
  -6   5  -1 83576.0 1215.76   6
   6   5   1 84024.7 1104.54   1
  -7  -5  -1 155.661 85.5552   4
   7   5   1 260.135 101.848   6
   7  -5   1 92.0019 56.5240   3
  -7   5  -1 267.622 101.524   4
  -7   5  -1 166.057 80.0768   6
  -7  -5  -1 125.602 58.7188   2
   7   5   1 132.252 39.4061   1
  -8   5  -1 44089.6 867.914   4
  -8   5  -1 43331.1 802.039   6
   8   5   1 43545.8 846.486   6
  -8  -5  -1 42843.9 724.337   2
  -8  -5  -1 43190.4 834.146   4
   8  -5   1 42268.5 728.129   3
   9   5   1 17209.2 501.744   6
  -9   5  -1 17807.1 480.121   6
  -9   5  -1 17637.4 522.331   4
   9  -5   1 18687.2 426.992   3
  -9  -5  -1 17094.8 405.720   2
  -9  -5  -1 17507.6 496.645   4
 -10  -5  -1 36263.5 810.267   4
 -10   5  -1 36387.6 781.199   6
 -10   5  -1 37362.0 838.890   4
  10  -5   1 36401.1 693.993   3
 -10  -5  -1 36341.4 680.121   2
  10   5   1 37030.8 822.136   6
 -11  -5  -1 16331.3 417.331   2
  11   5   1 15881.4 532.930   6
 -11  -5  -1 15549.1 516.079   4
 -11   5  -1 16454.0 510.643   6
 -11   5  -1 16201.7 541.669   4
  11  -5   1 16459.6 434.747   3
  12  -5   1 1791.12 154.318   3
 -12  -5  -1 1869.38 200.676   4
 -12   5  -1 2272.78 222.227   6
 -12   5  -1 1900.80 220.852   4
 -13  -5  -1 6274.45 364.177   4
 -13   5  -1 6006.53 370.278   4
 -13  -5  -1 6959.37 379.389   6
 -13   5  -1 6262.83 349.400   6
 -14   5  -1 3031.98 268.252   6
  14  -6  -1-111.077 139.967   3
 -14  -6   1 32.3456 127.555   4
 -14   6   1 134.169 145.499   4
  14   6  -1 41.7278 148.069   6
 -14   6   1 101.057 129.840   6
  13   6  -1 4947.37 330.480   6
 -13   6   1 5003.64 298.447   6
  13  -6  -1 5071.04 291.290   3
  12   6  -1 3804.53 270.540   6
  12  -6  -1 3770.92 238.766   3
 -12   6   1 3564.84 240.968   6
  11   6  -1 1250.86 178.832   6
  11  -6  -1 989.904 137.874   3
  10   6  -1 30012.4 717.838   6
  10  -6  -1 29913.5 669.488   6
  10  -6  -1 30888.8 662.918   3
   9   6  -1 3032.08 206.277   6
   9  -6  -1 2801.96 180.383   3
   9  -6  -1 3400.44 198.116   6
   8  -6  -1 13044.7 364.085   3
   8  -6  -1 12468.3 352.100   6
   8   6  -1 12746.8 396.170   6
  -7   6   1 41160.8 719.458   6
   7  -6  -1 41592.7 703.971   6
   7  -6  -1 41557.4 717.585   3
  -7   6   1 38618.9 543.056   1
   7   6  -1 41289.8 753.882   6
   6   6  -1 19287.8 441.533   6
  -6   6   1 18932.1 410.487   6
  -6   6   1 19634.8 325.647   1
   6  -6  -1 19790.9 401.375   6
   6  -6  -1 20321.4 428.675   3
   5  -6  -1 4370.53 152.246   6
   5   6  -1 4330.30 183.381   6
  -5   6   1 4114.85 158.147   6
  -5  -6   1 4275.77 179.143   6
  -5  -6   1 4267.97 147.881   1
   5  -6  -1 4322.33 174.551   3
   4  -6  -1 111260. 1497.07   3
  -4   6   1 109469. 1444.90   6
  -4  -6   1 112731. 1465.28   1
  -4  -6   1 114662. 1497.34   6
   4   6  -1 112735. 1509.02   6
   4  -6  -1 110945. 1432.95   6
  -3   6   1 36543.1 509.285   6
   3   6  -1 34890.1 557.084   1
   3  -6  -1 36550.7 576.260   3
   3  -6  -1 35476.8 501.477   6
  -3  -6   1 36898.8 517.421   5
  -3  -6   1 36450.1 561.280   1
   3   6  -1 36259.9 565.743   6
  -3  -6   1 36731.8 562.195   6
   2   6  -1 25634.8 420.565   1
  -2  -6   1 25400.8 396.215   6
  -2   6   1 25507.6 409.110   2
   2   6  -1 24250.6 397.447   6
  -2   6   1 24381.4 325.767   6
  -2  -6   1 24778.6 370.490   5
   2  -6  -1 25611.9 420.564   3
  -2   6   1 25847.8 420.039   3
   2  -6  -1 23547.4 325.575   6
  -2  -6   1 25549.3 417.774   1
  -1  -6   1 1957.27 98.2533   1
  -1  -6   1 2124.16 98.3318   2
  -1   6   1 2024.11 90.8449   2
   1   6  -1 1942.61 80.3220   6
  -1   6   1 2109.80 94.1717   3
  -1  -6   1 1830.56 78.8060   6
   1   6  -1 2003.79 99.4756   1
   1  -6  -1 1953.95 94.2862   2
   1   6  -1 2103.95 83.9306   5
  -1   6   1 2104.19 92.9168   5
   0   6   1 3511.63 122.292   5
   0  -6  -1 3434.13 117.887   2
   0  -6   1 3436.38 112.277   2
   0  -6  -1 3418.29 75.1539   6
   0  -6   1 3555.76 124.870   1
   0   6  -1 3431.14 114.935   2
   0   6  -1 3357.34 126.226   1
   0   6  -1 3415.49 98.0220   6
   0   6   1 3440.19 76.8052   6
   0  -6   1 3373.66 95.9982   6
   0   6   1 3404.21 117.473   2
   0  -6  -1 3410.85 125.348   5
   0  -6   1 3335.66 84.6046   4
   1   6   1 186813. 2232.76   4
   1  -6   1 189218. 2273.00   4
  -1   6  -1 181786. 2265.97   6
  -1   6  -1 191677. 2312.48   1
  -1   6  -1 183853. 2267.60   4
  -1  -6  -1 183883. 2269.70   6
   1  -6   1 188046. 2312.62   1
   1  -6   1 190697. 2268.20   6
  -1   6  -1 186726. 2280.32   2
   1   6   1 187083. 2307.32   2
   1   6   1 182355. 2273.48   6
   1  -6   1 186237. 2274.15   2
  -2   6  -1 94809.7 1207.23   2
  -2   6  -1 94301.2 1222.14   6
  -2  -6  -1 95314.3 1256.52   2
  -2  -6  -1 95987.3 1205.63   4
   2  -6   1 96159.6 1204.87   2
   2   6   1 95127.0 1250.56   2
  -2   6  -1 98519.7 1248.08   4
   2  -6   1 93835.1 1243.92   1
  -2   6  -1 97516.1 1247.64   3
   2  -6   1 96196.0 1224.98   6
  -2  -6  -1 94139.3 1247.97   6
   2   6   1 92415.8 1253.15   6
  -3   6  -1 71646.4 967.660   6
  -3   6  -1 70931.3 923.910   2
   3   6   1 69228.3 1007.00   6
  -3   6  -1 72166.1 1007.36   4
  -3  -6  -1 71209.5 1003.96   6
  -3  -6  -1 71350.9 967.130   4
  -3   6  -1 71442.8 975.766   3
   3  -6   1 71847.1 962.961   1
  -3  -6  -1 71042.3 983.439   2
   4  -6   1 23666.1 413.318   3
  -4  -6  -1 22395.4 450.826   6
   4  -6   1 23693.0 389.588   1
  -4   6  -1 23935.7 428.693   6
  -4   6  -1 23302.7 363.585   2
   4   6   1 23964.4 463.356   6
  -4  -6  -1 22322.9 425.784   4
  -4   6  -1 22931.7 417.394   6
  -4  -6  -1 22512.5 415.802   2
  -4   6  -1 23607.2 461.369   4
  -5   6  -1 22605.0 446.006   6
   5  -6   1 21747.5 409.538   3
  -5  -6  -1 21848.4 415.841   2
  -5  -6  -1 21544.4 466.565   6
  -5  -6  -1 21668.5 444.913   4
   5   6   1 22431.5 472.538   6
   5   6   1 22672.9 406.106   1
  -5   6  -1 21471.1 471.451   4
  -5   6  -1 22065.4 432.163   6
   6  -6   1 4960.91 179.667   3
  -6  -6  -1 4981.69 181.763   2
   6   6   1 4966.77 219.154   6
   6   6   1 5121.75 159.107   1
  -6   6  -1 4970.58 229.184   4
  -6   6  -1 5279.44 202.297   6
  -6  -6  -1 5024.88 210.218   4
  -6   6  -1 5079.79 206.787   6
  -7  -6  -1 23450.5 464.414   2
   7   6   1 23255.6 399.669   1
  -7   6  -1 23752.1 509.350   6
  -7   6  -1 23435.5 554.068   4
   7   6   1 23625.9 549.440   6
   7  -6   1 22593.5 459.648   3
  -7  -6  -1 24040.4 533.385   4
   8  -6   1 5655.40 213.692   3
  -8   6  -1 5590.90 243.036   6
  -8   6  -1 5677.90 278.841   4
  -8  -6  -1 5598.57 211.354   2
   8   6   1 5919.12 275.075   6
  -8  -6  -1 5498.40 255.690   4
  -9  -6  -1 23182.9 499.675   2
  -9   6  -1 24302.1 575.391   6
  -9   6  -1 23300.6 616.548   4
  -9  -6  -1 24475.3 593.992   4
   9   6   1 23422.4 609.031   6
   9  -6   1 24313.3 515.089   3
  10   6   1 9328.50 387.176   6
 -10   6  -1 8778.12 347.022   6
 -10  -6  -1 8950.31 366.260   4
  10  -6   1 9377.62 310.430   3
 -10   6  -1 9544.00 392.426   4
 -10  -6  -1 9285.88 301.616   2
 -11  -6  -1 809.134 110.803   2
 -11  -6  -1 799.206 143.057   4
 -11   6  -1 1103.64 169.872   4
  11  -6   1 920.009 123.977   3
 -11   6  -1 921.932 150.767   6
  11   6   1 821.772 159.795   6
 -12   6  -1 641.514 158.114   4
 -12  -6  -1 533.560 138.167   4
 -12   6  -1 296.015 125.222   6
  12  -6   1 689.858 125.245   3
 -13   6  -1 6786.94 390.179   4
 -13  -6  -1 6055.83 364.006   6
 -13   6  -1 6182.13 345.503   6
 -13  -6  -1 6120.05 360.655   4
 -14   6  -1 2935.81 264.790   6
 -14   7   1 1829.54 213.960   6
  14  -7  -1 1683.35 201.734   3
 -14  -7   1 1895.52 220.234   4
  13  -7  -1 300.803 131.590   3
 -13   7   1 177.676 121.902   6
  13   7  -1 68.4996 136.658   6
  12   7  -1 198.388 130.500   6
  12  -7  -1 135.772 108.472   3
 -12   7   1-63.5455 110.601   6
 -11   7   1 3207.43 216.568   6
  11   7  -1 3124.30 244.828   6
  11  -7  -1 3430.55 223.405   3
  10  -7  -1 304.682 118.617   3
  10   7  -1 298.885 123.695   6
   9   7  -1 8352.46 336.551   6
   9  -7  -1 8840.10 308.452   6
   9  -7  -1 8636.94 310.968   3
   8  -7  -1 56.0387 80.7296   3
   8   7  -1 45.5797 91.4387   6
   8  -7  -1 11.9993 66.6228   6
   7  -7  -1 161.090 70.0487   6
   7  -7  -1 320.171 89.2821   3
  -7   7   1 232.864 40.3649   1
  -7   7   1 226.347 78.2422   6
   7   7  -1 170.663 96.0689   6
  -6   7   1 1923.06 121.635   6
   6  -7  -1 2189.18 122.625   6
   6   7  -1 2162.84 152.641   6
  -6   7   1 2264.02 96.9134   1
   6  -7  -1 1918.42 135.526   3
  -5   7   1 383.745 66.8559   6
   5  -7  -1 341.148 57.8491   6
   5   7  -1 395.838 81.2589   6
  -5   7   1 456.436 58.7358   1
  -5  -7   1 482.426 75.5110   6
  -5  -7   1 371.588 60.1921   1
   5  -7  -1 511.528 83.0154   3
   4  -7  -1 3589.78 118.949   6
  -4  -7   1 3823.51 148.398   1
   4  -7  -1 3832.06 158.459   3
  -4  -7   1 3849.81 151.809   6
   4   7  -1 3706.42 160.605   6
  -4   7   1 3607.33 124.587   6
   4   7  -1 3746.86 143.112   1
   3   7  -1 23272.9 416.766   1
  -3  -7   1 23061.6 418.338   1
  -3  -7   1 22911.6 369.114   5
   3  -7  -1 22601.0 339.949   6
   3  -7  -1 23135.8 423.254   3
  -3  -7   1 23996.8 408.353   6
   3   7  -1 22013.2 405.789   6
  -3   7   1 23519.1 348.409   6
  -2  -7   1 6815.11 192.051   1
  -2   7   1 6618.93 179.735   2
  -2   7   1 6570.23 186.021   3
   2  -7  -1 6852.22 188.522   3
  -2  -7   1 6513.82 158.546   5
   2   7  -1 6711.28 161.499   5
  -2  -7   1 6891.35 189.912   2
  -2  -7   1 6653.24 167.686   6
   2   7  -1 6661.77 192.102   1
   2   7  -1 6746.49 170.533   6
   1  -7  -1 2060.46 103.400   2
  -1  -7   1 2235.79 113.096   1
   1   7  -1 1952.65 88.8716   5
   1   7  -1 2057.99 110.441   1
  -1  -7   1 1989.98 100.800   2
   1   7  -1 2125.85 87.2562   6
  -1   7   1 2148.72 101.029   5
  -1   7   1 2105.67 96.4615   2
  -1  -7   1 2056.41 83.2194   6
  -1   7   1 2092.47 100.526   3
   0  -7  -1 134.308 24.5425   6
   0  -7   1 232.058 31.9333   4
   0   7   1 177.398 29.5870   6
   0  -7   1 249.339 57.7359   2
   0  -7  -1 168.224 68.0262   5
   0   7  -1 225.416 62.2419   1
   0   7  -1 106.272 42.0590   6
   0   7  -1 214.768 60.0991   2
   0   7   1 112.627 56.4824   2
   0   7   1 164.919 58.4419   5
   0  -7   1 306.893 67.5006   1
   0  -7  -1 149.935 58.7462   2
   0  -7   1 200.503 41.7842   6
  -1  -7  -1 1559.50 94.7972   2
   1  -7   1 1664.39 96.7856   1
   1  -7   1 1446.28 67.8601   6
   1  -7   1 1472.81 70.2672   4
   1   7   1 1334.20 72.5870   6
  -1   7  -1 1382.65 68.2918   4
  -1  -7  -1 1334.77 69.3496   6
   1   7   1 1360.23 91.5217   2
   1   7   1 1460.54 50.1384   4
  -1   7  -1 1514.16 84.7579   2
   1  -7   1 1472.69 79.0657   2
  -1  -7  -1 1533.19 100.731   5
  -1   7  -1 1451.23 87.3031   1
  -1   7  -1 1493.12 69.7499   6
   2  -7   1 3272.60 128.861   1
  -2  -7  -1 3240.68 94.7894   4
   2   7   1 3233.97 125.533   6
  -2  -7  -1 3351.99 122.331   6
  -2   7  -1 3468.63 110.723   2
  -2  -7  -1 3228.24 130.242   2
  -2   7  -1 3256.72 126.885   3
   2   7   1 3330.19 130.451   2
   2  -7   1 3268.58 108.394   6
  -2   7  -1 3227.74 118.137   4
   2  -7   1 3428.97 108.501   2
  -2   7  -1 3106.54 120.153   1
  -2   7  -1 3130.40 107.215   6
   3  -7   1 5304.82 153.115   6
  -3   7  -1 5263.49 165.567   3
   3  -7   1 5572.28 165.121   1
  -3  -7  -1 4954.90 171.302   6
   3   7   1 4954.09 176.169   6
  -3   7  -1 5348.16 137.869   2
  -3   7  -1 5173.60 152.000   6
  -3  -7  -1 4993.94 167.757   2
  -3  -7  -1 5602.91 154.536   4
  -3   7  -1 5223.88 174.221   4
  -4  -7  -1 2046.44 112.440   4
  -4   7  -1 2191.16 110.730   6
   4   7   1 2051.80 112.484   1
  -4   7  -1 2184.55 112.312   6
  -4   7  -1 1950.97 123.144   4
  -4   7  -1 2075.49 111.136   3
  -4  -7  -1 1916.97 119.555   6
  -4  -7  -1 2000.44 116.341   2
  -4   7  -1 2199.41 88.9444   2
   4  -7   1 2193.38 103.736   1
   4   7   1 2026.84 129.028   6
   5   7   1 419.506 65.8552   1
  -5   7  -1 509.400 52.0133   2
   5  -7   1 375.874 70.9113   3
  -5  -7  -1 454.777 74.1038   4
  -5   7  -1 506.564 82.6219   6
  -5  -7  -1 413.292 66.9111   2
  -5   7  -1 445.763 75.6753   6
   5   7   1 411.351 85.2382   6
  -5  -7  -1 435.024 79.9910   6
  -5   7  -1 382.046 87.1301   4
  -6   7  -1 2761.41 149.076   6
  -6  -7  -1 2770.66 139.981   2
  -6   7  -1 2935.56 111.790   2
  -6  -7  -1 2747.79 155.020   4
  -6   7  -1 2887.71 175.682   4
   6   7   1 2676.99 168.704   6
   6  -7   1 2735.14 139.602   3
  -6   7  -1 2497.89 147.138   6
   6   7   1 2766.68 124.986   1
  -7  -7  -1 11264.1 305.283   2
  -7   7  -1 11465.9 327.917   6
   7   7   1 11679.5 263.557   1
   7   7   1 11381.0 362.650   6
  -7  -7  -1 11754.6 349.702   4
  -7   7  -1 11718.9 375.894   4
   7  -7   1 11441.9 307.886   3
  -8   7  -1 147.419 84.3720   6
   8  -7   1 30.0759 67.7383   3
  -8   7  -1 230.247 100.343   4
   8   7   1 97.2565 92.4608   6
  -8  -7  -1 155.702 73.9427   2
   8   7   1 132.942 43.5727   1
  -8  -7  -1 180.485 85.5413   4
   9  -7   1 140.847 78.9083   3
  -9  -7  -1 151.739 72.2543   2
  -9   7  -1 214.833 119.476   4
  -9   7  -1 204.288 97.3886   6
   9   7   1 388.257 123.429   6
  -9  -7  -1 265.883 101.570   4
  10  -7   1 315.613 98.4606   3
 -10  -7  -1 249.481 112.978   4
 -10  -7  -1 482.157 100.711   2
 -10   7  -1 307.547 123.381   6
 -10   7  -1 393.572 126.457   4
  10   7   1 604.726 149.738   6
  11  -7   1-17.2447 86.4302   3
 -11   7  -1-125.070 116.911   6
  11   7   1 111.798 122.147   6
 -11   7  -1 166.549 124.911   4
 -11  -7  -1 62.2836 105.078   4
 -11  -7  -1 196.162 88.1367   2
 -12   7  -1 463.385 143.724   6
  12  -7   1 465.559 112.141   3
 -12  -7  -1 309.388 128.256   4
  12   7   1 409.926 146.367   6
 -12   7  -1 453.264 151.906   4
 -13   7  -1 358.088 148.721   6
 -13   7  -1 480.263 152.592   4
 -13  -7  -1 636.279 168.421   4
 -14   7  -1 352.749 155.835   6
  14  -8  -1 525.362 149.292   3
 -14   8   1 597.617 147.491   6
 -14  -8   1 587.050 156.863   4
  13   8  -1 9366.57 442.915   6
  13  -8  -1 9521.98 397.900   3
 -13   8   1 10454.1 419.221   6
 -13  -8   1 9640.88 381.176   2
 -13   8   1 9503.66 455.773   4
  12   8  -1 9964.67 432.388   6
  12  -8  -1 10028.2 387.103   3
 -12   8   1 9432.94 379.467   6
  11  -8  -1 6110.69 293.357   3
 -11   8   1 5688.62 278.734   6
  11   8  -1 5219.02 309.899   6
  10   8  -1 20287.3 582.939   6
  10  -8  -1 21201.1 539.799   3
 -10   8   1 21280.8 526.156   6
   9   8  -1 8649.39 343.231   6
   9  -8  -1 9284.89 326.194   3
  -8   8   1 20497.2 333.215   1
   8  -8  -1 22793.3 512.911   3
   8  -8  -1 22119.2 479.578   6
   8   8  -1 21058.9 533.288   6
   7  -8  -1 77091.0 1128.42   6
   7   8  -1 75079.4 1204.63   6
   7  -8  -1 78443.0 1180.50   3
  -7   8   1 72418.9 1136.88   6
  -7   8   1 76392.6 1013.93   1
  -6   8   1 47986.2 697.520   1
   6  -8  -1 47964.3 799.690   3
  -6   8   1 45472.3 753.747   6
   6  -8  -1 47069.8 740.398   6
   6   8  -1 48403.7 824.804   6
  -5   8   1 2354.12 116.068   1
   5  -8  -1 2490.36 147.644   3
   5  -8  -1 2302.11 109.150   6
  -5   8   1 2250.67 116.360   6
  -5  -8   1 2230.08 137.413   6
  -5  -8   1 2121.78 122.664   1
   5   8  -1 2469.10 148.947   6
   4  -8  -1 105889. 1457.07   3
   4   8  -1 107957. 1436.53   1
  -4  -8   1 106735. 1446.18   1
   4   8  -1 107753. 1453.04   6
  -4   8   1 101849. 1366.27   6
  -4  -8   1 107106. 1383.04   5
  -4  -8   1 108494. 1441.17   6
  -3   8   1 154.829 39.9157   6
   3   8  -1 62.6701 58.3363   1
   3  -8  -1 31.4514 67.4465   3
  -3   8   1 76.0391 30.7236   6
   3   8  -1 249.895 69.4500   6
  -3  -8   1 78.2203 50.9892   5
  -3   8   1 61.9158 52.6970   2
  -3  -8   1 118.516 63.9053   2
  -3   8   1 164.053 64.1566   3
  -3  -8   1 42.2243 51.1550   6
  -3  -8   1 117.444 56.1771   1
  -2  -8   1 56044.7 817.806   2
   2   8  -1 53268.4 773.288   6
   2  -8  -1 56005.9 815.624   3
   2   8  -1 56751.7 773.465   5
  -2  -8   1 53819.4 761.121   5
   2   8  -1 54642.2 825.106   1
  -2  -8   1 54335.1 772.141   6
  -2  -8   1 57253.7 832.238   1
  -2   8   1 55061.5 811.749   3
  -2   8   1 57093.2 803.735   2
  -1   8   1 103110. 1359.77   2
  -1  -8   1 103133. 1363.46   2
   1   8  -1 103813. 1335.17   5
   1  -8  -1 102119. 1360.03   2
  -1  -8   1 102444. 1312.53   6
   1   8  -1 101885. 1313.07   6
  -1   8   1 103703. 1362.40   5
  -1   8   1 103942. 1364.68   3
   1   8  -1 101854. 1389.16   1
  -1  -8   1 104843. 1391.77   1
   0  -8  -1 24218.3 418.388   2
   0   8   1 24715.9 420.254   5
   0  -8  -1 24073.9 420.613   5
   0  -8   1 23918.6 340.205   4
   0  -8   1 24991.9 441.518   1
   0  -8  -1 23474.9 325.106   6
   0   8  -1 24888.5 412.934   2
   0  -8   1 23692.7 407.567   2
   0   8  -1 24217.8 367.229   6
   0  -8   1 23898.7 365.564   6
   0   8  -1 24821.0 439.941   1
   0   8   1 24712.7 419.194   2
   0   8   1 23032.7 332.392   6
  -1  -8  -1 84795.1 1146.83   5
   1  -8   1 87009.2 1089.08   4
   1  -8   1 85100.7 1083.54   6
   1  -8   1 84384.9 1114.23   2
  -1   8  -1 82559.2 1079.53   6
  -1   8  -1 85842.9 1123.34   2
   1   8   1 83323.7 1143.59   2
  -1   8  -1 83169.4 1076.27   4
  -1  -8  -1 82966.2 1077.96   6
   1  -8   1 86698.0 1167.72   1
  -1  -8  -1 85561.9 1150.51   2
   1   8   1 81115.1 1087.51   6
  -1   8  -1 87387.8 1160.76   1
   2  -8   1 16946.2 307.502   2
  -2  -8  -1 18173.7 322.350   6
  -2   8  -1 17582.3 341.205   3
   2   8   1 16473.3 324.777   6
  -2   8  -1 17651.5 315.007   2
  -2   8  -1 17282.8 314.188   4
  -2   8  -1 17310.8 338.769   1
   2  -8   1 17584.5 303.411   6
  -2  -8  -1 17309.5 272.665   4
  -2   8  -1 17123.1 297.491   6
   2   8   1 16967.2 341.360   2
  -2  -8  -1 17593.6 347.769   2
   2  -8   1 17484.0 348.337   1
  -3   8  -1 1803.71 106.002   3
  -3  -8  -1 1890.57 87.4182   4
  -3   8  -1 1800.33 91.4978   6
  -3   8  -1 1759.06 95.8541   1
  -3   8  -1 1880.83 88.1708   2
   3  -8   1 2005.49 109.708   1
  -3  -8  -1 1801.55 109.872   6
   3   8   1 1928.01 116.188   6
  -3  -8  -1 1823.17 112.739   2
  -3   8  -1 1973.80 110.424   4
   3  -8   1 1912.70 94.7745   6
  -4   8  -1 66225.9 958.570   6
  -4  -8  -1 65659.4 979.402   2
  -4   8  -1 66375.2 911.394   2
   4  -8   1 68259.9 961.885   1
  -4  -8  -1 67743.9 1006.24   6
  -4   8  -1 67912.7 976.684   3
  -4   8  -1 66931.3 949.648   6
  -4   8  -1 65886.8 1000.62   4
   4   8   1 67630.6 1012.90   6
   4   8   1 69304.1 998.032   1
  -4  -8  -1 66752.2 952.432   4
  -5  -8  -1 25552.5 535.563   6
  -5   8  -1 26872.4 436.826   2
  -5   8  -1 27956.2 507.926   6
  -5   8  -1 27186.9 491.909   6
  -5  -8  -1 26435.5 498.422   4
  -5  -8  -1 26021.4 499.558   2
  -5   8  -1 25327.5 530.696   4
   5   8   1 27827.5 501.918   1
   5   8   1 26996.9 546.674   6
  -6   8  -1 7326.90 190.978   2
  -6  -8  -1 7219.48 234.766   2
  -6   8  -1 7532.97 252.277   6
   6   8   1 7928.11 224.351   1
  -6  -8  -1 7458.25 248.464   4
   6   8   1 7420.45 274.014   6
  -6   8  -1 7137.24 270.107   4
   6  -8   1 7465.32 236.208   3
  -6   8  -1 7434.00 239.849   6
   7   8   1 33382.7 698.261   6
  -7   8  -1 33318.3 696.558   4
  -7  -8  -1 34132.7 661.573   4
  -7  -8  -1 32661.1 617.693   2
  -7   8  -1 33522.1 635.883   6
  -7   8  -1 33422.2 545.249   2
   7  -8   1 33652.9 617.449   3
   7   8   1 34048.8 567.701   1
  -8   8  -1 19094.7 519.824   4
  -8  -8  -1 19248.5 445.734   2
  -8   8  -1 18765.5 376.266   2
   8   8   1 19140.8 373.892   1
   8   8   1 19989.1 528.318   6
  -8   8  -1 19201.2 468.635   6
   8  -8   1 19908.5 448.699   3
  -8  -8  -1 19568.9 494.202   4
  -9   8  -1 12291.3 386.669   6
  -9  -8  -1 12224.2 352.534   2
  -9  -8  -1 12776.3 407.059   4
  -9   8  -1 12009.2 292.622   2
  -9   8  -1 12560.5 429.517   4
   9  -8   1 12598.3 358.410   3
   9   8   1 12991.3 435.869   6
 -10  -8  -1 14637.5 406.459   2
 -10   8  -1 14262.7 487.449   4
 -10   8  -1 14556.4 448.168   6
  10   8   1 14394.6 492.615   6
 -10  -8  -1 14957.9 469.182   4
  10  -8   1 14826.8 411.460   3
 -11   8  -1 307.358 125.179   6
 -11  -8  -1 187.287 94.3701   2
  11  -8   1 127.396 96.5391   3
 -11  -8  -1 146.530 103.693   4
  11   8   1 245.850 141.480   6
 -11   8  -1 170.640 128.631   4
  12   8   1 4725.11 316.735   6
  12  -8   1 4996.87 254.622   3
 -12   8  -1 4043.77 265.233   6
 -12   8  -1 5110.33 333.875   4
 -12  -8  -1 4557.40 293.489   4
 -13   8  -1 4389.87 295.639   6
 -13  -8  -1 4242.32 296.176   4
 -13   8  -1 4767.70 327.497   4
 -14   8  -1 1480.58 198.656   6
 -15   9   1 1335.87 209.834   6
  14  -9  -1 2969.30 246.714   3
 -14  -9   1 2700.04 263.404   4
 -14   9   1 3032.14 252.132   6
 -13   9   1 1801.12 203.990   6
  13  -9  -1 1375.29 183.973   3
 -13   9   1 1490.40 209.345   4
 -13  -9   1 1619.63 185.489   2
  13   9  -1 1608.79 221.305   6
 -13  -9   1 1776.98 204.240   4
 -12   9   1 9136.94 369.692   6
  12  -9  -1 9797.84 388.601   3
  12   9  -1 9329.70 427.136   6
 -12  -9   1 8966.39 361.988   2
 -11   9   1 13360.3 429.197   6
  11   9  -1 12691.1 477.198   6
  11  -9  -1 14073.2 450.228   3
 -10   9   1 1311.19 141.826   6
  10  -9  -1 1555.26 161.999   3
  10   9  -1 1333.23 176.450   6
   9   9  -1 7404.00 324.476   6
   9  -9  -1 7990.27 306.129   3
  -9   9   1 7646.52 277.728   6
  -8   9   1 37403.3 671.688   6
   8  -9  -1 37578.6 723.153   3
  -8   9   1 35979.1 539.788   1
   8   9  -1 34971.9 746.913   6
  -7   9   1 1299.80 116.297   6
   7   9  -1 1286.84 135.123   6
  -7   9   1 1220.62 105.795   6
  -7   9   1 1301.25 83.9829   1
   7  -9  -1 1200.87 130.735   3
   6   9  -1 23551.0 513.430   6
  -6   9   1 24096.2 425.343   1
   6  -9  -1 24125.8 503.293   3
  -6   9   1 23318.9 434.196   6
  -6   9   1 22402.3 450.017   6
   5   9  -1 217572. 2705.26   1
  -5  -9   1 218329. 2736.57   6
   5   9  -1 215479. 2750.33   6
  -5   9   1 213152. 2630.41   6
   5  -9  -1 215129. 2745.88   3
  -5   9   1 213509. 2676.20   1
  -4   9   1 5087.05 133.780   6
   4   9  -1 5300.71 188.250   1
  -4  -9   1 5333.13 161.288   5
  -4   9   1 5260.28 178.656   2
   4  -9  -1 5373.32 199.240   3
  -4  -9   1 5403.90 183.653   6
  -4   9   1 5240.10 182.096   1
  -4   9   1 5067.34 143.062   6
  -4  -9   1 5137.11 193.922   2
   4   9  -1 5447.03 196.798   6
  -4  -9   1 5271.51 190.417   1
  -3   9   1 191323. 2309.40   6
  -3   9   1 199223. 2442.29   2
  -3  -9   1 195806. 2469.09   2
  -3  -9   1 196514. 2481.10   1
  -3   9   1 189177. 2321.43   6
  -3  -9   1 191782. 2392.05   5
  -3  -9   1 191868. 2423.01   6
  -3   9   1 193821. 2465.22   3
   3   9  -1 187268. 2424.70   6
   3  -9  -1 193084. 2464.82   3
   3   9  -1 192128. 2468.56   1
   2   9  -1 10870.8 239.053   5
  -2   9   1 10964.3 266.709   3
  -2   9   1 10578.7 260.066   5
   2   9  -1 10706.5 236.353   6
  -2  -9   1 10792.8 235.437   6
  -2   9   1 10847.9 255.993   2
  -2  -9   1 10978.8 283.438   1
   2   9  -1 10646.3 275.907   1
  -2  -9   1 11047.5 268.046   2
  -1  -9   1 73423.6 1055.51   1
  -1   9   1 72573.7 1020.40   5
  -1   9   1 72219.3 1020.61   3
   1   9  -1 74072.5 997.260   5
  -1  -9   1 71764.8 1018.04   2
   1   9  -1 70229.9 1046.43   1
   1   9  -1 72007.8 963.423   6
  -1   9   1 73741.3 1017.33   2
  -1  -9   1 72398.9 963.022   6
   1  -9  -1 73268.3 1018.80   2
   0  -9  -1 155597. 1951.17   2
   0   9  -1 156330. 1941.39   2
   0   9   1 138244. 1827.80   6
   0  -9   1 152756. 1936.02   2
   0  -9   1 152706. 1871.96   6
   0   9  -1 152759. 1871.89   6
   0  -9   1 153739. 1836.38   4
   0  -9   1 156263. 1983.81   1
   0  -9  -1 151611. 1821.89   6
   0   9   1 153179. 1948.23   5
   0   9  -1 156588. 1982.29   1
   0   9   1 153810. 1950.28   2
   0  -9  -1 154598. 1948.62   5
  -1   9  -1 56560.5 767.556   6
   1  -9   1 58013.1 868.082   1
  -1   9  -1 58513.8 820.898   2
   1  -9   1 57607.4 769.523   6
  -1   9  -1 56479.1 760.901   4
   1   9   1 55051.9 774.825   6
  -1  -9  -1 57024.5 763.020   6
   1   9   1 59720.3 849.093   2
  -1   9  -1 58816.3 860.623   1
  -1  -9  -1 58240.8 846.760   2
   1  -9   1 56688.3 812.953   2
  -1  -9  -1 59065.7 844.744   5
  -2   9  -1 48484.9 744.187   3
  -2  -9  -1 48894.0 701.546   6
  -2   9  -1 48934.2 712.572   2
  -2  -9  -1 48745.7 640.530   4
  -2   9  -1 48437.3 676.730   6
   2  -9   1 48357.2 681.203   6
   2  -9   1 48320.2 704.370   2
   2   9   1 48864.5 747.255   2
   2  -9   1 49963.5 765.533   1
  -2  -9  -1 48745.5 752.077   2
  -2   9  -1 48373.0 697.238   4
  -2   9  -1 49706.8 746.679   1
  -2  -9  -1 50058.5 748.881   5
   2   9   1 47055.5 714.257   6
  -3   9  -1 214321. 2679.39   3
  -3  -9  -1 209508. 2659.74   6
  -3  -9  -1 210608. 2690.86   2
  -3  -9  -1 210882. 2594.24   4
  -3   9  -1 211451. 2613.50   6
   3  -9   1 210161. 2618.82   6
   3   9   1 213986. 2682.09   6
   3  -9   1 214944. 2687.77   1
  -3   9  -1 210435. 2622.43   2
  -3   9  -1 207632. 2651.30   1
   3   9   1 213245. 2717.54   1
  -3   9  -1 212793. 2664.73   4
  -4   9  -1 1835.22 119.570   4
  -4  -9  -1 1713.64 116.241   2
  -4  -9  -1 1824.25 118.776   6
  -4   9  -1 1521.24 98.2549   6
  -4   9  -1 1814.11 114.167   3
  -4  -9  -1 1708.93 95.0462   4
   4   9   1 1828.55 128.020   6
   4   9   1 1859.87 121.619   1
  -4   9  -1 1940.49 93.9799   2
  -4   9  -1 1850.54 100.771   6
  -5  -9  -1 69022.8 1056.69   2
  -5   9  -1 70017.2 1025.16   6
  -5   9  -1 70184.3 979.161   2
   5   9   1 72698.2 1109.46   6
  -5  -9  -1 70437.2 1034.71   4
   5   9   1 74155.9 1065.32   1
  -5   9  -1 73103.5 1047.21   6
  -5   9  -1 69060.5 1087.26   4
  -5  -9  -1 70474.7 1085.79   6
  -6  -9  -1 47028.7 785.102   4
  -6   9  -1 46323.1 767.069   6
  -6   9  -1 47182.6 839.175   4
  -6   9  -1 48037.3 794.441   6
   6   9   1 48942.5 762.989   1
   6   9   1 46717.7 841.145   6
  -6   9  -1 45752.8 698.772   2
  -6  -9  -1 45278.3 777.333   2
   7   9   1 1599.65 107.725   1
   7   9   1 1552.58 156.006   6
  -7   9  -1 1557.40 96.7945   2
  -7   9  -1 1553.45 148.974   4
  -7   9  -1 1765.74 131.213   6
  -7  -9  -1 1388.53 122.387   2
  -7  -9  -1 1537.49 131.219   4
  -8   9  -1 63282.7 1130.81   4
  -8  -9  -1 63680.9 1032.55   2
   8  -9   1 64196.9 1034.60   3
  -8   9  -1 63810.8 1049.22   6
  -8   9  -1 63783.9 936.210   2
   8   9   1 63802.6 1132.62   6
  -8  -9  -1 64226.7 1076.89   4
   8   9   1 64564.3 949.674   1
   9  -9   1 1452.00 133.047   3
  -9   9  -1 1515.35 147.449   6
  -9  -9  -1 1335.63 148.616   4
   9   9   1 1501.50 167.025   6
  -9   9  -1 1428.38 158.595   4
  -9  -9  -1 1647.80 140.921   2
 -10   9  -1 12909.7 463.761   4
  10   9   1 12875.2 468.880   6
 -10  -9  -1 13251.9 389.684   2
 -10   9  -1 13617.0 428.780   6
  10  -9   1 13494.2 400.406   3
 -10  -9  -1 13123.5 437.917   4
 -11   9  -1 12897.3 440.512   6
 -11  -9  -1 12886.4 457.647   4
 -11   9  -1 13025.4 485.923   4
 -11  -9  -1 12990.1 400.467   2
  11   9   1 13022.0 493.044   6
  12   9   1 805.480 171.860   6
 -12  -9  -1 1060.68 177.049   4
 -12  -9  -1 1374.50 154.112   2
 -12   9  -1 991.813 177.150   4
 -12   9  -1 1459.71 188.926   6
 -13   9  -1 3276.28 281.945   4
 -13  -9  -1 3919.54 286.163   4
 -13   9  -1 4165.38 286.396   6
 -14   9  -1 4286.35 306.889   6
 -14 -10   1 154.512 133.101   4
 -14  10   1 295.553 150.047   6
  14 -10  -1 219.116 143.651   3
  13  10  -1 347.935 150.923   6
 -13 -10   1 500.500 154.492   4
 -13 -10   1 375.521 121.495   2
  13 -10  -1 412.235 144.381   3
 -13  10   1 458.959 151.758   4
 -13  10   1 508.018 134.889   6
 -12  10   1 1409.53 161.402   6
  12  10  -1 1373.39 196.688   6
  12 -10  -1 1438.94 173.225   3
 -12 -10   1 1418.47 168.705   2
  11  10  -1 1608.91 195.630   6
 -11 -10   1 1504.58 165.494   2
  11 -10  -1 1748.77 182.128   3
 -11  10   1 1947.53 173.809   6
  10 -10  -1 6615.91 300.248   3
 -10 -10   1 5964.09 278.247   2
  10  10  -1 6474.27 320.213   6
 -10  10   1 6421.07 270.720   6
   9 -10  -1 6776.60 288.465   3
   9  10  -1 7060.47 318.908   6
  -9  10   1 7163.32 266.176   6
   8 -10  -1 4640.57 229.946   3
  -8  10   1 5140.76 208.360   6
   8  10  -1 4921.88 248.507   6
  -8  10   1 4904.29 150.184   1
   7 -10  -1 2728.14 171.929   3
  -7  10   1 2376.64 112.599   1
  -7  10   1 2458.38 134.025   6
   7  10  -1 2407.88 172.424   6
  -7  10   1 2209.62 136.523   6
  -6  10   1 2030.92 112.069   1
  -6 -10   1 1789.63 135.063   2
   6  10  -1 1874.73 148.203   6
  -6  10   1 1794.62 112.473   6
   6 -10  -1 1869.01 138.612   3
  -6  10   1 1859.14 107.716   6
   5  10  -1 36805.1 629.037   1
  -5  10   1 36648.6 617.797   2
  -5  10   1 35380.5 546.560   6
  -5  10   1 32486.3 556.977   6
  -5 -10   1 36136.5 653.710   2
  -5 -10   1 35936.2 580.711   5
  -5  10   1 35679.7 603.892   1
  -5 -10   1 36687.1 638.502   6
   5  10  -1 36147.8 655.888   6
   5 -10  -1 35403.9 650.236   3
   4  10  -1 1059.68 105.327   1
  -4 -10   1 956.151 81.5511   5
  -4  10   1 976.484 89.6268   1
  -4  10   1 948.197 57.7712   6
  -4 -10   1 1090.67 104.334   1
  -4 -10   1 980.878 104.154   2
  -4  10   1 1114.38 92.5126   2
   4  10  -1 1093.32 100.905   6
  -4  10   1 1038.81 65.1315   6
   4 -10  -1 777.370 95.8831   3
  -4 -10   1 1075.45 91.4437   6
  -3  10   1 1578.71 102.473   2
   3  10  -1 1512.19 103.496   6
  -3 -10   1 1528.11 115.125   1
  -3  10   1 1403.88 51.7575   6
   3  10  -1 1389.51 112.808   1
  -3  10   1 1347.62 107.749   3
  -3 -10   1 1147.98 106.514   2
  -3 -10   1 1339.21 92.8323   6
  -3  10   1 1672.41 61.1273   6
  -3 -10   1 1307.73 88.3241   5
  -2 -10   1 32816.8 566.481   2
  -2  10   1 33020.2 563.107   5
   2  10  -1 31561.1 517.804   6
  -2 -10   1 34109.3 595.725   1
   2  10  -1 30903.8 579.453   1
  -2 -10   1 32468.7 516.247   6
  -2  10   1 33567.8 557.630   2
   2  10  -1 33943.1 534.532   5
  -2  10   1 32795.1 567.274   3
  -1  10   1 8434.61 228.650   2
  -1 -10   1 8894.21 238.272   2
   1  10  -1 8870.78 224.017   5
  -1  10   1 8625.96 233.864   3
   1  10  -1 8200.35 250.756   1
   1  10  -1 8384.97 193.764   6
  -1  10   1 9021.75 239.425   5
  -1 -10   1 8780.52 195.018   6
  -1 -10   1 9513.29 263.725   1
   1 -10  -1 8785.85 234.268   2
   0  10   1 1295.59 100.472   5
   0 -10  -1 1275.13 48.4156   6
   0 -10   1 1442.69 74.0971   6
   0  10  -1 1727.33 122.964   1
   0 -10  -1 1557.88 110.663   2
   0  10   1 1174.70 55.0074   6
   0 -10   1 1378.92 98.5276   2
   0 -10  -1 1181.26 102.567   5
   0 -10   1 1259.06 52.5266   4
   0  10  -1 1293.19 71.6594   6
   0  10   1 1514.41 104.650   2
   0  10  -1 1279.84 93.0717   2
   0 -10   1 1363.65 110.863   1
   1 -10   1 7077.75 162.496   6
   1  10   1 7073.24 168.624   6
  -1  10  -1 6885.36 160.203   6
  -1 -10  -1 7169.11 222.979   5
  -1 -10  -1 7060.27 157.293   6
   1 -10   1 6967.45 195.803   2
   1  10   1 7030.41 211.460   2
  -1  10  -1 7159.81 200.732   2
  -1  10  -1 7298.87 224.228   1
  -1 -10  -1 6919.07 211.787   2
   1 -10   1 7514.08 231.383   1
   2 -10   1 24482.8 424.629   2
  -2 -10  -1 24289.4 457.547   5
   2 -10   1 24516.8 394.246   6
   2  10   1 24574.6 430.694   6
   2 -10   1 24977.0 480.880   1
   2  10   1 24760.2 461.925   2
  -2 -10  -1 24295.1 410.151   6
  -2  10  -1 24469.8 460.060   1
  -2  10  -1 24195.7 405.068   4
  -2  10  -1 24175.7 390.520   6
  -2  10  -1 25009.7 433.621   2
  -2 -10  -1 24512.4 466.679   2
  -3  10  -1 17443.1 322.649   6
  -3  10  -1 17750.5 376.601   3
  -3  10  -1 17365.0 362.392   1
  -3 -10  -1 17624.4 385.426   2
  -3 -10  -1 17629.1 354.953   6
   3 -10   1 18006.0 328.060   6
   3  10   1 17635.7 373.581   6
  -3  10  -1 17366.1 340.038   2
   3 -10   1 18276.3 389.572   1
  -3  10  -1 17746.8 353.558   4
  -3 -10  -1 17476.1 302.534   4
   3  10   1 17374.0 403.177   1
  -4  10  -1 185.195 46.3986   2
  -4  10  -1 205.991 52.2281   6
   4  10   1 429.850 80.9844   1
  -4  10  -1 185.839 54.6657   6
  -4 -10  -1 202.739 73.8839   2
  -4 -10  -1 151.943 47.4999   4
   4  10   1 216.012 72.2890   6
  -4  10  -1 224.573 64.4457   3
  -4 -10  -1 340.600 68.6154   6
  -4  10  -1 84.5769 61.2921   4
  -5 -10  -1 14025.9 356.055   2
   5  10   1 14714.0 380.188   6
  -5  10  -1 14272.3 350.740   3
   5  10   1 15126.5 360.440   1
  -5  10  -1 14276.2 366.456   4
  -5  10  -1 14424.1 321.866   6
  -5  10  -1 14167.3 301.221   2
  -5 -10  -1 14404.4 325.341   4
  -5  10  -1 14973.1 338.865   6
  -6  10  -1 3961.88 147.184   2
  -6  10  -1 3841.43 170.294   6
   6  10   1 4049.82 208.443   6
   6  10   1 4101.01 174.414   1
  -6  10  -1 3987.38 182.338   6
  -6 -10  -1 3723.64 170.657   4
  -6 -10  -1 3934.22 184.963   2
  -6  10  -1 3893.08 202.233   4
  -7 -10  -1 19457.0 455.251   4
  -7  10  -1 19358.6 383.966   2
  -7 -10  -1 20461.7 463.984   2
   7  10   1 19623.8 506.151   6
  -7  10  -1 19073.0 497.740   4
   7  10   1 19586.4 418.273   1
  -7  10  -1 20011.7 448.324   6
   8  10   1 1557.48 172.420   6
  -8  10  -1 1304.08 97.1986   2
  -8  10  -1 1421.26 161.285   4
  -8 -10  -1 1569.39 137.263   2
   8  10   1 1466.12 110.398   1
  -8  10  -1 1315.75 131.842   6
  -8 -10  -1 1413.23 137.352   4
   9  10   1 1049.00 149.134   6
  -9 -10  -1 1149.82 139.609   4
  -9  10  -1 1081.92 130.059   6
  -9 -10  -1 1061.32 127.065   2
  -9  10  -1 982.148 148.017   4
  10  10   1 3279.28 245.556   6
 -10 -10  -1 3033.19 195.526   2
 -10  10  -1 3517.05 220.870   6
 -10  10  -1 3102.49 241.367   4
 -10 -10  -1 3382.62 225.818   4
 -11  10  -1 955.295 167.074   4
 -11  10  -1 1059.91 150.824   6
 -11 -10  -1 1103.29 134.176   2
  11  10   1 1070.41 171.443   6
 -11 -10  -1 1216.80 160.626   4
 -12  10  -1 513.260 136.918   6
  12  10   1 640.126 153.312   6
 -12  10  -1 674.444 154.477   4
 -12 -10  -1 659.252 148.699   4
 -12 -10  -1 754.597 127.749   2
 -13 -10  -1 496.265 150.206   4
 -13  10  -1 796.938 168.097   6
 -13  10  -1 579.116 161.841   4
 -14  10  -1 463.339 154.874   6
  14 -11  -1 1127.08 186.125   3
 -14 -11   1 1100.16 181.922   4
 -14  11   1 1603.05 197.157   6
  13 -11  -1 1302.44 187.213   3
 -13  11   1 1067.84 172.019   6
  13  11  -1 941.891 192.184   6
 -13 -11   1 952.152 162.856   2
 -13  11   1 1146.77 186.575   4
 -13 -11   1 969.269 173.221   4
  12 -11  -1 1229.07 178.801   3
 -12  11   1 1248.29 164.514   6
 -12 -11   1 1232.48 163.408   2
  12  11  -1 1293.47 201.976   6
  11 -11  -1 6195.18 309.324   3
  11  11  -1 6568.15 346.723   6
 -11  11   1 6665.78 294.832   6
 -11 -11   1 6880.10 312.220   2
  10 -11  -1 607.017 140.176   3
 -10  11   1 245.442 103.011   6
  10  11  -1 420.659 149.654   6
 -10 -11   1 629.539 129.578   2
  -9 -11   1 9238.33 341.055   2
   9 -11  -1 10453.1 364.612   3
   9  11  -1 9702.81 380.334   6
  -9  11   1 10254.4 319.027   6
  -8 -11   1 4055.86 218.409   2
   8  11  -1 3779.43 223.075   6
  -8  11   1 4293.12 188.380   6
  -8  11   1 4253.76 148.540   1
   8 -11  -1 4070.98 218.433   3
  -7  11   1 4732.07 183.234   6
   7  11  -1 4652.97 233.643   6
   7 -11  -1 4803.04 229.339   3
  -7  11   1 4999.61 170.794   1
  -7  11   1 4510.96 190.736   6
  -7 -11   1 4919.68 226.894   2
  -6 -11   1 3692.13 193.434   2
  -6  11   1 3252.20 159.873   2
  -6  11   1 3271.17 145.437   1
  -6 -11   1 3189.29 146.879   5
  -6  11   1 3342.37 137.213   6
  -6  11   1 2928.53 140.053   6
   6  11  -1 3304.63 188.964   6
   6 -11  -1 3269.98 180.461   3
  -5  11   1 25147.9 487.335   1
   5 -11  -1 25261.8 526.283   3
  -5 -11   1 25793.2 529.485   2
  -5  11   1 26836.3 499.798   2
   5  11  -1 26725.5 517.246   1
   5  11  -1 24774.1 518.971   6
  -5  11   1 23291.1 427.492   6
  -5  11   1 25278.8 414.551   6
  -5 -11   1 25439.8 462.395   5
  -4  11   1 418.680 48.3388   6
  -4 -11   1 453.718 87.1214   2
  -4  11   1 346.020 76.4037   3
   4  11  -1 499.528 82.3643   6
  -4 -11   1 338.033 66.8344   6
   4 -11  -1 458.842 88.3683   3
   4  11  -1 468.951 89.8099   1
  -4  11   1 495.657 74.5380   2
  -4  11   1 455.300 80.4097   1
  -4 -11   1 593.109 73.2367   5
  -4  11   1 368.340 41.3460   6
  -3  11   1 39687.6 666.069   3
  -3  11   1 39337.4 669.464   1
  -3  11   1 39841.1 642.286   2
   3  11  -1 36995.1 668.537   1
  -3 -11   1 39565.4 615.209   6
   3  11  -1 38450.8 617.243   6
  -3  11   1 37135.8 500.463   6
  -3 -11   1 39166.8 663.969   2
  -3 -11   1 38248.5 602.713   5
  -3  11   1 36248.6 490.798   6
  -3 -11   1 40820.2 692.466   1
  -2  11   1 169.850 65.9650   3
  -2  11   1 101.921 58.7546   5
   2  11  -1 237.922 84.0803   1
  -2  11   1 206.243 60.1491   2
  -2 -11   1 130.031 67.4018   2
   2  11  -1 74.1469 52.8806   6
  -2 -11   1 81.3760 44.2485   6
  -2 -11   1 198.132 74.6947   1
   2  11  -1 257.315 66.1232   5
  -2  11   1 141.408 65.2899   1
  -1  11   1 11495.7 285.886   3
  -1  11   1 11659.9 289.308   5
   1  11  -1 11515.5 272.482   5
  -1 -11   1 11902.9 313.767   1
  -1 -11   1 11571.3 237.526   6
  -1  11   1 11807.1 284.702   2
   1 -11  -1 11763.7 287.388   2
  -1 -11   1 11348.7 283.774   2
   1  11  -1 11368.0 236.778   6
  -1 -11   1 10728.9 174.966   4
   1  11  -1 10973.1 304.899   1
   0  11   1 36648.0 606.820   2
   0 -11  -1 34733.3 471.393   6
   0 -11   1 35442.7 480.214   4
   0 -11   1 35831.3 591.345   2
   0  11  -1 35650.4 521.582   6
   0 -11   1 35582.0 521.468   6
   0  11  -1 36622.3 597.844   2
   0  11   1 32501.3 480.113   6
   0  11   1 36835.3 604.088   5
   0 -11  -1 35762.5 599.873   5
   0  11  -1 36205.0 633.708   1
   0 -11  -1 36173.1 605.259   2
   0 -11   1 36880.5 641.459   1
  -1  11  -1 4229.06 178.291   1
   1 -11   1 4159.04 181.868   1
  -1 -11  -1 3955.06 169.868   5
   1  11   1 3638.98 180.200   1
   1  11   1 4094.10 129.568   6
  -1 -11  -1 4116.30 173.408   2
   1  11   1 4486.09 172.189   2
   1 -11   1 4251.57 123.230   6
  -1  11  -1 4249.60 159.193   2
   1 -11   1 4217.21 157.257   2
  -1 -11  -1 4198.13 117.313   6
  -1  11  -1 4037.88 121.454   6
   2 -11   1 68855.6 924.546   6
  -2 -11  -1 68930.6 1026.27   2
  -2  11  -1 67236.3 934.521   4
   2  11   1 68450.1 1064.03   1
   2 -11   1 70123.2 1054.58   1
  -2  11  -1 69974.1 1025.87   1
   2  11   1 68751.5 1020.66   2
   2 -11   1 68797.1 975.167   2
  -2 -11  -1 69039.5 946.423   6
  -2  11  -1 69923.7 986.303   2
   2  11   1 67412.6 967.285   6
  -2 -11  -1 68887.0 1012.85   5
  -2  11  -1 67896.1 920.508   6
  -3  11  -1 19180.8 405.955   3
  -3 -11  -1 18406.6 309.186   4
   3 -11   1 18769.3 341.403   6
  -3 -11  -1 19509.6 408.180   5
  -3  11  -1 18284.5 365.575   4
  -3  11  -1 18967.7 370.154   2
  -3 -11  -1 18364.6 369.179   6
  -3  11  -1 18357.0 336.486   6
  -3 -11  -1 18525.6 411.735   2
  -3  11  -1 18571.3 391.322   1
   3  11   1 18409.3 388.545   6
   3  11   1 19093.4 409.655   2
   3  11   1 19044.0 436.235   1
  -4  11  -1 10814.4 258.851   6
  -4  11  -1 10789.4 273.228   1
  -4  11  -1 10931.9 259.223   2
  -4  11  -1 11237.7 302.212   3
   4  11   1 10856.4 300.634   6
  -4 -11  -1 10823.9 285.463   6
  -4  11  -1 10586.7 248.335   6
  -4 -11  -1 10604.3 300.916   2
   4  11   1 10326.8 308.027   1
  -4 -11  -1 10732.7 240.396   4
  -4  11  -1 10791.7 287.546   4
   5  11   1 13851.6 356.957   1
  -5  11  -1 13529.8 309.007   6
  -5  11  -1 13398.1 318.404   6
  -5 -11  -1 13493.0 308.619   4
  -5  11  -1 13735.9 351.906   3
   5  11   1 13614.7 370.412   6
  -5  11  -1 12940.0 346.959   4
  -5 -11  -1 12924.4 348.684   2
  -5  11  -1 13385.1 298.017   2
  -6  11  -1 1243.35 90.3387   2
   6  11   1 1478.45 117.519   1
  -6  11  -1 1227.57 103.841   6
  -6  11  -1 1371.23 117.282   6
   6  11   1 1305.73 135.464   6
  -6 -11  -1 1226.97 120.402   2
  -6 -11  -1 1395.28 108.006   4
  -6  11  -1 1304.64 129.392   4
  -7  11  -1 4082.43 187.210   6
  -7  11  -1 4298.53 227.282   4
  -7  11  -1 3896.54 156.244   2
  -7 -11  -1 4054.97 191.126   4
   7  11   1 3974.91 177.815   1
  -7 -11  -1 3811.45 197.784   2
   7  11   1 4094.79 227.150   6
  -8 -11  -1 20164.6 487.545   2
  -8  11  -1 20649.7 479.758   6
  -8 -11  -1 19235.3 479.305   4
   8  11   1 20190.4 436.142   1
  -8  11  -1 20183.2 537.725   4
   8  11   1 20222.8 542.243   6
  -8  11  -1 19361.7 405.577   2
  -9  11  -1 6067.50 262.841   6
   9  11   1 5705.92 206.111   1
  -9 -11  -1 5753.54 265.755   4
  -9 -11  -1 5684.42 255.675   2
  -9  11  -1 5969.83 300.929   4
   9  11   1 5849.50 299.123   6
 -10  11  -1 2727.21 225.671   4
  10  11   1 2342.40 216.285   6
 -10  11  -1 2651.72 191.943   6
 -10 -11  -1 2557.32 184.945   2
 -10 -11  -1 2687.22 205.577   4
 -11 -11  -1 4488.95 246.236   2
 -11  11  -1 4774.92 264.113   6
  11  11   1 4650.84 306.267   6
 -11  11  -1 4605.33 302.736   4
 -11 -11  -1 4640.49 270.186   4
  12  11   1 29.0434 131.991   6
 -12  11  -1 216.021 140.231   4
 -12 -11  -1 256.115 110.939   2
 -12 -11  -1 163.402 112.802   4
 -12  11  -1 129.846 112.879   6
 -13  11  -1 708.914 158.671   6
 -13  11  -1 639.405 167.761   4
 -13 -11  -1 409.800 129.486   4
 -14  11  -1 4183.14 297.170   6
 -14 -12   1-29.4141 131.718   4
  14 -12  -1 30.4024 150.110   3
 -13 -12   1 11285.9 439.524   2
  13  12  -1 10890.5 489.228   6
 -13  12   1 10663.7 486.076   4
 -13  12   1 11781.1 435.699   6
 -13 -12   1 10572.7 444.722   4
 -12 -12   1 7681.34 363.224   4
 -12  12   1 8159.27 340.661   6
 -12 -12   1 8440.02 368.768   2
 -12  12   1 8872.96 419.388   4
  12  12  -1 8485.86 412.909   6
  12 -12  -1 8798.74 387.785   3
 -11  12   1 7857.05 316.757   6
  11  12  -1 7313.00 376.751   6
 -11 -12   1 7461.59 334.156   2
  11 -12  -1 7722.36 347.344   3
  10 -12  -1 56501.5 1054.52   3
 -10 -12   1 55052.3 1032.62   2
  10  12  -1 53915.7 1098.52   6
 -10  12   1 56456.3 974.892   6
  -9 -12   1 10347.5 368.526   2
   9 -12  -1 10356.9 372.694   3
  -9  12   1 10956.0 329.644   6
   9  12  -1 11377.6 410.784   6
   8 -12  -1 5808.75 264.984   3
  -8  12   1 5756.33 215.760   6
   8  12  -1 5880.55 281.897   6
  -8 -12   1 5995.69 267.682   2
  -8  12   1 6342.94 195.671   1
  -7  12   1 16873.6 363.845   6
  -7  12   1 17160.9 364.565   1
   7  12  -1 16264.3 451.182   6
   7 -12  -1 17253.8 450.385   3
  -7 -12   1 16962.6 383.275   5
  -7 -12   1 16628.9 442.713   2
  -7  12   1 15766.7 374.636   6
  -6  12   1 25457.7 487.867   1
   6  12  -1 24936.9 552.608   6
   6 -12  -1 25504.6 554.284   3
  -6  12   1 23569.2 455.048   6
  -6 -12   1 25492.1 481.803   5
  -6  12   1 25173.8 441.050   6
  -6 -12   1 25565.3 552.880   2
   5  12  -1 82881.5 1245.51   6
   5 -12  -1 84828.9 1268.70   3
  -5  12   1 84111.0 1101.52   6
   5  12  -1 85575.7 1255.67   1
  -5  12   1 83670.4 1216.43   1
  -5  12   1 86912.7 1225.10   2
  -5 -12   1 84159.5 1180.97   5
  -5 -12   1 83188.0 1263.67   2
  -5  12   1 77826.4 1115.63   6
  -4  12   1 50365.0 795.194   2
   4  12  -1 49377.1 829.605   1
  -4 -12   1 48063.2 820.740   2
  -4 -12   1 49216.6 756.410   5
  -4  12   1 47622.5 667.062   6
  -4  12   1 48614.2 807.473   1
  -4  12   1 48840.9 653.327   6
  -4 -12   1 49001.4 781.057   6
   4  12  -1 49032.8 794.421   6
  -3 -12   1 10320.0 255.234   6
  -3  12   1 10649.7 295.556   3
  -3  12   1 10310.3 295.524   1
  -3 -12   1 10389.6 257.214   5
  -3  12   1 9286.19 151.627   6
   3  12  -1 10254.0 257.740   6
  -3  12   1 9125.11 157.731   6
  -3 -12   1 10793.5 297.544   2
  -3 -12   1 10950.8 311.906   1
   3  12  -1 9942.35 300.292   1
  -3  12   1 10532.2 276.211   2
  -2  12   1 92309.2 1281.44   2
  -2 -12   1 89803.4 1292.71   2
  -2 -12   1 91143.9 1215.55   6
  -2  12   1 93381.2 1296.50   5
  -2  12   1 89336.4 1322.71   1
  -2  12   1 89954.3 1291.04   3
   2  12  -1 88009.9 1216.20   6
   2  12  -1 82592.4 1309.90   1
   2  12  -1 90616.3 1254.44   5
  -2 -12   1 94272.4 1346.29   1
   2 -12  -1 89976.6 1274.45   2
   1  12  -1 116203. 1502.67   6
  -1 -12   1 122699. 1662.09   1
   1 -12  -1 118567. 1590.21   2
  -1 -12   1 118734. 1504.86   6
  -1 -12   1 109994. 1406.84   4
  -1 -12   1 119144. 1598.35   2
  -1  12   1 121543. 1603.54   3
   1  12  -1 114821. 1634.76   1
  -1  12   1 122481. 1600.14   2
  -1  12   1 117728. 1645.62   1
   1  12  -1 121892. 1576.01   5
  -1  12   1 122763. 1604.13   5
   0 -12  -1 1883.78 127.429   2
   0 -12   1 1600.43 111.608   2
   0  12  -1 1575.38 79.8787   6
   0  12  -1 1860.84 136.729   1
   0 -12   1 1854.43 134.422   1
   0  12  -1 1785.62 115.477   5
   0 -12  -1 1557.10 57.6106   6
   0  12   1 1924.10 122.154   2
   0  12   1 1619.97 134.024   1
   0  12  -1 1644.51 108.152   2
   0 -12   1 1688.86 82.4987   6
   0  12   1 1758.13 120.520   5
   0  12   1 1612.63 66.7249   6
   1  12   1 144376. 1833.41   6
  -1 -12  -1 146786. 1813.52   6
  -1 -12  -1 144579. 1932.40   5
  -1  12  -1 148396. 1973.64   1
   1 -12   1 146526. 1824.19   6
  -1  12  -1 147058. 1919.09   2
   1 -12   1 141554. 1904.45   2
  -1  12  -1 145155. 1820.03   6
   1 -12   1 148926. 1992.58   1
   1  12   1 141904. 1996.95   1
   1  12   1 146833. 1943.57   2
  -1 -12  -1 145015. 1943.03   2
   2  12   1 21880.8 407.693   6
  -2 -12  -1 22229.7 449.742   5
   2 -12   1 23427.3 486.370   1
  -2  12  -1 23030.4 433.508   2
  -2 -12  -1 21777.0 457.474   2
   2 -12   1 21763.3 369.780   6
  -2  12  -1 22949.3 464.635   1
   2  12   1 22432.0 492.747   1
   2 -12   1 22211.3 422.703   2
  -2  12  -1 21433.3 365.774   6
  -2 -12  -1 21830.0 386.472   6
   2  12   1 22203.3 454.597   2
  -2  12  -1 21186.5 374.376   4
  -3  12  -1 14415.6 351.334   3
   3  12   1 13887.4 326.455   6
   3 -12   1 14004.2 282.576   6
   3  12   1 14431.8 352.705   2
  -3  12  -1 13618.7 275.585   6
  -3 -12  -1 13604.4 352.668   2
  -3  12  -1 14351.9 319.739   2
  -3  12  -1 13811.0 305.196   4
  -3 -12  -1 13916.5 310.761   6
   3  12   1 14366.3 377.977   1
  -3 -12  -1 13896.2 244.791   4
   3 -12   1 13755.3 310.661   2
  -3 -12  -1 14290.9 343.483   5
  -3  12  -1 13954.3 339.301   1
   4  12   1 30968.0 608.053   1
  -4  12  -1 29979.3 548.191   1
  -4 -12  -1 30278.1 553.706   6
  -4  12  -1 30576.7 529.336   2
  -4  12  -1 29821.7 548.506   4
   4  12   1 29762.9 574.051   6
  -4  12  -1 29897.0 501.546   6
  -4  12  -1 30453.8 513.438   6
  -4 -12  -1 30271.1 589.165   2
  -4 -12  -1 29571.4 480.769   4
  -4  12  -1 29751.7 574.895   3
  -4 -12  -1 29443.2 566.826   5
  -5 -12  -1 8136.73 275.623   2
  -5  12  -1 8015.53 265.163   4
   5  12   1 7852.62 272.304   1
   5  12   1 8692.64 289.154   6
  -5 -12  -1 8284.42 226.650   4
  -5  12  -1 8352.53 231.427   6
  -5  12  -1 8214.32 231.973   2
  -5  12  -1 8006.45 237.116   6
   6  12   1 1345.08 118.205   1
  -6  12  -1 1424.28 135.964   4
   6  12   1 1336.27 133.344   6
  -6  12  -1 1299.64 110.959   6
  -6  12  -1 1089.21 97.5891   6
  -6 -12  -1 1074.17 118.997   2
  -6  12  -1 1188.56 93.3013   2
  -6 -12  -1 1452.93 110.738   4
  -7  12  -1 37897.6 647.236   2
  -7  12  -1 39406.1 697.164   6
  -7 -12  -1 38709.3 741.667   2
  -7 -12  -1 38410.0 704.248   4
   7  12   1 40766.1 712.869   1
   7  12   1 38473.7 785.084   6
  -7  12  -1 37933.2 765.854   4
  -8  12  -1 6474.09 219.164   2
  -8 -12  -1 7496.66 277.894   4
  -8  12  -1 6749.46 301.057   4
  -8  12  -1 7133.93 264.586   6
   8  12   1 7200.12 250.039   1
   8  12   1 7425.88 324.731   6
  -8 -12  -1 6860.11 278.749   2
  -9 -12  -1 10018.8 347.592   4
  -9 -12  -1 9751.09 343.121   2
  -9  12  -1 9600.48 381.721   4
   9  12   1 10004.7 393.644   6
  -9  12  -1 10091.4 338.552   6
   9  12   1 9937.96 291.064   1
 -10 -12  -1 13434.7 423.821   2
 -10  12  -1 14608.4 438.210   6
 -10 -12  -1 14654.7 454.213   4
  10  12   1 14039.6 494.912   6
 -10  12  -1 13521.3 478.155   4
 -11  12  -1 230.806 138.548   4
 -11  12  -1 253.761 118.373   6
 -11 -12  -1 137.303 106.935   2
 -11 -12  -1 102.344 108.902   4
  11  12   1 345.650 142.414   6
  12  12   1 6087.05 363.133   6
 -12 -12  -1 5653.76 286.040   2
 -12  12  -1 5868.41 310.289   6
 -12  12  -1 5598.12 343.636   4
 -12 -12  -1 5255.38 299.262   4
 -13  12  -1 4447.94 291.624   6
 -13 -12  -1 3369.70 263.191   4
 -14 -13   1 2241.29 231.194   4
 -13  13   1 176.009 118.195   6
  13 -13  -1 331.334 157.391   3
 -13  13   1 170.146 131.589   4
 -13 -13   1 235.944 133.604   4
  13  13  -1 415.903 163.806   6
 -13 -13   1 361.964 138.889   2
  12  13  -1 3382.82 280.924   6
  12 -13  -1 3835.72 272.910   3
 -12 -13   1 3199.04 238.461   4
 -12 -13   1 3540.77 252.725   2
 -12  13   1 3770.24 282.440   4
 -12  13   1 3691.92 234.600   6
  11  13  -1 10850.6 453.665   6
 -11  13   1 10942.2 370.866   6
  11 -13  -1 11247.5 428.486   3
 -11 -13   1 10829.1 409.054   2
 -10  13   1 554.489 108.985   6
  10  13  -1 493.509 143.677   6
  10 -13  -1 357.288 135.730   3
 -10 -13   1 587.150 133.322   2
   9 -13  -1 3676.11 234.900   3
  -9  13   1 3878.33 191.598   6
  -9 -13   1 4086.34 197.084   5
   9  13  -1 3726.63 243.357   6
  -9 -13   1 4196.54 235.743   2
  -8  13   1 4122.11 179.216   6
  -8 -13   1 4075.65 228.449   2
   8  13  -1 3222.76 213.427   6
  -8 -13   1 3940.52 189.241   5
  -8  13   1 4398.61 169.749   1
  -8  13   1 3549.93 181.325   6
   8 -13  -1 3927.61 225.568   3
  -7  13   1 321.548 66.2962   6
  -7  13   1 275.251 64.9921   6
  -7  13   1 334.178 68.9856   1
   7  13  -1 205.697 95.2609   6
  -7 -13   1 199.531 92.8959   2
   7 -13  -1 308.024 93.2542   3
  -7 -13   1 429.146 84.2510   5
   6  13  -1 22961.9 523.629   6
  -6  13   1 22933.0 470.563   1
   6  13  -1 23592.9 511.110   1
   6 -13  -1 23166.2 530.097   3
  -6 -13   1 22685.5 460.075   5
  -6 -13   1 23608.5 533.638   2
  -6  13   1 22577.9 405.912   6
  -6  13   1 21541.5 421.234   6
  -5 -13   1 16242.2 419.627   2
  -5  13   1 16229.0 389.770   1
   5  13  -1 16239.9 403.868   6
  -5 -13   1 16571.4 365.516   5
  -5  13   1 16409.8 293.148   6
  -5  13   1 15695.5 306.311   6
   5  13  -1 16889.5 418.405   1
  -4  13   1 656.192 86.2112   2
  -4 -13   1 600.704 84.0269   6
  -4  13   1 514.066 86.6145   1
  -4 -13   1 462.237 94.9912   2
  -4 -13   1 587.469 81.5110   5
   4  13  -1 577.317 86.9279   6
  -4  13   1 528.810 44.7998   6
   4  13  -1 618.718 97.8596   1
  -4  13   1 441.905 39.1273   6
  -3 -13   1 50200.1 786.004   2
  -3  13   1 52137.2 768.154   2
   3  13  -1 47741.7 801.092   1
   3  13  -1 49909.9 722.735   6
  -3  13   1 50773.5 797.308   1
  -3 -13   1 50544.5 716.680   6
   2  13  -1 29907.3 618.456   1
  -2  13   1 32067.7 600.112   3
  -2  13   1 32214.0 597.549   5
  -2 -13   1 32704.9 531.038   6
  -2 -13   1 32520.8 641.070   1
  -2  13   1 33250.8 591.581   2
   2  13  -1 31942.8 532.016   6
   2 -13  -1 31427.5 580.737   2
  -2 -13   1 32220.7 601.621   2
   2  13  -1 33336.1 575.251   5
  -2  13   1 31747.9 622.197   1
   1  13  -1 33487.1 593.932   2
  -1  13   1 33663.5 598.487   5
  -1  13   1 34764.9 597.008   2
   1 -13  -1 33336.8 588.115   2
  -1 -13   1 32889.4 507.681   6
   1  13  -1 32537.1 507.756   6
  -1 -13   1 33567.6 638.315   1
  -1  13   1 32300.8 629.322   1
   1  13  -1 32664.4 626.721   1
  -1 -13   1 33061.3 593.559   2
  -1  13   1 33459.3 595.650   3
   1  13  -1 34267.2 578.100   5
   0 -13  -1 56134.0 895.559   2
   0  13  -1 60585.8 901.840   2
   0 -13  -1 56122.5 735.394   6
   0  13   1 57819.3 954.309   1
   0 -13   1 59683.2 956.550   1
   0 -13   1 57868.4 793.219   6
   0  13  -1 58390.6 939.964   1
   0  13   1 52195.8 745.520   6
   0 -13   1 57752.3 886.589   2
   0  13   1 58787.7 904.079   2
   0  13  -1 57442.9 792.401   6
   0  13  -1 59109.6 894.454   5
   0  13   1 58827.9 901.448   5
  -1  13  -1 938.092 111.152   1
  -1 -13  -1 777.584 105.854   2
   1 -13   1 529.924 89.0894   1
   1 -13   1 734.593 59.2261   6
  -1  13  -1 712.769 85.1534   2
   1 -13   1 932.003 97.7763   2
   1  13   1 748.206 66.2652   6
   1  13   1 684.984 106.104   1
  -1 -13  -1 694.868 93.5449   5
  -1 -13  -1 748.014 55.5273   6
  -1  13  -1 1008.76 72.2975   6
   1  13   1 901.060 100.385   2
   2  13   1 25339.6 544.422   1
   2  13   1 24419.3 446.022   6
  -2  13  -1 24275.8 411.228   4
   2  13   1 26086.7 512.960   2
  -2 -13  -1 24445.0 424.031   6
  -2 -13  -1 24751.7 507.890   2
  -2  13  -1 25746.2 515.253   1
  -2  13  -1 24269.4 402.664   6
   2 -13   1 23881.2 463.802   2
  -2 -13  -1 24917.1 497.934   5
  -2  13  -1 25549.4 480.413   2
   2 -13   1 25066.5 408.836   6
   3  13   1 24657.0 476.424   6
  -3  13  -1 24273.5 442.937   4
  -3  13  -1 24605.4 413.886   6
  -3 -13  -1 24321.3 496.233   5
   3 -13   1 24368.3 463.807   2
  -3  13  -1 24975.3 475.328   2
   3  13   1 24944.2 542.831   1
  -3 -13  -1 24518.1 514.814   2
  -3 -13  -1 24750.6 453.985   6
   3 -13   1 24067.7 417.219   6
  -3  13  -1 25219.0 503.523   1
  -4  13  -1 4309.02 171.224   2
  -4 -13  -1 4017.59 171.291   6
  -4  13  -1 4277.57 173.686   4
  -4 -13  -1 4060.87 199.332   2
  -4  13  -1 4399.41 181.956   1
  -4 -13  -1 4261.37 133.643   4
   4  13   1 4106.17 202.787   1
  -4 -13  -1 4048.18 188.787   5
  -4  13  -1 4285.10 153.971   6
  -4  13  -1 4116.26 146.677   6
   4  13   1 4312.06 192.294   6
   5  13   1 34780.7 674.664   1
  -5  13  -1 35773.5 586.524   6
  -5 -13  -1 34778.2 675.914   2
  -5  13  -1 34069.9 599.300   2
  -5  13  -1 33952.7 594.516   6
  -5 -13  -1 34454.9 569.553   4
  -5  13  -1 34871.9 649.005   4
   5  13   1 34446.1 669.816   6
  -6  13  -1 17840.4 390.387   6
  -6 -13  -1 18228.9 392.618   4
  -6  13  -1 18783.5 460.315   4
  -6 -13  -1 17843.3 453.866   2
  -6  13  -1 17630.0 408.515   6
   6  13   1 18548.9 445.413   1
  -6  13  -1 17722.1 386.178   2
   6  13   1 18010.3 473.909   6
  -7 -13  -1 5839.32 224.264   4
  -7  13  -1 5439.90 214.496   6
  -7  13  -1 5385.68 198.505   2
  -7 -13  -1 5845.15 260.141   2
   7  13   1 6174.45 240.125   1
   7  13   1 5518.26 268.259   6
  -7  13  -1 5612.66 259.957   4
  -8  13  -1 12314.2 351.963   6
  -8 -13  -1 11859.3 380.613   2
  -8 -13  -1 12126.9 358.698   4
  -8  13  -1 11922.5 404.304   4
   8  13   1 11589.5 413.531   6
   8  13   1 12446.7 349.504   1
   9  13   1 1416.60 173.466   6
  -9  13  -1 1724.82 148.313   6
   9  13   1 1608.27 125.454   1
  -9 -13  -1 1670.51 161.838   2
  -9 -13  -1 1854.32 157.608   4
  -9  13  -1 1786.50 179.839   4
 -10  13  -1 559.919 114.825   6
 -10 -13  -1 451.162 115.186   2
  10  13   1 399.734 140.972   6
 -10 -13  -1 444.266 109.846   4
 -10  13  -1 474.868 134.082   4
 -11 -13  -1 12374.3 433.391   4
 -11 -13  -1 12481.5 424.482   2
 -11  13  -1 11384.6 469.718   4
  11  13   1 12171.2 484.828   6
 -11  13  -1 13001.0 432.042   6
  12  13   1 513.467 157.216   6
 -12 -13  -1 506.624 130.005   4
 -12  13  -1 396.826 141.663   4
 -12  13  -1 512.683 137.695   6
 -12 -13  -1 323.609 112.964   2
 -13 -13  -1 1531.27 198.370   4
 -13  13  -1 1528.49 201.695   6
 -14 -14   1 103.707 129.876   4
 -13 -14   1 1109.65 183.389   2
 -13  14   1 797.127 164.976   4
 -13 -14   1 840.363 160.643   4
 -12 -14   1 88.1131 126.564   2
 -12  14   1 250.700 107.903   6
  12  14  -1-7.95428 139.622   6
 -12 -14   1-119.327 118.885   4
 -12  14   1-173.099 131.193   4
  11  14  -1 323.568 157.300   6
 -11 -14   1 436.404 108.630   5
 -11  14   1 489.193 123.516   6
 -11 -14   1 608.150 146.083   2
 -11 -14   1 380.511 117.221   4
  11 -14  -1 611.481 152.718   3
 -11  14   1 537.823 164.301   4
 -10  14   1 824.489 116.613   6
  10  14  -1 813.883 161.257   6
  10 -14  -1 730.660 139.510   3
 -10 -14   1 902.218 146.477   2
 -10 -14   1 1000.67 123.177   5
  -9  14   1 1795.14 138.115   6
  -9 -14   1 2308.40 190.390   2
   9  14  -1 1835.87 191.207   6
   9 -14  -1 2013.48 184.773   3
  -9 -14   1 1614.18 137.002   5
  -8  14   1 200.520 73.5394   6
  -8  14   1 171.981 67.2705   1
  -8 -14   1 251.042 102.681   2
  -8 -14   1 137.981 81.8180   5
   8 -14  -1 122.979 102.372   3
   8  14  -1 220.737 102.714   6
   7  14  -1 313.685 102.296   6
  -7  14   1 319.983 74.6083   6
  -7 -14   1 226.189 82.2754   5
  -7 -14   1 155.786 89.6427   2
  -7  14   1 282.978 62.2660   6
  -7  14   1 218.119 70.5358   1
   6  14  -1 5641.47 239.950   1
  -6  14   1 5476.31 163.806   6
  -6  14   1 5745.38 220.607   1
  -6  14   1 5386.76 175.931   6
  -6 -14   1 5660.40 210.800   5
  -6 -14   1 5530.43 251.090   2
   6  14  -1 5559.39 248.375   6
   5  14  -1 688.181 98.1543   6
  -5 -14   1 735.159 91.1540   5
  -5  14   1 526.492 50.5254   6
  -5  14   1 637.152 58.9376   6
   5  14  -1 526.012 102.033   1
  -5 -14   1 487.326 99.5074   2
  -5  14   1 746.378 98.2284   1
   4  14  -1 15321.4 408.643   1
  -4  14   1 15664.8 395.273   1
  -4 -14   1 14785.7 352.679   6
  -4  14   1 14883.5 246.285   6
   4  14  -1 14866.1 368.266   6
  -4 -14   1 15013.2 398.773   2
  -4  14   1 14645.3 236.872   6
  -4 -14   1 15602.2 354.522   5
   3  14  -1 389.697 102.579   1
  -3  14   1 356.293 86.6497   1
   3  14  -1 226.330 66.5392   6
  -3 -14   1 358.082 88.4147   2
  -3 -14   1 286.805 61.1093   6
   2  14  -1 3154.72 135.566   6
  -2 -14   1 2869.10 128.431   6
  -2  14   1 3177.32 178.353   1
  -2 -14   1 3100.45 169.972   2
   2  14  -1 3341.69 189.494   1
   2 -14  -1 3387.73 166.060   2
   2  14  -1 3341.77 158.228   5
   1  14  -1 4451.99 147.140   6
  -1  14   1 4052.87 90.7437   4
  -1 -14   1 4638.25 147.662   6
   1 -14  -1 4645.89 195.281   2
   1  14  -1 4880.03 190.801   5
  -1 -14   1 4372.09 193.437   2
   1  14  -1 4655.48 193.925   2
  -1  14   1 5034.18 224.168   1
   1  14  -1 4583.26 213.959   1
   0  14  -1 3286.78 119.392   6
   0 -14  -1 3407.83 172.571   2
   0  14  -1 3295.44 162.490   5
   0  14   1 3141.00 98.1120   6
   0 -14   1 3203.40 162.321   2
   0  14  -1 3215.76 161.261   2
   0  14   1 3443.18 172.751   5
   0  14  -1 3588.62 193.417   1
   0 -14  -1 3108.82 88.5544   6
   0 -14   1 3550.37 122.337   6
   0  14   1 3195.48 185.652   1
   1 -14   1 1559.12 116.264   2
  -1  14  -1 1715.61 117.557   2
   1 -14   1 1682.40 81.9505   6
   1  14   1 1817.53 146.416   1
   1  14   1 1678.43 88.7735   6
  -1 -14  -1 1770.83 131.299   2
  -1 -14  -1 1665.59 77.8028   6
  -1 -14  -1 1993.54 135.451   5
  -1  14  -1 2142.38 148.212   1
  -1  14  -1 1765.93 85.2600   6
  -2 -14  -1 11613.7 321.104   5
   2 -14   1 11635.2 242.162   6
  -2  14  -1 11845.3 308.551   2
   2 -14   1 11506.0 298.093   2
  -2 -14  -1 11488.0 255.053   6
   2  14   1 11366.8 351.090   1
  -2  14  -1 11260.0 242.493   4
  -2  14  -1 11380.9 237.786   6
  -2  14  -1 12303.7 337.434   1
   2  14   1 11333.7 274.049   6
  -2 -14  -1 11031.7 323.048   2
  -3 -14  -1 3652.61 183.939   5
  -3  14  -1 3498.59 172.719   1
  -3 -14  -1 3594.08 147.540   6
   3 -14   1 3445.42 127.242   6
   3  14   1 3811.84 167.099   6
  -3  14  -1 3670.72 128.494   6
  -3 -14  -1 3358.63 182.434   2
  -3  14  -1 3546.85 141.553   4
  -3  14  -1 3644.70 165.288   2
   3  14   1 3671.08 202.670   1
   3 -14   1 3845.41 167.895   2
  -4  14  -1 2957.21 157.025   1
  -4 -14  -1 2847.93 174.699   2
  -4  14  -1 3123.95 132.108   6
  -4  14  -1 2993.45 125.252   6
   4  14   1 3055.68 165.148   6
   4  14   1 3212.59 189.699   1
  -4  14  -1 2796.40 143.563   4
  -4  14  -1 3067.11 151.001   2
  -4 -14  -1 3157.31 152.374   6
  -4 -14  -1 3154.55 175.953   5
  -4 -14  -1 3159.99 111.460   4
  -5 -14  -1 160.096 88.6395   2
  -5 -14  -1 125.702 89.7380   5
  -5  14  -1 282.291 65.7239   6
  -5  14  -1 402.301 67.5033   6
   5  14   1 339.167 87.9330   1
   5  14   1 314.994 91.3513   6
  -5  14  -1 277.457 75.0546   4
  -5 -14  -1 185.113 49.6254   4
  -5  14  -1 269.603 67.8768   2
  -6  14  -1 1862.61 122.842   2
  -6  14  -1 1913.44 122.322   6
   6  14   1 2165.97 172.619   6
  -6  14  -1 2165.08 156.086   4
  -6 -14  -1 1716.85 152.111   2
   6  14   1 2011.37 153.511   1
  -6 -14  -1 1982.23 118.511   4
  -6  14  -1 1886.29 130.144   6
  -7 -14  -1 8549.84 269.591   4
   7  14   1 8877.50 339.219   6
  -7  14  -1 8663.80 271.168   6
   7  14   1 8747.65 298.660   1
  -7  14  -1 8565.59 320.941   4
  -7 -14  -1 8826.48 322.385   2
  -7  14  -1 7959.40 253.408   2
   8  14   1 285.585 86.4492   1
  -8  14  -1 111.474 98.1199   4
   8  14   1 182.440 116.764   6
  -8 -14  -1 370.609 90.8441   4
  -8 -14  -1 203.757 104.983   2
  -8  14  -1 162.417 78.4595   6
   9  14   1 2472.28 159.803   1
  -9  14  -1 2516.03 173.175   6
   9  14   1 2394.81 213.275   6
  -9  14  -1 2279.65 203.212   4
  -9 -14  -1 2696.29 198.233   2
  -9 -14  -1 2889.98 186.856   4
 -10  14  -1 132.263 93.6592   6
 -10 -14  -1 136.965 88.0099   4
 -10 -14  -1-23.1025 95.2877   2
  10  14   1-55.2089 125.255   6
 -10  14  -1 112.295 116.507   4
  11  14   1 631.786 169.038   6
 -11  14  -1 406.372 112.633   6
 -11 -14  -1 414.525 119.401   4
 -11 -14  -1 448.420 129.104   2
 -11  14  -1 274.536 138.580   4
  12  14   1 121.116 126.483   6
 -12  14  -1 101.073 112.500   6
 -12 -14  -1-170.239 123.080   2
 -12 -14  -1-34.6816 105.101   4
 -12  14  -1-91.4444 128.823   4
 -13  14  -1 137.930 125.185   6
 -13 -14  -1 437.906 143.649   4
 -13  15   1 476.824 172.298   4
 -13 -15   1 544.058 154.354   4
 -13 -15   1 194.858 147.286   2
  12  15  -1 746.906 175.678   6
 -12 -15   1 552.570 128.484   4
 -12 -15   1 654.353 155.890   2
 -12  15   1 581.704 152.554   4
 -11 -15   1 20314.4 561.446   4
 -11  15   1 21143.5 521.679   6
  11  15  -1 20533.8 647.119   6
 -11 -15   1 20733.1 599.983   2
 -11  15   1 21294.8 635.739   4
 -10  15   1 1899.21 193.606   4
 -10 -15   1 2061.40 197.464   2
 -10  15   1 2394.63 163.382   6
  10  15  -1 2221.31 220.467   6
 -10 -15   1 2475.21 173.150   5
  -9  15   1 7556.92 260.013   6
  -9 -15   1 8098.62 287.162   5
   9  15  -1 7596.88 349.462   6
  -9 -15   1 8385.96 341.839   2
  -8 -15   1 26708.8 556.067   5
  -8  15   1 27014.1 510.934   6
   8  15  -1 27110.1 653.477   6
  -8  15   1 26901.4 530.864   1
  -8 -15   1 25217.9 623.785   2
  -7  15   1 6207.89 192.113   6
   7  15  -1 6226.03 282.053   6
  -7  15   1 5890.47 202.341   6
  -7  15   1 5942.95 225.555   1
  -7 -15   1 6244.34 237.960   5
  -7 -15   1 6401.46 281.907   2
  -6  15   1 35108.9 657.395   1
  -6  15   1 35909.4 544.581   6
   6  15  -1 36147.3 711.358   1
  -6 -15   1 34250.7 712.422   2
  -6 -15   1 33889.3 635.794   5
  -6  15   1 33180.0 555.820   6
   6  15  -1 35355.9 703.574   6
  -5  15   1 8490.97 191.827   6
   5  15  -1 8847.26 289.805   6
   5  15  -1 8798.81 311.349   1
  -5  15   1 8595.13 287.164   1
  -5 -15   1 8498.65 308.779   2
  -5 -15   1 8805.49 267.850   5
  -5  15   1 8522.20 181.110   6
  -4 -15   1 4569.74 183.971   6
  -4 -15   1 4537.42 222.689   2
   4  15  -1 4572.03 199.083   6
   4  15  -1 4583.19 227.967   1
  -4  15   1 4001.53 94.9038   6
  -4 -15   1 4194.21 180.831   5
  -4  15   1 4889.74 218.851   1
   3  15  -1 120208. 1781.55   1
  -3 -15   1 124534. 1657.00   6
   3  15  -1 121150. 1661.92   6
  -3 -15   1 124188. 1755.96   2
  -3  15   1 124145. 1768.43   1
   2 -15  -1 26880.2 542.530   2
   2  15  -1 27299.6 529.634   5
   2  15  -1 25327.0 576.196   1
   2  15  -1 26555.7 475.758   6
  -2  15   1 26095.5 576.929   1
  -2 -15   1 26623.1 472.403   6
  -2 -15   1 27026.6 558.680   2
   1  15  -1 27586.9 448.751   6
   1 -15  -1 28092.7 542.101   2
  -1 -15   1 27422.5 446.549   6
  -1  15   1 27986.4 586.154   1
  -1 -15   1 28962.7 552.690   2
   1  15  -1 26368.0 576.405   1
   1  15  -1 29359.1 537.741   5
   0  15  -1 43432.6 630.812   6
   0  15   1 39419.4 581.935   6
   0  15   1 42926.3 799.081   1
   0 -15   1 43151.6 737.257   2
   0 -15  -1 43806.7 754.205   2
   0  15  -1 43399.1 789.464   1
   0 -15  -1 41930.9 570.526   6
   0 -15   1 43188.7 631.194   6
  -1  15  -1 10189.1 322.365   1
   1 -15   1 9803.35 214.555   6
  -1  15  -1 9142.00 208.785   6
  -1 -15  -1 9004.44 291.585   2
  -1  15  -1 9662.48 288.428   2
   1 -15   1 9256.63 278.701   2
   1  15   1 9829.51 332.489   1
  -1 -15  -1 9640.41 295.947   5
  -1 -15  -1 9270.70 201.368   6
   1  15   1 8997.18 216.094   6
   2 -15   1 13763.6 275.568   6
  -2  15  -1 13830.8 273.427   6
   2 -15   1 14168.9 349.435   2
  -2 -15  -1 13958.1 293.358   6
   2  15   1 14108.4 315.533   6
  -2 -15  -1 14364.2 368.857   5
  -2  15  -1 14504.4 360.280   2
  -2 -15  -1 13417.1 371.139   2
  -2  15  -1 14429.0 383.954   1
   2  15   1 14239.2 407.247   1
   3  15   1 57316.1 990.082   1
  -3  15  -1 56731.8 804.464   6
   3 -15   1 55507.4 893.840   2
  -3  15  -1 57382.3 942.534   1
  -3  15  -1 56322.6 904.576   2
  -3 -15  -1 56710.2 855.209   6
   3 -15   1 56545.4 809.638   6
  -3  15  -1 54928.0 832.172   4
  -3 -15  -1 56434.6 954.746   2
  -3 -15  -1 56802.3 933.258   5
   3  15   1 57679.3 889.107   6
  -4 -15  -1 2296.72 134.200   6
  -4 -15  -1 2204.87 154.505   5
  -4  15  -1 2101.20 140.535   1
  -4  15  -1 2234.59 115.433   6
  -4  15  -1 2370.82 139.749   2
  -4 -15  -1 2199.48 88.2124   4
  -4  15  -1 2213.33 109.778   6
  -4 -15  -1 2120.00 160.339   2
  -4  15  -1 2213.63 129.388   4
   4  15   1 2320.88 171.553   1
   4  15   1 2275.21 145.903   6
  -5  15  -1 18324.8 388.825   6
  -5  15  -1 18133.5 426.287   4
   5  15   1 18923.3 463.873   6
   5  15   1 19482.4 484.562   1
  -5 -15  -1 18644.6 355.023   4
  -5 -15  -1 18855.7 482.174   2
  -5  15  -1 18645.7 376.726   6
  -5 -15  -1 18376.9 453.491   5
  -5  15  -1 18405.5 419.406   2
  -6  15  -1 62468.7 1028.86   4
  -6  15  -1 60274.9 965.579   2
   6  15   1 63908.7 1056.37   1
  -6  15  -1 60707.9 963.219   6
   6  15   1 62255.0 1066.63   6
  -6 -15  -1 60858.9 923.279   4
  -6 -15  -1 61616.1 1065.71   2
  -6  15  -1 61055.6 934.359   6
  -6 -15  -1 62272.3 1039.01   5
  -7 -15  -1 2814.49 198.359   2
  -7  15  -1 2852.99 156.797   6
   7  15   1 2676.84 200.262   6
  -7 -15  -1 3078.62 160.083   4
  -7 -15  -1 3149.53 201.026   5
   7  15   1 2904.96 183.742   1
  -7  15  -1 3010.78 195.857   4
  -8 -15  -1 38052.3 712.966   4
   8  15   1 39012.3 748.431   1
  -8  15  -1 37000.1 793.416   4
   8  15   1 37891.3 828.078   6
  -8  15  -1 38522.3 710.382   6
  -8 -15  -1 37484.5 790.585   2
  -9  15  -1 11389.9 353.241   6
   9  15   1 11526.0 433.642   6
   9  15   1 11016.1 346.577   1
  -9 -15  -1 10875.7 352.166   4
  -9 -15  -1 10917.0 393.738   2
  -9  15  -1 10685.7 407.983   4
 -10  15  -1 5511.03 262.404   6
 -10 -15  -1 5678.43 292.169   2
  10  15   1 5611.44 326.883   6
 -10  15  -1 5258.99 301.811   4
 -10 -15  -1 5233.47 259.386   4
 -11  15  -1 10598.6 451.691   4
 -11 -15  -1 10810.6 399.289   4
 -11  15  -1 10999.9 393.231   6
  11  15   1 11305.6 478.090   6
 -11 -15  -1 11421.6 423.282   2
 -12 -15  -1 157.102 120.374   4
 -12  15  -1 145.636 115.289   6
 -12  15  -1 17.3012 127.682   4
  12  15   1 45.9321 133.441   6
 -13 -16   1 15185.2 548.688   2
  12  16  -1 3093.74 274.954   6
 -12 -16   1 2884.69 244.294   2
 -12 -16   1 2766.45 221.179   4
 -12  16   1 3015.17 264.072   4
 -11  16   1 238.203 126.575   4
 -11 -16   1 238.379 136.795   2
  11  16  -1 79.0482 127.614   6
 -11 -16   1 178.351 98.9510   4
 -10 -16   1 9201.39 319.665   5
 -10 -16   1 8830.01 331.913   4
 -10  16   1 9369.20 390.909   4
 -10  16   1 9119.77 301.528   6
  10  16  -1 8935.09 396.729   6
 -10 -16   1 8794.28 378.573   2
  -9 -16   1 3752.23 245.382   2
   9  16  -1 3909.07 253.476   6
  -9  16   1 3743.65 178.496   6
  -9 -16   1 3916.91 206.817   5
  -9  16   1 3841.39 179.140   1
  -8 -16   1 4848.64 220.162   5
  -8  16   1 4861.79 184.523   6
  -8 -16   1 4630.22 257.634   2
   8  16  -1 4531.67 259.059   6
  -8  16   1 4828.67 205.440   1
  -7  16   1 44436.7 681.920   6
   7  16  -1 44252.7 863.864   6
  -7  16   1 42191.9 697.719   6
  -7  16   1 44388.7 781.646   1
  -7 -16   1 43910.6 868.994   2
  -7 -16   1 45421.3 787.587   5
  -6  16   1 1245.38 75.2811   6
   6  16  -1 1286.67 143.931   1
  -6  16   1 1184.50 81.7114   6
  -6 -16   1 1196.04 120.028   5
  -6  16   1 1208.70 119.776   1
   6  16  -1 1221.62 133.531   6
  -6 -16   1 1083.09 138.103   2
   5  16  -1 21218.2 487.568   6
  -5 -16   1 20892.9 520.962   2
   5  16  -1 22369.2 534.364   1
  -5 -16   1 20790.8 455.960   5
  -5  16   1 21304.1 492.581   1
  -5  16   1 19964.4 335.776   6
  -5  16   1 20587.4 327.508   6
  -4 -16   1 78585.4 1213.91   2
   4  16  -1 80502.1 1152.31   6
  -4  16   1 78397.3 1199.76   1
  -4  16   1 71246.8 908.099   6
   4  16  -1 79045.0 1234.59   1
   3  16  -1 5207.47 195.556   6
  -3 -16   1 5190.74 236.879   2
  -3  16   1 5550.99 242.022   1
  -3 -16   1 5312.93 193.341   6
   3  16  -1 4952.45 243.108   1
   2  16  -1 68087.4 1169.28   1
  -2 -16   1 72951.1 1144.83   2
  -2 -16   1 72542.7 1026.56   6
  -2  16   1 72134.1 1174.97   1
   2  16  -1 72271.9 1031.70   6
  -2  16   1 71082.4 937.442   4
   2 -16  -1 71393.7 1119.89   2
   1  16  -1 69795.2 1175.19   1
   1  16  -1 72050.1 1009.46   6
  -1 -16   1 71026.0 1004.84   6
  -1 -16   1 73543.4 1135.55   2
  -1  16   1 73507.5 1191.88   1
   1 -16  -1 73218.5 1131.52   2
   0  16   1 55.1093 34.3964   6
   0  16   1 94.6196 83.6562   1
   0 -16   1 126.596 44.3204   6
   0  16  -1 27.6269 41.0763   6
   0 -16  -1 5.50683 73.0848   2
   0 -16   1 0.26905 75.8446   2
   0  16  -1 267.769 102.161   1
   0 -16  -1 4.11424 26.7914   6
   1 -16   1 49648.2 836.591   2
  -1  16  -1 51294.4 900.033   1
  -1  16  -1 51004.0 719.145   6
  -1 -16  -1 49625.0 704.837   6
   1  16   1 48789.8 728.015   6
  -1 -16  -1 50414.3 868.683   2
   1  16   1 49393.0 916.542   1
   1 -16   1 50118.7 720.251   6
  -2 -16  -1 47531.5 712.148   6
   2 -16   1 46405.1 794.843   2
   2  16   1 46889.0 882.944   1
   2  16   1 45824.3 734.824   6
  -2  16  -1 49127.1 856.852   1
  -2  16  -1 47854.3 686.761   6
  -2 -16  -1 46721.2 821.108   5
   2 -16   1 46823.7 686.930   6
  -2 -16  -1 46227.7 834.147   2
  -3  16  -1 8240.30 288.658   1
  -3 -16  -1 7819.41 281.418   5
   3 -16   1 8045.45 205.912   6
  -3 -16  -1 8338.94 238.938   6
  -3 -16  -1 8776.21 305.268   2
   3  16   1 9078.24 264.473   6
  -3  16  -1 8338.58 225.472   4
   3  16   1 8658.83 321.971   1
   3 -16   1 8315.93 266.763   2
  -3  16  -1 8440.94 206.357   6
  -4  16  -1 28789.2 595.281   1
   4  16   1 29788.9 587.008   6
  -4  16  -1 29219.2 539.150   4
   4  16   1 30368.2 654.192   1
  -4 -16  -1 28403.9 552.577   6
  -4 -16  -1 29551.8 609.258   5
  -4  16  -1 28853.1 501.283   6
  -4 -16  -1 28915.4 626.855   2
  -4  16  -1 29347.7 495.052   6
  -5 -16  -1 12494.2 265.633   4
  -5  16  -1 11944.8 332.026   4
  -5 -16  -1 11713.1 358.480   5
  -5  16  -1 12284.5 288.236   6
   5  16   1 12726.9 390.433   1
  -5  16  -1 12079.3 300.750   6
   5  16   1 12051.2 363.295   6
  -5 -16  -1 12266.8 387.096   2
   6  16   1 10739.6 361.363   6
  -6 -16  -1 10357.5 340.292   5
  -6  16  -1 9755.03 288.226   6
  -6  16  -1 10112.5 325.278   4
  -6 -16  -1 9838.64 258.742   4
  -6  16  -1 10316.5 276.274   6
  -6 -16  -1 9873.01 355.074   2
   6  16   1 10183.6 347.546   1
   7  16   1 32639.7 683.889   1
  -7  16  -1 32063.1 597.883   6
   7  16   1 31825.8 710.059   6
  -7 -16  -1 31473.2 702.881   2
  -7 -16  -1 32457.8 685.792   5
  -7 -16  -1 31174.6 587.481   4
  -7  16  -1 32026.4 682.348   4
  -8  16  -1 221.234 78.8651   6
   8  16   1 417.533 98.3755   1
   8  16   1 230.650 105.310   6
  -8 -16  -1 286.470 113.094   5
  -8 -16  -1 348.699 86.4473   4
  -8 -16  -1 176.431 105.629   2
  -8  16  -1 378.368 114.562   4
  -9  16  -1 12661.6 373.767   6
   9  16   1 12715.2 386.058   1
  -9 -16  -1 12167.4 426.282   2
  -9 -16  -1 12068.9 371.287   4
   9  16   1 12946.6 462.446   6
  -9 -16  -1 12550.5 416.291   5
  -9  16  -1 12432.4 436.020   4
 -10  16  -1 5441.85 256.679   6
  10  16   1 5233.70 314.261   6
 -10  16  -1 4547.26 281.424   4
 -10 -16  -1 4855.17 280.240   2
 -10 -16  -1 4713.72 244.365   4
 -11  16  -1 131.490 137.544   4
  11  16   1 446.276 157.059   6
 -11  16  -1 182.946 100.838   6
 -11 -16  -1-79.1934 96.2354   4
 -11 -16  -1 129.217 124.131   2
  12  16   1 9069.85 450.886   6
 -12 -16  -1 9736.56 410.876   2
 -12  16  -1 8658.55 429.504   4
 -13 -17   1 1531.30 216.532   2
 -12 -17   1 193.072 134.593   2
 -12  17   1-190.591 135.058   4
  12  17  -1-216.478 137.854   6
 -11 -17   1-47.8302 84.1424   4
  11  17  -1 47.2706 140.657   6
 -11 -17   1 111.986 122.678   2
 -11  17   1-64.8380 131.867   4
 -10 -17   1 174.430 117.838   2
  10  17  -1 100.596 120.000   6
 -10 -17   1 40.0645 86.8915   5
 -10 -17   1 140.087 84.5566   4
 -10  17   1 284.927 116.776   4
   9  17  -1 766.846 140.125   6
  -9  17   1 962.046 101.496   6
  -9 -17   1 1072.42 130.414   5
  -9 -17   1 745.356 102.169   4
  -9 -17   1 1032.99 156.160   2
  -9  17   1 1108.68 110.128   1
  -9  17   1 1251.94 158.101   4
  -8 -17   1 3468.43 196.292   5
  -8 -17   1 3564.38 237.851   2
  -8  17   1 3600.68 153.975   6
   8  17  -1 3786.49 244.253   6
  -8  17   1 3469.81 214.170   4
  -8  17   1 3668.91 187.825   1
   7  17  -1 5914.68 277.592   6
  -7 -17   1 6516.45 254.591   5
  -7  17   1 5816.08 242.648   1
  -7  17   1 6054.73 181.302   6
  -7 -17   1 6280.19 295.506   2
  -6  17   1 5960.27 155.796   6
  -6  17   1 5696.06 163.508   6
   6  17  -1 5799.21 258.570   6
   6  17  -1 6495.56 283.033   1
  -6  17   1 5967.85 248.451   1
  -6 -17   1 6014.20 278.982   2
  -6 -17   1 5899.65 236.523   5
   5  17  -1 3515.88 214.056   1
  -5 -17   1 3278.87 176.788   5
  -5  17   1 3104.18 184.668   1
  -5  17   1 3067.61 90.8796   6
   5  17  -1 3156.00 182.067   6
  -5 -17   1 3210.56 206.217   2
   4  17  -1 3152.64 169.164   6
   4  17  -1 2955.58 200.411   1
  -4 -17   1 2736.28 190.651   2
  -4  17   1 2995.69 140.590   4
  -4  17   1 3116.87 189.062   1
   3  17  -1 346.212 99.6047   1
  -3 -17   1 597.173 113.793   2
  -3  17   1 449.070 56.4757   4
   3  17  -1 571.546 84.6261   6
  -3  17   1 508.559 100.588   1
  -3 -17   1 517.361 74.6904   6
   2  17  -1 793.670 85.3436   6
  -2  17   1 756.241 118.413   1
  -2 -17   1 611.254 106.705   2
   2  17  -1 812.778 133.694   1
  -2  17   1 572.449 43.5681   4
   2 -17  -1 864.140 114.870   2
  -2 -17   1 748.869 80.2194   6
   1 -17  -1 2501.99 170.737   2
  -1  17   1 2529.90 181.246   1
  -1 -17   1 2409.66 163.210   2
   1  17  -1 2367.09 116.789   6
  -1 -17   1 2266.44 114.761   6
   1  17  -1 2291.21 182.672   1
   0  17  -1 8980.23 217.041   6
   0 -17  -1 8979.30 305.213   2
   0  17   1 9000.61 335.748   1
   0 -17  -1 8870.40 174.726   6
   0  17   1 8475.37 183.751   6
   0  17  -1 9244.36 331.493   1
   0 -17   1 9238.47 297.984   2
   0 -17   1 8927.07 216.843   6
  -1  17  -1 744.044 120.979   1
   1  17   1 877.974 75.3361   6
   1 -17   1 891.799 72.9221   6
   1 -17   1 827.930 105.283   2
  -1 -17  -1 1086.25 129.657   2
   1  17   1 1084.39 142.089   1
  -1  17  -1 1027.17 72.4472   6
  -1 -17  -1 881.204 63.0929   6
   2  17   1 6016.78 273.603   1
  -2  17  -1 5519.18 158.018   6
  -2 -17  -1 5339.21 169.717   6
  -2  17  -1 5646.09 248.182   1
   2 -17   1 5632.13 226.859   2
   2 -17   1 5315.98 158.004   6
   2  17   1 5535.43 188.106   6
  -2 -17  -1 5513.76 247.400   2
  -2 -17  -1 5851.16 244.190   5
  -3  17  -1 677.806 65.3495   6
   3 -17   1 700.749 100.174   2
   3 -17   1 690.876 65.5336   6
   3  17   1 604.731 114.665   1
   3  17   1 791.624 93.4008   6
  -3 -17  -1 742.822 115.912   5
  -3  17  -1 671.347 71.2412   4
  -3 -17  -1 775.655 82.3245   6
  -3 -17  -1 502.115 100.081   2
  -3  17  -1 712.553 101.835   1
  -4  17  -1 422.665 86.7293   1
  -4 -17  -1 418.916 102.339   2
  -4 -17  -1 571.613 106.159   5
  -4  17  -1 358.632 60.1768   6
   4  17   1 553.443 92.9067   6
  -4  17  -1 399.495 58.4103   6
   4  17   1 480.344 105.388   1
  -4  17  -1 395.464 68.8389   4
  -5  17  -1 24158.3 449.083   6
  -5 -17  -1 23794.8 580.768   2
  -5 -17  -1 24154.8 557.955   5
  -5  17  -1 23654.2 462.182   6
  -5  17  -1 24595.0 510.602   4
   5  17   1 24641.0 554.718   6
   5  17   1 24607.5 590.002   1
  -5 -17  -1 24063.3 409.392   4
  -6  17  -1 444.349 83.2369   6
  -6  17  -1 392.305 69.1582   6
   6  17   1 554.346 109.882   1
  -6 -17  -1 382.542 103.334   2
  -6 -17  -1 446.267 115.357   5
   6  17   1 511.869 107.315   6
  -6 -17  -1 451.804 66.3204   4
  -6  17  -1 484.629 99.0909   4
  -7  17  -1 192.147 68.9223   6
  -7 -17  -1 207.425 102.368   5
   7  17   1 325.137 115.079   6
  -7  17  -1 226.298 89.8195   4
   7  17   1 298.462 103.307   1
  -7 -17  -1 337.900 70.8008   4
  -7 -17  -1 109.404 101.489   2
  -8 -17  -1 4437.77 259.136   2
  -8 -17  -1 4451.35 200.989   4
  -8 -17  -1 4842.82 256.166   5
  -8  17  -1 4586.89 204.181   6
   8  17   1 4746.47 240.797   1
  -8  17  -1 4175.09 241.811   4
   8  17   1 4567.61 270.500   6
  -9 -17  -1 33.6602 101.434   5
  -9  17  -1-69.9353 111.132   4
  -9 -17  -1 96.6604 113.855   2
  -9  17  -1 119.084 84.9109   6
   9  17   1 36.0676 117.289   6
   9  17   1 151.966 91.6250   1
  -9 -17  -1 219.188 86.3379   4
 -10  17  -1 1889.04 161.970   6
 -10 -17  -1 2084.85 199.077   5
 -10  17  -1 1674.98 189.045   4
 -10 -17  -1 1990.34 198.428   2
 -10 -17  -1 1872.41 158.941   4
  10  17   1 1750.96 212.708   6
  11  17   1 1660.67 208.248   6
 -11 -17  -1 1937.97 203.638   2
 -11  17  -1 2417.18 239.460   4
 -11 -17  -1 2139.31 207.723   5
 -12  17  -1 408.293 149.892   4
 -12 -17  -1 337.610 151.006   2
 -13 -18   1 4915.04 337.303   2
  12  18  -1 4121.72 314.150   6
 -12 -18   1 3788.38 287.611   2
 -12  18   1 4112.95 294.424   4
 -11  18   1 505.874 147.345   4
 -11 -18   1 897.788 165.698   2
  11  18  -1 592.998 160.937   6
 -10 -18   1 3783.06 218.501   5
 -10 -18   1 3483.56 204.301   4
 -10  18   1 3635.47 250.541   4
 -10 -18   1 3466.35 255.282   2
  10  18  -1 3648.07 270.601   6
  -9  18   1-52.5041 72.3420   1
   9  18  -1-2.57689 132.580   6
  -9 -18   1 134.690 87.8033   5
  -9 -18   1 42.5183 67.8193   4
  -9 -18   1-38.6708 103.245   2
  -9  18   1 72.0652 98.0433   4
  -8 -18   1 633.826 117.549   5
  -8  18   1 588.203 76.6114   6
  -8  18   1 682.450 107.410   1
   8  18  -1 416.293 133.476   6
  -8 -18   1 589.147 90.4336   4
  -8  18   1 768.494 128.170   4
  -8 -18   1 465.579 137.106   2
  -7  18   1 18223.0 342.191   6
  -7 -18   1 18402.5 457.238   5
  -7 -18   1 18912.4 534.441   2
  -7  18   1 17356.9 454.100   1
   7  18  -1 18079.1 504.962   6
  -7  18   1 18654.2 479.662   4
  -7 -18   1 17794.2 390.814   4
  -6  18   1 1795.58 150.601   1
  -6 -18   1 1742.45 100.033   4
  -6  18   1 1790.58 80.2490   6
  -6 -18   1 1766.51 172.897   2
  -6  18   1 1750.81 139.056   4
  -6 -18   1 1841.06 149.405   5
   6  18  -1 1730.06 160.319   6
   6  18  -1 1823.65 172.509   1
  -5 -18   1 9653.58 210.366   4
  -5  18   1 9839.14 335.132   1
  -5  18   1 9110.77 164.667   6
   5  18  -1 10651.5 375.344   1
  -5  18   1 10168.8 289.139   4
  -5 -18   1 9476.92 352.997   2
   5  18  -1 9882.80 321.361   6
   4  18  -1 4787.62 209.859   6
  -4  18   1 4901.53 238.237   1
  -4  18   1 5031.75 177.031   4
  -4 -18   1 4726.24 246.633   2
   4  18  -1 4787.45 251.416   1
  -4 -18   1 4129.56 101.233   4
  -3  18   1 144.686 46.0102   4
  -3 -18   1 130.560 60.9954   6
   3  18  -1 116.324 92.2896   1
   3  18  -1 171.862 70.9016   6
  -3  18   1 177.129 84.5640   1
  -3 -18   1 295.020 106.598   2
  -2  18   1 6678.60 145.962   4
   2 -18  -1 7330.72 277.703   2
   2  18  -1 6892.93 215.547   6
   2  18  -1 6703.63 295.486   1
  -2 -18   1 6931.18 212.721   6
  -2 -18   1 7418.25 287.745   2
  -2  18   1 6311.25 278.267   1
   1  18  -1 35897.5 581.209   6
  -1  18   1 36096.8 750.914   1
  -1 -18   1 34432.4 573.596   6
   1 -18  -1 35185.8 697.822   2
  -1 -18   1 35416.5 699.869   2
   1  18  -1 33791.2 735.809   1
   0 -18   1 9123.23 223.307   6
   0 -18   1 9627.43 315.612   2
   0  18   1 8479.17 185.574   6
   0 -18  -1 8923.64 313.686   2
   0  18  -1 9218.63 224.586   6
   0 -18  -1 8834.84 176.677   6
   0  18   1 9947.53 353.834   1
   0  18  -1 9606.56 348.341   1
  -1 -18  -1 13490.7 264.852   6
  -1  18  -1 13523.6 275.396   6
   1 -18   1 13482.3 376.632   2
   1  18   1 12878.9 279.244   6
  -1  18  -1 13532.3 412.992   1
   1  18   1 13247.6 421.525   1
   1 -18   1 13457.8 276.670   6
  -1 -18  -1 13601.0 395.317   2
  -2 -18  -1 3.19079 42.2789   6
   2 -18   1 42.9838 40.8447   6
   2  18   1 60.9467 56.9632   6
   2 -18   1 55.3539 77.4929   2
  -2  18  -1 90.9782 79.8204   1
  -2  18  -1-4.57949 39.4194   6
  -2 -18  -1 32.1410 83.7050   2
   2  18   1-71.1138 92.0757   1
   3 -18   1 2966.08 120.191   6
  -3  18  -1 2919.19 129.379   4
   3  18   1 3057.39 207.790   1
  -3  18  -1 3177.07 189.387   1
   3 -18   1 3178.03 177.256   2
  -3 -18  -1 2986.77 191.644   5
  -3 -18  -1 2904.27 192.202   2
  -3  18  -1 3220.00 123.449   6
   3  18   1 2945.54 158.400   6
  -3 -18  -1 3196.13 147.891   6
  -4  18  -1 4207.07 213.978   1
   4  18   1 3874.78 226.722   1
   4  18   1 3972.41 195.669   6
  -4  18  -1 4351.20 150.278   6
  -4  18  -1 4183.59 172.744   4
  -4  18  -1 4001.40 151.589   6
  -4 -18  -1 3719.46 212.201   5
  -4 -18  -1 4298.06 234.192   2
  -5  18  -1 7872.23 264.268   4
   5  18   1 8039.49 327.403   1
  -5 -18  -1 8587.20 318.831   5
  -5 -18  -1 7883.74 325.874   2
  -5  18  -1 7849.57 235.062   6
  -5  18  -1 7940.83 225.543   6
   5  18   1 8640.75 307.844   6
   6  18   1 3479.72 218.689   1
  -6  18  -1 3388.28 153.239   6
   6  18   1 3198.42 206.407   6
  -6  18  -1 3452.11 191.915   4
  -6 -18  -1 3108.60 214.594   2
  -6 -18  -1 3655.50 224.961   5
  -6 -18  -1 3517.52 139.354   4
   7  18   1 10987.6 393.464   6
  -7 -18  -1 11118.7 378.742   5
  -7 -18  -1 11214.0 404.018   2
  -7  18  -1 11073.1 303.048   6
   7  18   1 11195.3 387.214   1
  -7  18  -1 11064.8 367.422   4
  -7 -18  -1 10890.2 289.983   4
  -8  18  -1 740.916 130.656   4
  -8  18  -1 678.312 95.8579   6
  -8 -18  -1 438.010 130.893   2
   8  18   1 585.298 115.237   1
   8  18   1 698.505 136.547   6
  -8 -18  -1 344.990 113.256   5
  -8 -18  -1 668.542 91.0838   4
  -9 -18  -1 1341.77 169.179   2
   9  18   1 1380.70 148.642   1
  -9 -18  -1 1364.37 127.919   4
  -9  18  -1 1388.72 134.292   6
   9  18   1 1512.60 183.302   6
  -9  18  -1 1444.84 169.993   4
  -9 -18  -1 1264.68 161.901   5
 -10  18  -1 5097.86 302.447   4
 -10 -18  -1 5526.38 295.992   5
  10  18   1 5463.30 341.540   6
 -10 -18  -1 4839.80 295.781   2
 -11 -18  -1 98.9188 141.602   2
  11  18   1 209.385 145.855   6
 -11  18  -1 151.561 131.246   4
 -11 -18  -1 93.9535 123.301   5
 -12  18  -1 817.707 160.679   4
 -12 -18  -1 1168.23 187.560   2
 -12  19   1 1167.87 186.626   4
 -12 -19   1 1309.65 197.374   2
  11  19  -1 6538.50 373.750   6
 -11 -19   1 6067.55 347.013   2
 -11  19   1 6394.40 346.730   4
 -10 -19   1 87.5823 123.134   2
 -10 -19   1-31.4280 94.1536   5
  10  19  -1 154.328 132.535   6
 -10  19   1 187.609 127.688   4
   9  19  -1 8831.31 387.463   6
  -9 -19   1 7620.02 302.206   5
  -9  19   1 8349.19 294.267   1
  -9 -19   1 8314.87 378.015   2
  -9  19   1 8305.32 349.521   4
  -8 -19   1 29362.4 629.436   5
  -8 -19   1 27926.2 705.525   2
   8  19  -1 28467.0 704.632   6
  -8  19   1 28970.7 659.871   4
  -8 -19   1 28140.3 553.095   4
  -8  19   1 28332.3 614.467   1
  -7  19   1 241.555 90.1045   1
  -7  19   1 92.9134 88.2823   4
   7  19  -1 48.2015 101.235   6
  -7 -19   1 229.925 104.318   5
  -7 -19   1 204.540 64.4667   4
  -7 -19   1 257.454 123.608   2
   6  19  -1 47404.9 923.778   1
  -6  19   1 43598.4 618.675   6
   6  19  -1 45604.3 870.643   6
  -6  19   1 45888.9 857.004   1
  -6 -19   1 45199.2 679.780   4
  -6 -19   1 45989.7 920.614   2
  -6  19   1 45912.5 802.784   4
  -5 -19   1 33587.3 742.858   2
   5  19  -1 34946.9 757.789   1
  -5 -19   1 32216.6 488.521   4
  -5  19   1 34309.0 615.233   4
   5  19  -1 34391.6 687.726   6
  -5  19   1 34393.6 712.108   1
  -4  19   1 4894.09 243.280   1
   4  19  -1 4649.32 213.324   6
   4  19  -1 5389.89 275.104   1
  -4 -19   1 5222.58 264.183   2
  -4  19   1 5098.54 178.516   4
  -3 -19   1 65593.1 1124.12   2
  -3  19   1 63971.3 892.677   4
   3  19  -1 65628.6 1011.48   6
  -3  19   1 64158.3 1124.96   1
  -3 -19   1 62470.1 982.653   6
   3  19  -1 66192.9 1160.37   1
  -2  19   1 9132.05 342.818   1
  -2 -19   1 9090.58 248.443   6
  -2  19   1 8571.41 165.927   4
  -2 -19   1 9196.48 331.762   2
   2  19  -1 9332.14 354.188   1
   2 -19  -1 9184.84 321.705   2
   2  19  -1 8995.41 255.279   6
   1  19  -1 16991.8 351.790   6
   1 -19  -1 16324.2 449.129   2
   1  19  -1 17155.3 492.635   1
  -1 -19   1 16786.2 452.771   2
  -1 -19   1 16573.9 345.590   6
  -1  19   1 17481.9 491.851   1
   0 -19   1 42460.1 645.664   6
   0 -19   1 42092.0 791.080   2
   0  19   1 39526.0 586.720   6
   0 -19  -1 43940.1 815.357   2
   0  19  -1 43109.8 648.441   6
   0  19  -1 44140.4 857.762   1
   0  19   1 44211.3 864.742   1
   0 -19  -1 40822.1 575.099   6
  -1  19  -1 724.641 131.459   1
  -1 -19  -1 574.403 115.419   2
   1 -19   1 610.966 65.6348   6
   1  19   1 492.924 126.105   1
   1  19   1 714.135 72.9074   6
  -1  19  -1 556.363 61.6279   6
  -1 -19  -1 550.514 56.9894   6
   1 -19   1 795.615 116.819   2
  -2 -19  -1 5297.72 258.208   2
   2 -19   1 5661.91 166.163   6
  -2  19  -1 5965.61 166.849   6
  -2 -19  -1 5765.13 180.945   6
   2 -19   1 5708.85 244.152   2
  -2  19  -1 6183.24 276.057   1
   2  19   1 6130.54 202.512   6
   2  19   1 5870.75 283.205   1
  -3  19  -1 25580.6 593.951   1
  -3 -19  -1 24685.7 594.186   2
   3  19   1 24850.2 504.939   6
  -3  19  -1 25228.9 427.005   6
   3 -19   1 23990.5 424.839   6
  -3 -19  -1 24840.0 576.604   5
  -3 -19  -1 24018.3 474.027   6
   3  19   1 24632.9 618.926   1
   3 -19   1 25150.2 553.235   2
  -4  19  -1 9584.42 337.174   1
   4  19   1 9801.70 368.655   1
  -4  19  -1 9592.42 268.642   4
  -4 -19  -1 9858.99 343.859   5
  -4  19  -1 9312.13 242.025   6
   4  19   1 10048.6 314.738   6
  -4 -19  -1 9545.12 354.223   2
  -4  19  -1 10308.4 242.116   6
   5  19   1 59003.2 1079.33   1
  -5  19  -1 57304.8 938.435   4
  -5 -19  -1 59248.1 1039.31   5
  -5 -19  -1 57435.4 1062.46   2
  -5  19  -1 56629.5 879.653   6
   5  19   1 58586.9 1007.88   6
  -5  19  -1 58585.0 863.633   6
   6  19   1 25606.8 632.891   1
  -6 -19  -1 25520.0 610.452   5
  -6  19  -1 25444.5 482.730   6
   6  19   1 25063.5 603.131   6
  -6 -19  -1 25400.5 635.969   2
  -6  19  -1 24680.4 552.543   4
  -7 -19  -1 1908.81 115.523   4
   7  19   1 1864.21 169.981   1
  -7 -19  -1 1896.28 185.473   2
   7  19   1 1983.34 182.474   6
  -7  19  -1 1676.47 154.200   4
  -7 -19  -1 1976.48 179.823   5
  -7  19  -1 1882.19 126.584   6
  -8  19  -1 17580.8 418.801   6
   8  19   1 17283.8 534.719   6
  -8  19  -1 17114.4 500.925   4
   8  19   1 17636.1 507.311   1
  -8 -19  -1 18203.7 519.291   5
  -8 -19  -1 17385.7 537.805   2
   9  19   1 7186.39 360.925   6
  -9  19  -1 6585.39 322.239   4
  -9 -19  -1 6686.04 320.009   5
  -9 -19  -1 6784.33 340.221   2
 -10 -19  -1 3792.61 273.534   2
 -10 -19  -1 3772.50 255.598   5
  10  19   1 3841.63 286.803   6
 -10  19  -1 3627.20 262.591   4
 -11 -19  -1 10260.6 415.497   5
  11  19   1 10861.0 482.368   6
 -11  19  -1 10122.2 442.141   4
 -11 -19  -1 10249.3 437.065   2
 -12 -19  -1 355.020 152.803   2
 -12  20   1 1946.76 222.684   4
 -12 -20   1 1775.77 220.815   2
  11  20  -1-14.2040 139.462   6
 -11  20   1 63.1517 120.635   4
 -11 -20   1 46.5034 129.906   2
 -10 -20   1 3319.07 263.214   2
 -10  20   1 3490.02 248.670   4
  10  20  -1 3286.76 261.302   6
   9  20  -1 1396.08 184.789   6
  -9 -20   1 1742.60 198.892   2
  -9  20   1 1360.89 155.937   4
  -9 -20   1 1315.89 149.035   5
  -8 -20   1 4246.97 272.649   2
   8  20  -1 4100.30 264.231   6
  -8  20   1 4357.66 228.494   1
  -8  20   1 4379.70 237.169   4
  -8 -20   1 4068.07 225.895   5
   7  20  -1 5851.14 287.460   6
  -7 -20   1 5572.55 255.657   5
  -7 -20   1 5343.56 297.042   2
  -7  20   1 5895.58 268.992   1
  -7  20   1 5936.33 256.964   4
  -6 -20   1 866.793 67.6427   4
   6  20  -1 853.992 133.183   6
  -6 -20   1 705.689 138.587   2
   6  20  -1 1082.94 148.525   1
  -6  20   1 741.591 121.117   1
  -6  20   1 754.139 105.159   4
  -5 -20   1 13918.3 448.602   2
   5  20  -1 14050.8 400.665   6
  -5  20   1 13815.5 338.243   4
   5  20  -1 14023.1 457.430   1
  -5  20   1 13711.7 419.341   1
  -4  20   1 17978.0 368.038   4
  -4 -20   1 17835.2 512.918   2
   4  20  -1 18302.8 531.807   1
  -4  20   1 17871.2 496.895   1
   4  20  -1 17457.4 436.633   6
   3  20  -1 1101.63 115.025   6
  -3  20   1 995.966 131.550   1
   3  20  -1 1090.75 146.724   1
  -3 -20   1 1118.15 151.524   2
  -3  20   1 1118.91 74.3302   4
  -2 -20   1 9098.59 340.425   2
  -2 -20   1 9309.01 257.457   6
  -2  20   1 9655.40 360.509   1
   2  20  -1 9187.17 263.392   6
   2 -20  -1 9243.70 333.284   2
   2  20  -1 9526.24 369.598   1
   1  20  -1 14368.0 459.222   1
  -1  20   1 14458.4 459.527   1
   1  20  -1 14973.1 330.325   6
   1 -20  -1 15521.0 441.802   2
  -1 -20   1 14871.4 326.154   6
  -1 -20   1 15236.8 437.347   2
   0 -20  -1 3742.73 105.476   6
   0 -20   1 4070.22 146.408   6
   0 -20   1 4055.27 220.820   2
   0  20  -1 3601.23 141.408   6
   0  20   1 4386.84 254.643   1
   0 -20  -1 4287.74 233.665   2
   0  20  -1 4291.75 249.351   1
   0  20   1 3349.15 109.953   6
  -1  20  -1 25427.0 431.927   6
   1 -20   1 24958.6 432.636   6
  -1 -20  -1 24813.7 597.722   2
   1 -20   1 24318.5 567.781   2
  -1  20  -1 26042.1 625.941   1
   1  20   1 25137.1 630.473   1
  -1 -20  -1 25219.1 417.738   6
   1  20   1 24727.2 437.288   6
   2 -20   1 3940.64 212.706   2
  -2 -20  -1 4234.33 240.540   2
   2 -20   1 4115.77 141.401   6
   2  20   1 4164.16 250.342   1
  -2  20  -1 4284.38 140.267   6
   2  20   1 4107.52 167.513   6
  -2 -20  -1 3942.69 149.557   6
  -2  20  -1 4392.72 242.026   1
   3 -20   1 423.684 59.2894   6
  -3  20  -1 386.862 100.639   1
  -3 -20  -1 512.373 126.953   2
   3  20   1 466.335 116.191   1
  -3 -20  -1 467.128 119.146   5
   3  20   1 526.787 89.6414   6
   3 -20   1 305.690 92.6782   2
  -3 -20  -1 323.111 61.9185   6
  -3  20  -1 455.610 59.7171   6
  -4  20  -1 28575.8 473.023   6
  -4  20  -1 26113.3 470.721   6
  -4  20  -1 26463.4 507.553   4
   4  20   1 27199.8 666.242   1
  -4  20  -1 26531.1 621.516   1
   4  20   1 26939.2 572.116   6
  -4 -20  -1 26567.6 647.794   2
  -4 -20  -1 26499.7 620.495   5
   5  20   1 2487.83 201.590   1
  -5  20  -1 2075.38 143.263   4
   5  20   1 2080.17 162.410   6
  -5 -20  -1 1965.47 179.123   5
  -5 -20  -1 2303.80 200.930   2
  -5  20  -1 2299.01 117.178   6
  -6 -20  -1 6090.11 307.092   2
  -6  20  -1 6450.70 208.665   6
  -6 -20  -1 6112.34 288.764   5
   6  20   1 5784.46 294.536   1
  -6  20  -1 6267.09 254.272   4
   6  20   1 6230.86 284.245   6
  -7  20  -1 1246.13 105.417   6
   7  20   1 972.116 144.538   1
   7  20   1 913.695 138.927   6
  -7 -20  -1 920.121 152.142   2
  -7  20  -1 1068.63 125.107   4
  -7 -20  -1 1260.46 160.863   5
  -8 -20  -1 158.122 114.469   5
   8  20   1 83.5492 110.362   6
  -8 -20  -1 56.1703 116.292   2
  -8  20  -1 34.2778 99.5779   4
   8  20   1 179.703 104.873   1
   9  20   1 4894.59 269.170   1
   9  20   1 5625.64 321.813   6
  -9  20  -1 5083.67 284.372   4
  -9 -20  -1 5425.29 312.613   2
  -9 -20  -1 5575.70 297.753   5
 -10 -20  -1 4080.95 267.923   5
  10  20   1 3651.41 284.811   6
 -10 -20  -1 3990.28 279.423   2
 -10  20  -1 3458.79 258.415   4
 -11 -20  -1 196.676 135.327   2
 -11  20  -1 571.542 158.122   4
  11  20   1 568.608 151.319   6
 -12  21   1-6.13855 124.806   4
 -11 -21   1 5.54338 139.445   2
  11  21  -1 68.3592 143.481   6
 -11  21   1 235.274 132.636   4
 -10 -21   1 301.359 142.743   2
  10  21  -1 218.823 125.752   6
 -10  21   1 166.086 109.392   4
  -9  21   1 208.652 113.396   4
  -9 -21   1 187.362 109.230   5
  -9 -21   1 163.531 140.125   2
   9  21  -1 346.713 139.940   6
  -8  21   1 725.907 117.356   1
  -8 -21   1 640.460 128.114   5
  -8  21   1 492.155 119.059   4
  -8 -21   1 514.744 143.450   2
   8  21  -1 680.827 146.410   6
  -7 -21   1 91.9779 120.842   2
  -7  21   1 243.267 86.9576   4
  -7  21   1 537.492 115.664   1
   7  21  -1 305.617 111.780   6
  -6  21   1-5.39288 78.6911   1
   6  21  -1-14.0820 98.4976   1
   6  21  -1 54.9000 89.1560   6
  -6 -21   1 75.3749 114.617   2
  -6  21   1 29.6260 66.7325   4
  -5  21   1 7465.60 241.227   4
   5  21  -1 7347.34 341.521   1
   5  21  -1 7367.25 291.813   6
  -5 -21   1 7052.63 333.146   2
  -5  21   1 7390.67 312.415   1
  -4  21   1 3323.94 214.061   1
   4  21  -1 3319.21 236.676   1
  -4  21   1 3230.91 137.858   4
  -4 -21   1 3479.35 237.301   2
   4  21  -1 3578.11 191.367   6
   3  21  -1 7989.60 344.461   1
  -3  21   1 7591.59 182.079   4
   3  21  -1 8050.95 267.381   6
  -3  21   1 7226.60 318.096   1
  -3 -21   1 7769.86 329.582   2
  -2 -21   1 15408.8 354.813   6
  -2  21   1 15727.2 484.141   1
  -2 -21   1 15810.8 467.362   2
   2 -21  -1 16446.1 463.704   2
   2  21  -1 15642.0 367.563   6
   2  21  -1 15699.9 495.757   1
  -1 -21   1 823.949 83.5602   6
   1  21  -1 977.100 152.105   1
  -1  21   1 810.216 134.805   1
  -1 -21   1 1069.08 137.268   2
   1  21  -1 811.990 86.6706   6
   1 -21  -1 817.739 142.294   2
   0 -21  -1 6150.29 138.839   6
   0 -21   1 6401.14 189.106   6
   0 -21   1 6564.03 286.372   2
   0 -21  -1 5907.97 279.360   2
   0  21   1 5679.98 143.194   6
   0  21  -1 6478.08 311.595   1
   0  21  -1 6613.77 193.735   6
   0  21   1 6590.39 310.157   1
   1 -21   1 3436.11 132.928   6
   1  21   1 3063.16 131.954   6
  -1 -21  -1 3144.09 214.812   2
  -1  21  -1 3018.55 123.483   6
   1 -21   1 3118.22 203.724   2
   1  21   1 3476.86 240.541   1
  -1 -21  -1 2785.31 111.957   6
  -1  21  -1 3135.09 225.379   1
  -2  21  -1 4120.68 246.232   1
  -2 -21  -1 3617.73 230.507   2
   2 -21   1 3628.78 133.413   6
   2  21   1 3423.83 233.060   1
   2 -21   1 3914.41 216.429   2
  -2  21  -1 4104.82 136.442   6
  -2 -21  -1 3857.73 150.209   6
   2  21   1 4235.19 171.599   6
  -3  21  -1 3458.45 218.569   1
   3  21   1 3530.98 174.836   6
  -3 -21  -1 3479.44 159.623   6
  -3 -21  -1 3747.27 235.235   2
   3 -21   1 3269.85 198.928   2
   3  21   1 3112.85 221.929   1
  -3  21  -1 3637.59 131.273   6
  -4 -21  -1 774.314 139.500   2
   4  21   1 1179.63 126.278   6
  -4 -21  -1 1083.70 146.110   5
  -4  21  -1 1007.02 131.668   1
  -4  21  -1 1058.33 79.5704   6
   4  21   1 1140.72 154.933   1
  -5  21  -1 274.149 76.1816   4
  -5 -21  -1 200.592 109.062   2
  -5 -21  -1 283.833 109.783   5
   5  21   1 293.441 98.4814   6
  -5  21  -1 408.371 65.9575   6
   5  21   1 402.211 120.606   1
  -6 -21  -1 89.3859 111.644   2
  -6  21  -1 185.001 61.8750   6
   6  21   1 79.0785 90.5105   1
  -6 -21  -1 258.272 126.333   5
   6  21   1 101.476 95.9074   6
  -6  21  -1 256.666 80.3545   4
  -7 -21  -1 144.988 111.372   2
   7  21   1 43.1653 98.1308   1
  -7  21  -1 28.1391 80.8130   4
  -7 -21  -1 361.052 123.914   5
   7  21   1 28.2095 99.0667   6
  -8 -21  -1 1335.10 181.871   2
   8  21   1 937.889 154.865   6
  -8 -21  -1 1112.18 159.193   5
  -8  21  -1 1248.15 152.226   4
   8  21   1 924.156 144.420   1
  -9 -21  -1 727.642 161.897   2
   9  21   1 402.241 118.210   1
  -9  21  -1 394.933 124.456   4
   9  21   1 378.702 126.832   6
  -9 -21  -1 274.114 128.162   5
 -10 -21  -1-113.621 132.150   5
 -10 -21  -1 164.916 129.483   2
  10  21   1 126.498 128.268   6
 -10  21  -1 101.022 116.547   4
 -11  21  -1 1330.74 186.386   4
 -11 -21  -1 712.603 161.741   2
  11  21   1 897.547 179.365   6
 -11 -22   1 646.575 172.075   2
 -11  22   1 435.262 140.586   4
  11  22  -1 395.543 155.062   6
 -10 -22   1 2257.22 242.706   2
 -10  22   1 2025.76 206.839   4
  10  22  -1 2053.44 221.644   6
  -9 -22   1 3610.81 282.006   2
   9  22  -1 3407.05 259.747   6
  -9  22   1 4153.08 253.739   4
  -8  22   1 15381.3 461.864   1
   8  22  -1 15715.9 518.422   6
  -8  22   1 15788.8 463.296   4
  -8 -22   1 15985.3 547.501   2
   7  22  -1 8929.36 362.469   6
  -7  22   1 8623.51 312.194   4
  -7  22   1 8828.24 344.841   1
  -7 -22   1 8488.50 391.672   2
  -6  22   1 4227.21 197.506   4
  -6  22   1 4069.41 238.489   1
   6  22  -1 4306.97 272.221   1
  -6 -22   1 3985.10 268.495   2
   6  22  -1 4180.09 238.157   6
  -5 -22   1 7729.61 355.914   2
   5  22  -1 7233.67 292.002   6
  -5  22   1 7650.68 242.626   4
  -5  22   1 7701.58 326.800   1
   5  22  -1 7897.81 361.737   1
   4  22  -1 23501.0 641.718   1
  -4  22   1 23370.2 428.920   4
   4  22  -1 23421.3 533.295   6
  -4 -22   1 23328.8 621.158   2
  -4  22   1 23441.2 608.610   1
  -3  22   1 2195.35 190.705   1
   3  22  -1 2336.34 153.063   6
   3  22  -1 2273.61 208.879   1
  -3  22   1 2043.25 87.0078   4
  -3 -22   1 2109.70 196.306   2
  -2 -22   1 25988.1 644.865   2
   2  22  -1 26484.1 525.815   6
   2 -22  -1 27102.2 640.879   2
  -2  22   1 27207.1 675.523   1
   2  22  -1 27387.6 691.522   1
  -1 -22   1 23846.4 595.636   2
   1 -22  -1 22515.1 582.794   2
  -1  22   1 23840.4 628.508   1
   1  22  -1 23634.4 455.208   6
  -1 -22   1 22827.3 443.926   6
   1  22  -1 24117.3 635.530   1
   0 -22   1 1746.77 103.195   6
   0  22   1 1560.66 174.274   1
   0 -22   1 1899.79 173.915   2
   0 -22  -1 1721.68 172.988   2
   0  22  -1 1776.14 106.188   6
   0  22   1 1652.82 72.4548   6
   0  22  -1 1996.99 192.024   1
  -1 -22  -1 41465.9 853.080   2
   1 -22   1 41207.6 824.722   2
   1  22   1 40176.6 635.153   6
   1  22   1 42009.3 894.829   1
  -1  22  -1 41954.9 636.199   6
  -1  22  -1 43208.7 889.697   1
  -2 -22  -1 4865.78 267.585   2
   2  22   1 4863.93 184.964   6
  -2  22  -1 4801.66 271.123   1
  -2  22  -1 4739.04 149.117   6
   2  22   1 4678.06 277.594   1
   2 -22   1 4638.02 247.217   2
  -3 -22  -1 6966.99 323.078   2
  -3  22  -1 7030.84 316.759   1
   3  22   1 6828.57 244.195   6
   3  22   1 6929.76 335.604   1
   3 -22   1 6618.67 288.892   2
  -3  22  -1 6889.09 183.238   6
  -4  22  -1 24213.4 619.107   1
   4  22   1 24943.3 550.453   6
   4  22   1 25191.6 669.034   1
  -4  22  -1 25991.3 440.919   6
  -4 -22  -1 24924.3 651.342   2
  -5 -22  -1 1988.62 186.117   5
  -5 -22  -1 1749.00 190.827   2
  -5  22  -1 1714.76 128.904   4
   5  22   1 1753.65 154.736   6
   5  22   1 1893.66 187.039   1
   6  22   1 3351.09 241.880   1
   6  22   1 3015.90 205.370   6
  -6 -22  -1 3241.95 242.098   2
  -6  22  -1 3398.61 188.546   4
  -6 -22  -1 3249.96 223.631   5
   7  22   1 9078.06 366.527   6
  -7 -22  -1 8551.34 384.974   2
   7  22   1 9465.37 393.176   1
  -7  22  -1 9278.20 333.020   4
  -7 -22  -1 8309.01 358.814   5
  -8 -22  -1 2746.98 243.394   2
   8  22   1 2540.84 222.483   6
   8  22   1 2677.19 225.346   1
  -8  22  -1 2588.18 197.907   4
  -8 -22  -1 3175.64 238.385   5
  -9  22  -1 8216.21 363.098   4
   9  22   1 8557.31 402.528   6
  -9 -22  -1 8532.59 404.431   2
   9  22   1 8818.10 379.363   1
  -9 -22  -1 8560.71 379.873   5
  10  22   1 6353.07 359.056   6
 -10 -22  -1 6725.47 345.261   5
 -10  22  -1 6412.85 338.717   4
 -10 -22  -1 5997.13 351.787   2
 -11 -22  -1-42.2688 138.667   2
 -11  22  -1 123.148 134.614   4
  10  23  -1 570.393 159.614   6
 -10  23   1 258.478 118.423   4
 -10 -23   1 636.421 176.425   2
   9  23  -1 8990.47 406.534   6
  -9 -23   1 8431.63 416.982   2
  -9  23   1 8643.68 356.616   4
  -8  23   1 14687.1 460.411   1
   8  23  -1 14202.8 492.637   6
  -8  23   1 14268.5 434.348   4
  -8 -23   1 14575.6 535.679   2
  -7  23   1 114.448 94.6720   1
  -7  23   1 56.8804 82.4328   4
   7  23  -1 88.0104 105.006   6
  -7 -23   1 188.447 133.567   2
  -6  23   1 8107.95 273.324   4
  -6  23   1 7935.84 342.815   1
  -6 -23   1 7974.53 373.335   2
   6  23  -1 7814.10 323.729   6
   5  23  -1 16812.2 469.138   6
  -5  23   1 16755.6 512.807   1
  -5 -23   1 17888.7 552.495   2
  -5  23   1 17802.4 390.358   4
   5  23  -1 18093.0 567.116   1
  -4 -23   1 910.760 158.532   2
   4  23  -1 852.222 155.047   1
  -4  23   1 940.467 135.203   1
   4  23  -1 852.324 115.001   6
  -4  23   1 985.263 79.9442   4
   3  23  -1 44366.9 955.806   1
   3  23  -1 44271.4 782.829   6
  -3  23   1 42607.2 909.663   1
  -3 -23   1 43968.4 916.651   2
   2  23  -1 15523.4 519.205   1
   2  23  -1 15995.6 382.849   6
   2 -23  -1 16053.3 487.578   2
  -2  23   1 16108.0 507.309   1
  -2 -23   1 16125.7 498.914   2
  -1 -23   1 5160.65 275.592   2
  -1  23   1 5769.03 303.830   1
   1  23  -1 5573.11 303.060   1
   1  23  -1 5402.58 193.596   6
   1 -23  -1 5346.39 278.147   2
   0 -23   1 27927.8 648.371   2
   0  23  -1 28568.3 698.946   1
   0  23   1 27773.9 694.003   1
   0  23  -1 27726.0 469.618   6
   0 -23  -1 27873.9 659.571   2
   1 -23   1 4910.49 260.419   2
  -1 -23  -1 5288.85 280.378   2
   1  23   1 4977.36 161.627   6
  -1  23  -1 5623.80 298.734   1
   1  23   1 5380.79 297.629   1
  -1  23  -1 4872.21 159.555   6
  -2  23  -1 25487.6 658.537   1
  -2  23  -1 25327.2 427.762   6
  -2 -23  -1 26550.0 665.903   2
   2  23   1 25566.2 488.369   6
   2 -23   1 25232.3 617.311   2
   2  23   1 25394.2 676.899   1
  -3  23  -1 27914.3 684.372   1
  -3 -23  -1 27065.6 685.507   2
   3  23   1 26954.6 705.389   1
   3 -23   1 26292.1 631.652   2
   3  23   1 26895.2 543.831   6
   4  23   1 471.707 136.274   1
  -4  23  -1 366.475 99.6591   1
   4  23   1 440.282 94.2869   6
  -4 -23  -1 230.276 114.292   2
   5  23   1 12757.5 465.013   1
   5  23   1 12994.3 398.194   6
  -5 -23  -1 12175.2 433.991   5
  -5 -23  -1 13409.6 476.015   2
  -6 -23  -1 7471.75 340.009   5
   6  23   1 7709.82 364.615   1
  -6  23  -1 7487.79 277.926   4
  -6 -23  -1 8077.90 377.677   2
   6  23   1 8067.59 329.094   6
   7  23   1 575.643 141.230   1
  -7 -23  -1 596.823 144.350   2
   7  23   1 428.143 121.689   6
  -7  23  -1 565.026 108.132   4
  -7 -23  -1 438.351 141.935   5
  -8  23  -1 16371.2 482.376   4
   8  23   1 16225.2 530.015   6
  -8 -23  -1 15888.8 522.469   5
  -8 -23  -1 15843.9 554.410   2
   8  23   1 16490.9 539.232   1
   9  23   1 4238.70 273.104   1
   9  23   1 3880.08 282.614   6
  -9 -23  -1 3946.22 290.960   2
  -9 -23  -1 4151.08 278.893   5
  -9  23  -1 3860.33 250.337   4
  10  23   1 2170.82 237.401   6
 -10 -23  -1 2195.26 230.972   5
 -10  23  -1 2419.87 226.997   4
  10  24  -1 4026.80 304.800   6
   9  24  -1 903.537 172.865   6
  -9 -24   1 733.091 171.519   2
  -8  24   1 132.605 107.443   1
   8  24  -1 9.98948 129.741   6
  -8 -24   1-81.8762 143.141   2
   7  24  -1 1063.55 155.933   6
  -7  24   1 924.549 143.271   1
  -7 -24   1 1097.34 173.729   2
  -6  24   1 6.77761 110.748   1
   6  24  -1 140.580 100.518   6
  -6 -24   1 93.5355 118.321   2
   5  24  -1-54.1493 89.6869   6
  -5  24   1-14.8208 86.7540   1
   5  24  -1 167.586 130.056   1
  -5 -24   1 234.363 129.273   2
   4  24  -1 273.099 91.9999   6
   4  24  -1 301.954 124.444   1
  -4  24   1 179.108 96.0154   1
  -4 -24   1 89.3214 112.358   2
  -3  24   1 805.778 143.338   1
   3  24  -1 707.524 105.652   6
  -3 -24   1 623.330 148.279   2
   3  24  -1 921.789 171.451   1
   2  24  -1 1667.84 124.416   6
  -2 -24   1 1701.49 181.449   2
  -2  24   1 1693.61 188.984   1
   2  24  -1 2031.94 207.406   1
   1 -24  -1 3164.32 227.843   2
   1  24  -1 3511.73 159.294   6
  -1  24   1 3062.71 234.645   1
  -1 -24   1 3318.24 228.459   2
   1  24  -1 3732.81 258.982   1
   0 -24   1 930.762 148.478   2
   0  24  -1 972.658 169.504   1
   0  24  -1 835.836 83.5396   6
   0  24   1 1401.42 178.933   1
   0 -24  -1 1049.33 158.859   2
   1 -24   1 3857.65 240.647   2
   1  24   1 3961.02 271.248   1
  -1 -24  -1 3737.47 251.714   2
  -1  24  -1 3818.01 138.337   6
  -1  24  -1 4010.88 264.257   1
   2  24   1 8277.01 246.414   6
  -2 -24  -1 8672.48 376.096   2
   2 -24   1 8729.98 355.227   2
  -2  24  -1 9487.47 390.905   1
   2  24   1 9020.65 394.823   1
  -3 -24  -1 6237.45 330.643   2
  -3  24  -1 6369.71 321.798   1
   3  24   1 6467.66 239.177   6
   3  24   1 6285.77 335.800   1
   3 -24   1 6838.42 308.151   2
   4  24   1 1661.81 142.288   6
  -4 -24  -1 1389.96 182.551   2
   4  24   1 1308.24 176.575   1
  -4  24  -1 1422.74 154.340   1
   5  24   1 773.382 124.548   6
  -5 -24  -1 517.424 142.620   2
   5  24   1 721.415 146.535   1
  -6 -24  -1 404.316 134.260   2
  -6 -24  -1 108.779 121.018   5
   6  24   1 242.854 111.570   6
   6  24   1 276.416 123.643   1
   7  24   1 782.042 143.778   6
   7  24   1 564.056 141.198   1
  -7 -24  -1 686.203 159.568   2
  -7 -24  -1 712.969 161.161   5
  -8 -24  -1 215.261 149.353   2
   8  24   1 523.900 147.460   6
  -8 -24  -1 173.637 128.752   5
   8  24   1 209.465 117.609   1
   9  24   1 576.282 142.722   1
  -9 -24  -1 289.229 139.099   2
   9  24   1 766.606 173.137   6
  -9 -24  -1 676.372 164.076   5
  10  24   1 615.089 159.890   6
  10  25  -1 764.017 178.838   6
  -9 -25   1 1474.34 207.606   2
   9  25  -1 1298.61 193.775   6
  -8  25   1 4491.72 268.354   1
   8  25  -1 3994.03 271.760   6
  -8 -25   1 4393.93 315.123   2
   7  25  -1 171.004 115.487   6
  -7  25   1 396.888 130.585   1
  -7 -25   1 40.4663 126.691   2
   6  25  -1 6469.62 301.969   6
  -6 -25   1 6252.10 351.260   2
  -6  25   1 6353.21 321.257   1
   5  25  -1 11100.1 461.181   1
   5  25  -1 11178.3 378.007   6
  -5  25   1 11809.2 440.385   1
  -5 -25   1 12068.3 464.683   2
   4  25  -1 1717.20 203.367   1
   4  25  -1 1584.75 146.084   6
  -4 -25   1 1547.90 189.817   2
  -4  25   1 1494.57 173.407   1
  -3  25   1 14567.7 503.730   1
   3  25  -1 14612.6 393.426   6
   3  25  -1 15117.3 536.458   1
  -3 -25   1 15848.3 520.464   2
   2  25  -1 8906.58 279.017   6
  -2  25   1 9066.52 398.307   1
   2  25  -1 9199.01 411.952   1
  -2 -25   1 8754.97 382.278   2
   1  25  -1 1227.81 182.393   1
  -1 -25   1 1017.00 160.710   2
   1 -25  -1 1287.37 175.772   2
   1  25  -1 1096.56 103.609   6
  -1  25   1 1269.98 181.501   1
   0  25  -1 7343.27 358.773   1
   0 -25   1 7003.58 332.260   2
   0  25   1 7044.75 353.571   1
   0 -25  -1 7018.28 335.368   2
   1 -25   1 1037.94 152.471   2
  -1  25  -1 990.068 159.652   1
   1  25   1 1047.53 162.018   1
  -1 -25  -1 1079.13 166.105   2
   2 -25   1 2224.89 198.167   2
   2  25   1 2304.78 224.462   1
  -2  25  -1 2172.19 214.529   1
  -2 -25  -1 2375.29 220.370   2
   3  25   1 19723.9 448.665   6
  -3 -25  -1 20167.0 606.391   2
  -3  25  -1 20527.9 596.167   1
   3  25   1 20363.7 624.319   1
  -4 -25  -1 3690.99 268.750   2
   4  25   1 3804.12 202.608   6
   4  25   1 3609.03 264.737   1
  -5 -25  -1 6618.40 348.419   2
   5  25   1 6007.12 343.530   1
   5  25   1 6330.13 275.805   6
   6  25   1 4359.43 248.565   6
  -6 -25  -1 4016.68 297.698   2
   6  25   1 4235.39 288.931   1
   7  25   1 1253.99 165.947   6
  -7 -25  -1 1531.75 202.929   5
  -7 -25  -1 1474.71 206.916   2
   7  25   1 1310.15 188.284   1
   8  25   1 7498.79 381.293   1
   8  25   1 7217.45 356.965   6
  -8 -25  -1 7183.28 367.070   5
  -8 -25  -1 7792.49 404.327   2
  -9 -25  -1 3369.02 291.719   2
   9  25   1 3494.54 272.582   6
  -9 -25  -1 2970.84 257.821   5
  10  25   1 1214.83 196.002   6
  10  26  -1 14378.5 555.527   6
   9  26  -1 2544.31 244.616   6
   8  26  -1 1595.84 200.244   6
  -8 -26   1 1391.11 207.743   2
  -8  26   1 1881.93 196.843   1
  -7  26   1 8496.80 377.448   1
   7  26  -1 9151.60 384.584   6
  -6  26   1 568.324 130.507   1
  -6 -26   1 356.956 152.982   2
   6  26  -1 624.375 140.695   6
  -5  26   1 9556.25 404.908   1
   5  26  -1 9733.15 438.528   1
   5  26  -1 9163.68 343.385   6
  -5 -26   1 9549.84 425.915   2
   4  26  -1 14618.9 417.964   6
   4  26  -1 14130.2 526.606   1
  -4  26   1 14132.0 502.605   1
  -4 -26   1 14981.3 527.624   2
   3  26  -1 1853.91 211.975   1
  -3 -26   1 1764.16 207.271   2
   3  26  -1 1597.07 137.294   6
  -3  26   1 1711.77 197.005   1
  -2  26   1 33444.0 829.076   1
   2  26  -1 34578.0 860.944   1
  -2 -26   1 33878.1 817.366   2
   1  26  -1 15595.3 545.793   1
   1 -26  -1 15749.2 519.822   2
  -1  26   1 14921.4 525.723   1
  -1 -26   1 15244.6 510.319   2
   0  26   1 3117.03 253.461   1
   0  26  -1 2751.99 240.439   1
   0 -26   1 2839.52 230.077   2
   0 -26  -1 2767.98 232.960   2
  -1 -26  -1 6954.54 348.474   2
   1 -26   1 6503.93 325.138   2
   1  26   1 7136.73 364.980   1
  -1  26  -1 6671.09 354.159   1
  -2  26  -1 15303.4 527.953   1
  -2 -26  -1 15609.4 529.278   2
   2 -26   1 15823.1 510.460   2
   3  26   1 4461.70 295.900   1
  -3  26  -1 4109.59 276.572   1
  -3 -26  -1 3990.27 279.751   2
  -4 -26  -1 9654.47 424.923   2
   4  26   1 9831.85 440.034   1
  -5 -26  -1 3790.18 286.750   2
   5  26   1 4055.10 296.082   1
   6  26   1 6169.07 357.942   1
  -6 -26  -1 6658.44 364.918   2
  -7 -26  -1 10287.7 462.226   2
   7  26   1 10997.7 470.995   1
   7  26   1 11428.6 422.853   6
   8  26   1 223.674 129.640   1
  -8 -26  -1 230.870 138.378   2
   8  26   1 95.3924 126.597   6
   9  26   1 3468.81 277.636   6
  -9 -26  -1 3269.29 271.900   5
   9  27  -1 1693.15 215.491   6
  -8  27   1 5181.48 301.582   1
   8  27  -1 5521.13 323.996   6
  -7 -27   1 121.069 138.254   2
   7  27  -1 10.9724 118.451   6
  -7  27   1 46.6965 124.277   1
   6  27  -1 5690.05 294.131   6
  -6 -27   1 5775.21 350.677   2
  -6  27   1 5817.38 321.288   1
  -5 -27   1 1885.83 221.772   2
  -5  27   1 2002.01 200.691   1
   5  27  -1 1435.49 157.434   6
  -4  27   1 823.458 152.719   1
  -4 -27   1 781.005 174.292   2
   4  27  -1 856.811 176.382   1
  -3 -27   1 4013.93 283.814   2
   3  27  -1 3816.27 292.421   1
   2  27  -1 2426.97 243.698   1
  -2 -27   1 2037.35 215.318   2
  -2  27   1 2411.04 235.236   1
   1  27  -1 3500.99 276.825   1
   1 -27  -1 3558.83 260.823   2
  -1 -27   1 3532.85 258.346   2
  -1  27   1 3985.91 287.164   1
   0  27  -1 8960.25 415.521   1
   0 -27  -1 9205.84 408.251   2
   0 -27   1 9149.99 394.555   2
   0  27   1 8469.90 406.065   1
  -1  27  -1 1158.30 180.956   1
  -1 -27  -1 1202.84 184.001   2
   1 -27   1 1205.98 172.884   2
   1  27   1 1227.98 182.738   1
  -2  27  -1 5589.39 332.057   1
   2 -27   1 6244.60 322.719   2
   2  27   1 5920.82 351.201   1
  -2 -27  -1 6133.68 339.293   2
  -3 -27  -1 3486.02 270.156   2
  -3  27  -1 3475.27 263.708   1
   3  27   1 3490.23 276.528   1
  -4 -27  -1 137.940 134.915   2
   4  27   1 82.3248 126.815   1
  -5 -27  -1 2608.25 245.504   2
   5  27   1 2475.64 244.130   1
  -6 -27  -1 4153.56 306.934   2
   6  27   1 4413.04 313.381   1
   7  27   1 1183.00 190.953   1
  -7 -27  -1 1257.80 200.612   2
   8  27   1 3217.04 273.134   1
  -7  28   1 472.622 133.116   1
  -6  28   1-94.8862 131.580   1
  -6 -28   1 245.329 147.365   2
  -5 -28   1 302.430 156.945   2
  -5  28   1 521.235 135.235   1
   4  28  -1 2516.71 249.445   1
  -4  28   1 2339.15 224.282   1
  -4 -28   1 2606.43 250.936   2
  -3  28   1 514.630 157.279   1
  -3 -28   1 471.065 167.148   2
   3  28  -1 240.652 147.560   1
  -2 -28   1 3068.55 258.500   2
   2  28  -1 2977.99 266.139   1
  -2  28   1 2938.16 250.094   1
  -1 -28   1 4116.57 287.909   2
  -1  28   1 4667.92 313.273   1
   1  28  -1 4704.10 320.645   1
   1 -28  -1 4567.18 299.115   2
   0 -28   1 187.343 133.484   2
   0  28   1 437.554 155.632   1
   0 -28  -1 177.183 133.972   2
   0  28  -1 205.804 140.130   1
  -1  28  -1 636.920 159.320   1
   1 -28   1 482.845 145.120   2
  -1 -28  -1 544.506 148.810   2
   1  28   1 595.788 163.722   1
   2  28   1 1143.31 190.526   1
  -2 -28  -1 1110.36 186.971   2
  -2  28  -1 1307.52 188.351   1
   2 -28   1 1265.37 182.765   2
   3  28   1-272.242 131.392   1
  -3 -28  -1 222.852 150.334   2
   4  28   1 150.940 150.213   1
  -4 -28  -1 109.565 136.814   2
  -5 -28  -1 478.735 162.666   2
   5  28   1 622.184 162.810   1
   6  28   1 136.551 140.739   1
  -6 -28  -1-145.143 138.394   2
   7  28   1 188.844 127.261   1
   8  28   1 612.709 179.681   1
  -7  29   1 1635.37 198.926   1
  -6  29   1 8749.35 414.208   1
  -5 -29   1 8677.50 437.099   2
  -5  29   1 8068.65 399.074   1
  -4 -29   1 1306.83 201.632   2
  -4  29   1 1796.50 203.567   1
   3  29  -1 14681.6 574.455   1
  -3 -29   1 14758.0 550.737   2
  -3  29   1 14732.7 557.291   1
   2  29  -1 3210.94 279.094   1
  -2 -29   1 3427.55 276.563   2
  -2  29   1 3123.24 272.802   1
   1  29  -1 4725.35 327.251   1
   1 -29  -1 4594.32 309.488   2
  -1 -29   1 4851.54 314.856   2
  -1  29   1 4590.60 323.003   1
   0 -29   1 13678.9 512.168   2
   0 -29  -1 13469.7 518.879   2
   0  29   1 12674.1 527.258   1
   0  29  -1 13293.5 528.656   1
   1  29   1 979.598 186.535   1
  -1 -29  -1 1262.82 196.181   2
  -1  29  -1 1395.72 207.617   1
   1 -29   1 1355.88 200.542   2
  -2 -29  -1 7148.07 384.240   2
   2 -29   1 7670.84 376.309   2
   2  29   1 7463.89 410.008   1
  -3 -29  -1 16983.4 605.330   2
   3  29   1 17205.4 619.648   1
  -4 -29  -1-205.255 158.421   2
   4  29   1 202.384 136.109   1
  -5 -29  -1 7790.56 417.106   2
   5  29   1 7621.41 411.083   1
   6  29   1 10239.2 480.213   1
  -7  30   1 9742.87 441.959   1
  -6  30   1 1687.62 201.295   1
  -5  30   1 3250.15 270.465   1
  -4 -30   1 3456.32 290.138   2
  -4  30   1 3029.36 259.513   1
  -3  30   1 241.875 142.533   1
  -3 -30   1 233.021 146.349   2
  -2 -30   1 15017.7 565.494   2
   2  30  -1 14256.0 568.425   1
  -2  30   1 14208.3 558.723   1
  -1 -30   1 8781.91 427.877   2
   1  30  -1 8841.61 446.012   1
  -1  30   1 9095.72 444.917   1
   0  30   1 444.444 170.413   1
   0  30  -1 162.850 147.061   1
   0 -30  -1 256.155 160.704   2
   0 -30   1 246.856 133.121   2
   1 -30   1 13112.8 513.346   2
   1  30   1 13568.6 549.602   1
  -1 -30  -1 13306.1 526.151   2
   2  30   1 3266.44 280.015   1
   2 -30   1 3760.87 283.751   2
  -2 -30  -1 3574.27 291.271   2
   3  30   1 932.342 190.191   1
  -3 -30  -1 1355.65 207.191   2
  -4 -30  -1 8331.58 429.939   2
   4  30   1 7623.66 423.056   1
   5  30   1 2056.97 250.342   1
  -6  31   1 944.790 178.437   1
  -5  31   1 666.944 162.262   1
  -4  31   1 407.479 154.274   1
  -3  31   1 310.650 141.911   1
  -2 -31   1 155.574 154.387   2
  -2  31   1 558.966 188.337   1
  -1 -31   1 554.999 164.530   2
  -1  31   1 681.555 173.344   1
   0  31   1 334.653 142.472   1
   0 -31  -1 202.177 141.991   2
   0 -31   1 225.080 144.989   2
  -1 -31  -1 932.954 193.472   2
   1  31   1 686.572 177.204   1
   1 -31   1 1006.74 199.943   2
  -2 -31  -1 562.299 166.924   2
   2  31   1 268.451 143.123   1
   0 -32   1 320.138 152.331   2
   1 -32   1 11118.3 491.951   2
  14   0  -2 7858.08 411.064   6
  13   0  -2 2129.35 221.811   6
  12   0  -2 5169.54 299.017   6
  11   0  -2 11960.2 432.751   6
  10   0  -2 343.326 115.717   6
   9   0  -2 11571.2 374.399   6
  -8   0   2 39452.3 531.540   1
   8   0  -2 47028.3 788.738   6
   7   0  -2 1918.83 139.024   6
   6   0  -2 29716.0 555.512   6
  -6   0   2 30824.8 557.122   6
  -5   0   2 12339.4 288.592   6
   5   0  -2 12398.1 294.050   6
  -4   0   2 605.394 67.0957   6
   4   0  -2 531.725 72.3995   6
  -3   0   2 47819.9 667.932   6
   3   0  -2 47134.0 668.993   6
  -2   0   2 640085. 7624.94   6
   2   0  -2 647510. 7626.27   6
   1   0  -2 27390.9 399.046   6
  -1   0   2 27697.5 397.986   6
   0   0  -2 466525. 5508.43   6
   0   0   2 460137. 5508.02   6
  -1   0  -2 29691.9 453.188   6
   1   0   2 30413.7 456.166   4
   1   0   2 30465.8 457.196   6
  -2   0  -2 5543.86 162.074   6
   2   0   2 5494.22 158.152   6
   2   0   2 5813.57 159.610   4
  -2   0  -2 5373.11 162.688   4
  -3   0  -2 91606.7 1209.53   6
  -3   0  -2 86909.7 1068.46   2
   3   0   2 93644.3 1215.68   4
  -3   0  -2 90862.6 1215.03   4
  -3   0  -2 90586.6 1211.81   6
   3   0   2 85837.9 1065.85   3
   4   0   2 18245.2 277.713   3
  -4   0  -2 19338.4 397.343   6
  -4   0  -2 18501.3 275.285   2
  -4   0  -2 18502.6 390.077   6
  -4   0  -2 19310.1 406.185   4
   5   0   2 240958. 2907.15   3
  -5   0  -2 239005. 2895.78   2
  -5   0  -2 242498. 3077.53   6
  -5   0  -2 249537. 3093.22   6
  -6   0  -2 768.460 119.302   6
  -6   0  -2 738.649 57.5805   2
  -6   0  -2 827.867 122.624   4
   6   0   2 854.590 65.4847   3
  -7   0  -2 7144.49 277.819   6
  -7   0  -2 7124.25 290.673   4
   7   0   2 7193.75 191.036   3
   8   0   2 28556.6 495.260   3
  -8   0  -2 28066.6 469.744   2
  -8   0  -2 28735.9 638.631   6
  -8   0  -2 29437.4 669.709   4
   9   0   2 14623.2 330.160   3
  -9   0  -2 14293.2 448.651   6
  -9   0  -2 14498.8 308.694   2
  -9   0  -2 14981.0 477.273   4
 -10   0  -2 38210.7 841.922   6
  10   0   2 38971.0 667.903   3
 -10   0  -2 38686.5 630.160   2
 -10   0  -2 39091.5 881.993   4
 -11   0  -2 22634.2 658.207   4
 -11   0  -2 22141.3 636.108   6
 -12   0  -2 2483.97 239.364   4
 -12   0  -2 2463.32 231.100   6
 -13   0  -2 5765.51 350.951   6
 -13   0  -2 6250.03 373.853   4
  14   1  -2 236.625 146.899   6
  14  -1  -2 210.833 141.285   6
  13   1  -2 2703.42 243.505   6
  13  -1  -2 3274.97 261.697   6
  12   1  -2 1629.79 190.154   6
  12  -1  -2 1540.14 176.457   6
  11   1  -2 917.846 147.492   6
  11  -1  -2 1119.23 158.423   6
  10  -1  -2 10274.7 368.581   6
  10   1  -2 10660.0 387.817   6
   9   1  -2 4883.25 245.462   6
   9  -1  -2 4691.46 237.840   6
  -8  -1   2 5432.44 120.411   1
   8  -1  -2 6119.75 243.796   6
   8   1  -2 6643.68 260.383   6
   7  -1  -2 32233.2 610.662   6
   7   1  -2 32277.1 622.361   6
  -7  -1   2 31671.0 458.777   1
  -6  -1   2 861.169 90.2935   6
  -6   1   2 729.218 84.0714   6
   6  -1  -2 777.327 88.5053   6
   6   1  -2 748.443 95.2540   6
  -5  -1   2 54083.9 818.404   6
  -5   1   2 54730.1 809.248   6
   5   1  -2 53644.9 823.323   6
   5  -1  -2 53997.6 815.012   6
  -4  -1   2 43117.0 640.691   6
   4  -1  -2 41454.7 628.599   6
   4   1  -2 40556.8 637.767   6
  -4   1   2 42436.0 629.093   6
   3   1  -2 970.371 78.2510   6
   3  -1  -2 929.412 69.6359   6
  -3  -1   2 938.829 71.9134   6
  -3   1   2 937.733 67.4403   6
  -2  -1   2 70118.7 888.268   6
   2  -1  -2 64443.2 833.224   5
   2   1  -2 68161.1 888.511   6
  -2   1   2 67381.0 870.718   6
   2  -1  -2 68791.8 873.301   6
   1   1  -2 3066.77 99.5546   6
   1  -1  -2 3123.03 91.7157   6
  -1  -1   2 3199.42 97.7576   6
  -1   1   2 3236.93 90.9402   6
   0  -1  -2 84425.0 1084.47   6
   0   1   2 85470.0 1085.73   6
   0  -1   2 86335.2 1094.34   6
   0   1  -2 86926.1 1095.50   6
   1   1   2 102700. 1261.64   2
  -1   1  -2 102909. 1321.08   6
   1  -1   2 106026. 1325.96   6
   1   1   2 104578. 1320.60   6
  -1  -1  -2 100490. 1315.72   6
   1  -1   2 104462. 1325.34   4
   1   1   2 104257. 1319.95   4
   2  -1   2 45802.8 652.459   4
  -2   1  -2 43212.8 643.955   6
   2   1   2 44217.8 643.208   4
  -2  -1  -2 44129.5 647.586   6
   2  -1   2 44315.2 649.053   6
  -2  -1  -2 43949.1 561.602   2
   2   1   2 44139.5 647.965   6
   2   1   2 43839.6 561.453   2
  -2   1  -2 43669.8 548.248   3
  -2   1  -2 44107.9 651.654   4
  -2  -1  -2 43355.1 644.973   4
   3   1   2 12615.4 283.362   4
  -3  -1  -2 11997.7 283.510   6
  -3  -1  -2 12213.9 283.660   6
  -3   1  -2 12531.0 282.999   6
  -3   1  -2 12983.5 294.446   4
  -3  -1  -2 12641.0 285.590   4
  -3   1  -2 13019.0 287.549   6
  -3  -1  -2 12720.1 203.139   2
   3  -1   2 13478.9 291.105   4
  -4   1  -2 38802.3 631.704   6
   4  -1   2 37084.9 502.714   3
  -4   1  -2 36972.1 624.050   6
  -4   1  -2 34474.8 473.432   2
  -4  -1  -2 39346.2 637.945   6
  -4  -1  -2 38250.4 636.460   4
  -4  -1  -2 37468.2 507.760   2
  -4  -1  -2 37971.3 633.042   6
  -4   1  -2 38042.0 643.171   4
   5  -1   2 8353.42 183.186   3
  -5   1  -2 9071.70 273.655   6
  -5   1  -2 8865.60 271.140   6
  -5  -1  -2 9550.02 287.819   6
  -5  -1  -2 9980.01 294.722   4
  -5  -1  -2 9869.61 287.098   6
  -5   1  -2 8682.01 285.281   4
  -5  -1  -2 9161.69 188.714   2
  -6   1  -2 70781.5 1092.65   6
  -6  -1  -2 69714.4 931.588   2
   6  -1   2 70350.7 941.331   3
  -6  -1  -2 71492.4 1104.37   6
  -6  -1  -2 65317.4 1102.94   4
  -6   1  -2 64556.4 1104.49   4
   7  -1   2 3296.33 128.805   3
  -7  -1  -2 3349.30 200.903   4
  -7  -1  -2 3893.96 206.141   6
  -7   1  -2 3420.73 192.047   6
  -7  -1  -2 3684.27 129.397   2
  -7   1  -2 3140.40 203.230   4
  -8  -1  -2 2968.05 125.383   2
  -8   1  -2 3030.82 198.231   6
  -8   1  -2 2725.26 201.330   4
  -8  -1  -2 2970.89 199.919   6
  -8  -1  -2 3257.94 212.188   4
   8  -1   2 2946.94 131.212   3
  -9   1  -2 7797.71 323.767   6
   9  -1   2 7581.14 227.437   3
  -9  -1  -2 7425.99 211.019   2
  -9  -1  -2 7635.95 337.226   4
  -9   1  -2 8103.59 349.384   4
  -9  -1  -2 7408.80 317.489   6
   9   1   2 7096.52 217.851   3
  10   1   2 12397.9 314.588   3
  10  -1   2 12311.8 318.329   3
 -10   1  -2 12998.9 472.777   4
 -10   1  -2 12104.8 433.893   6
 -10  -1  -2 12705.9 443.033   6
 -10   1  -2 13075.2 289.458   2
 -10  -1  -2 12640.7 460.819   4
 -10  -1  -2 12412.5 298.717   2
 -11   1  -2 128.878 112.749   6
 -11   1  -2 137.245 126.293   4
 -11  -1  -2 261.853 127.203   4
 -11  -1  -2 271.719 130.318   6
 -12   1  -2 4311.10 289.326   6
 -12  -1  -2 4074.95 286.622   4
 -12   1  -2 4008.45 287.688   4
 -12  -1  -2 4191.88 289.304   6
 -13   1  -2 1059.28 191.591   6
 -13  -1  -2 859.171 177.855   6
 -13  -1  -2 843.205 171.626   4
 -13   1  -2 1044.40 184.683   4
  14  -2  -2 2390.52 221.098   3
  14  -2  -2 1921.69 223.255   6
  14   2  -2 2805.32 257.450   6
  13  -2  -2-165.287 128.369   6
  13   2  -2 130.953 126.402   6
  12  -2  -2-155.197 115.803   6
  12   2  -2-126.448 118.845   6
  11  -2  -2 17.7017 105.248   6
  11   2  -2-69.5525 112.652   6
  10   2  -2 473.647 126.223   6
  10  -2  -2 694.467 124.479   6
   9   2  -2 2269.06 176.180   6
   9  -2  -2 2207.81 168.337   6
  -8  -2   2 6307.07 146.040   1
   8   2  -2 6910.45 269.998   6
   8  -2  -2 7065.32 263.164   6
  -7  -2   2 7189.07 163.713   1
   7   2  -2 7729.01 268.145   6
  -7   2   2 7999.00 256.191   6
   7  -2  -2 7363.25 250.939   6
  -6   2   2 96.3665 60.3655   6
   6   2  -2 95.4369 68.0594   6
   6  -2  -2 128.619 63.8844   6
  -6  -2   2 211.685 67.1974   6
   5   2  -2 11039.3 278.361   6
   5  -2  -2 11038.7 265.540   6
  -5  -2   2 11285.5 279.409   6
  -5   2   2 11563.3 267.379   6
  -4  -2   2 38626.9 601.650   6
  -4   2   2 39843.4 583.140   6
   4   2  -2 37412.3 605.173   6
   4  -2  -2 38143.8 582.693   6
  -3  -2   2 72425.0 970.380   6
  -3   2   2 72296.8 942.914   6
   3  -2  -2 71103.0 945.105   6
   3   2  -2 71757.2 972.344   6
   2   2  -2 154278. 1901.73   6
   2  -2  -2 152264. 1858.31   5
  -2   2   2 149489. 1856.63   5
  -2   2   2 156302. 1870.79   6
   2  -2  -2 153073. 1870.53   6
  -2  -2   2 155051. 1901.32   6
   1   2  -2 398.267 55.6302   6
  -1   2   2 510.964 43.0371   6
   1  -2  -2 500.469 44.6685   6
  -1  -2   2 476.530 52.1488   6
   0   2  -2 570.102 59.5505   6
   0  -2   2 599.696 56.2065   6
   0  -2  -2 554.700 51.7331   6
   0   2   2 672.071 51.8955   6
   1   2   2 13492.4 246.864   6
  -1   2  -2 13226.8 251.355   6
  -1  -2  -2 12881.1 243.819   6
   1  -2   2 13475.3 252.074   6
   1   2   2 12683.3 213.143   2
   1   2   2 13253.8 244.681   4
   1  -2   2 13634.0 254.024   4
   2   2   2 242.727 52.7692   4
  -2   2  -2 204.428 68.0779   6
  -2   2  -2 259.320 33.7898   3
  -2  -2  -2 138.962 63.8312   6
   2  -2   2 182.640 54.9014   6
  -2  -2  -2 149.005 54.7581   4
   2   2   2 325.340 38.2868   2
  -2  -2  -2 226.461 35.0973   2
  -2   2  -2 372.651 70.6685   4
  -2  -2  -2 218.715 55.2197   6
   2  -2   2 322.990 59.6387   4
  -3  -2  -2 743.749 49.4710   2
  -3   2  -2 723.602 83.0229   6
   3   2   2 790.053 80.2078   4
  -3   2  -2 822.890 89.8936   4
  -3  -2  -2 690.232 76.8036   6
  -3  -2  -2 605.395 78.3439   6
   3  -2   2 785.602 79.1488   4
  -3  -2  -2 629.066 76.8869   4
  -4   2  -2 2298.22 130.392   6
  -4  -2  -2 2307.67 85.7099   2
  -4  -2  -2 2362.94 135.020   4
  -4  -2  -2 2437.93 130.875   6
   4  -2   2 2363.62 81.8154   3
  -4   2  -2 2235.11 126.650   6
  -4   2  -2 2549.32 144.793   4
  -4  -2  -2 2232.59 130.150   6
  -5  -2  -2 4347.89 189.058   6
  -5   2  -2 4128.58 181.231   6
  -5   2  -2 4407.62 187.340   6
  -5  -2  -2 4170.01 125.501   2
  -5  -2  -2 3828.78 182.600   6
  -5  -2  -2 4174.34 189.617   4
  -5   2  -2 3920.68 189.801   4
   5  -2   2 3967.03 120.502   3
   6  -2   2 5717.46 159.352   3
  -6   2  -2 5973.62 234.764   6
  -6  -2  -2 5383.18 155.245   2
  -6  -2  -2 5520.20 235.014   4
  -6   2  -2 5153.52 240.150   4
   6  -2   2 5126.99 113.968   1
  -6  -2  -2 5726.12 235.645   6
   7  -2   2 3370.39 131.093   3
  -7   2  -2 3376.05 192.685   6
  -7  -2  -2 3611.92 203.954   6
  -7  -2  -2 3374.21 128.690   2
  -7  -2  -2 3914.84 214.573   4
  -7   2  -2 2951.60 197.701   4
   7   2   2 3230.42 95.2561   1
   8  -2   2 7185.83 213.634   3
  -8  -2  -2 7336.78 314.394   4
  -8   2  -2 7497.55 297.798   6
  -8   2  -2 7856.34 325.982   4
  -8  -2  -2 7567.70 304.643   6
  -8  -2  -2 7434.19 208.513   2
  -9  -2  -2 137.600 111.645   4
   9  -2   2 100.395 60.6178   3
  -9   2  -2 94.3639 110.672   6
  -9  -2  -2 224.339 63.1352   2
  -9  -2  -2 73.6045 94.5617   6
  -9   2  -2 327.369 125.176   4
 -10  -2  -2 339.850 124.987   6
  10   2   2 203.341 69.8352   3
  10  -2   2 203.793 66.5978   3
 -10  -2  -2 391.962 73.2685   2
 -10   2  -2 541.561 125.299   6
 -10  -2  -2 558.102 139.224   4
 -10   2  -2 310.891 135.269   4
 -11   2  -2 161.739 119.191   6
 -11   2  -2 67.8590 117.287   4
 -11  -2  -2 50.0380 115.519   6
 -11  -2  -2 27.9529 124.643   4
 -12  -2  -2 1573.21 196.644   4
 -12   2  -2 1716.44 204.154   6
 -12  -2  -2 1574.93 201.688   6
 -12   2  -2 1534.86 200.130   4
 -13  -2  -2-276.430 145.265   6
 -13   2  -2 40.5314 130.073   4
 -13  -2  -2 76.5484 121.375   4
 -13   2  -2 4.86909 123.935   6
  14   3  -2 795.446 173.229   6
  14  -3  -2 506.016 154.904   6
  14  -3  -2 936.203 166.941   3
  13   3  -2 6882.84 370.525   6
  13  -3  -2 7589.74 370.395   6
  13  -3  -2 7291.99 344.581   3
  12  -3  -2 1388.41 171.195   6
  12   3  -2 1141.56 178.729   6
  11  -3  -2 1407.73 158.350   6
  11   3  -2 1377.16 168.167   6
  10   3  -2 36406.4 788.067   6
  10  -3  -2 36493.0 759.576   6
   9  -3  -2 19425.7 490.396   6
   9   3  -2 19485.0 512.987   6
   8   3  -2 37250.9 728.915   6
   8  -3  -2 37014.6 698.313   6
  -8  -3   2 36400.1 538.543   1
   7   3  -2 75312.9 1168.62   6
   7  -3  -2 76166.6 1139.77   6
  -7   3   2 76446.3 1138.76   6
  -7  -3   2 74671.6 998.854   1
  -6  -3   2 90.7234 63.4732   6
   6  -3  -2 185.449 72.4757   6
  -6  -3   2 65.8485 35.3643   1
  -6   3   2 253.065 64.5781   6
   5   3  -2 63245.5 942.069   6
   5  -3  -2 62835.0 911.490   6
  -5   3   2 64653.6 909.785   6
  -5  -3   2 62170.0 940.746   6
   4   3  -2 132966. 1748.84   6
  -4   3   2 135604. 1706.67   6
  -4  -3   2 138091. 1747.66   6
   4  -3  -2 131504. 1711.25   6
  -3   3   2 10999.1 208.368   6
   3  -3  -2 10471.2 207.460   6
  -3  -3   2 10798.3 236.658   6
   3   3  -2 11707.5 245.885   6
  -2   3   2 245584. 3007.69   5
  -2   3   2 253190. 2996.07   6
   2  -3  -2 248780. 3010.13   5
   2  -3  -2 251485. 2997.61   6
   2   3  -2 246943. 3042.81   6
  -2  -3   2 252927. 3043.59   6
   1  -3  -2 26302.1 367.722   6
  -1   3   2 26150.7 367.161   6
  -1  -3   2 26528.2 403.643   6
   1  -3  -2 27227.9 396.327   5
   1   3  -2 26132.9 405.680   6
   0  -3   2 44660.8 634.084   6
   0  -3  -2 45394.9 610.886   6
   0   3   2 46579.2 614.649   6
   0   3  -2 45858.7 637.313   6
   0  -3  -2 46977.0 607.382   3
   0   3   2 45896.7 626.967   2
   1   3   2 9997.79 200.595   4
   1   3   2 9729.92 185.784   2
   1  -3   2 10219.5 210.435   6
  -1  -3  -2 9380.44 199.951   6
   1   3   2 10199.1 204.171   6
  -1  -3  -2 9940.20 187.655   2
   1  -3   2 10677.0 213.360   4
  -1   3  -2 10284.5 212.307   6
   1   3   2 9529.06 157.847   3
   2   3   2 5898.64 135.677   2
  -2  -3  -2 5963.45 137.264   2
  -2  -3  -2 5880.24 163.226   4
  -2   3  -2 5966.10 175.217   4
  -2   3  -2 6090.27 129.759   3
   2  -3   2 6199.49 171.264   6
  -2   3  -2 5951.62 167.761   6
  -2  -3  -2 5948.47 169.143   6
   2   3   2 6042.76 160.676   4
   2  -3   2 6223.91 172.417   4
  -2  -3  -2 5716.60 171.431   6
  -3   3  -2 7981.54 214.999   6
  -3  -3  -2 8524.81 228.882   6
  -3  -3  -2 8236.75 224.261   6
  -3  -3  -2 8007.44 215.228   4
  -3   3  -2 8365.34 230.377   4
  -3  -3  -2 8164.05 175.060   2
   3  -3   2 8295.43 216.654   6
  -3   3  -2 8303.15 165.315   3
   3  -3   2 8476.47 226.905   4
  -4  -3  -2 89305.5 1252.17   4
  -4   3  -2 89050.9 1242.43   6
  -4  -3  -2 88516.7 1262.32   6
  -4   3  -2 89161.3 1272.54   4
  -4  -3  -2 86969.7 1258.15   6
  -4   3  -2 91126.4 1252.25   6
  -4  -3  -2 87553.7 1153.93   2
   5  -3   2 2127.63 92.7745   3
  -5   3  -2 2110.72 132.998   6
  -5   3  -2 2141.70 136.057   6
  -5  -3  -2 2035.59 94.2525   2
  -5   3  -2 1897.68 140.708   4
  -5  -3  -2 2054.84 136.912   6
  -5  -3  -2 1888.98 136.886   4
  -6   3  -2 79167.7 1285.59   4
   6  -3   2 85048.4 1127.52   3
  -6   3  -2 86023.4 1264.20   6
  -6  -3  -2 84565.3 1133.22   2
  -6  -3  -2 82289.7 1275.69   4
   6  -3   2 82344.3 1051.54   1
   7  -3   2 37896.5 611.917   3
  -7   3  -2 38994.6 737.352   6
  -7   3  -2 37317.7 765.455   4
   7   3   2 38257.4 554.718   1
  -7  -3  -2 39793.1 616.448   2
  -7  -3  -2 37963.8 753.659   4
  -8  -3  -2 150.516 99.8966   6
  -8  -3  -2 181.899 100.667   4
   8  -3   2 70.2312 58.8181   3
  -8   3  -2 332.095 119.063   4
  -8  -3  -2 237.219 62.0111   2
  -8   3  -2 286.646 106.696   6
   9  -3   2 26011.8 505.821   3
  -9   3  -2 27457.8 643.057   6
  -9  -3  -2 25896.1 641.725   6
  -9  -3  -2 26857.2 499.665   2
  -9  -3  -2 27800.3 669.353   4
  -9   3  -2 27249.7 680.718   4
 -10   3  -2 11138.9 408.054   6
 -10  -3  -2 11143.0 420.256   6
 -10  -3  -2 11211.7 295.944   2
 -10  -3  -2 10531.5 414.852   4
 -10   3  -2 10640.5 423.099   4
  10  -3   2 10973.9 304.152   3
 -11  -3  -2 249.432 126.038   6
 -11  -3  -2 576.634 143.843   4
 -11   3  -2 246.049 131.745   4
 -11   3  -2 233.603 132.695   6
 -12  -3  -2 1889.17 212.212   4
 -12  -3  -2 2084.60 221.766   6
 -12   3  -2 2151.29 214.943   6
 -12   3  -2 2106.61 221.925   4
 -13   3  -2 1379.33 196.012   6
 -13  -3  -2 1569.58 218.235   6
 -13   3  -2 1556.77 214.670   4
 -13  -3  -2 1626.40 214.573   4
 -15   4   2 1060.95 191.478   6
  14  -4  -2 5851.52 327.668   3
  14  -4  -2 5489.03 342.272   6
  14   4  -2 5873.83 361.660   6
  13   4  -2 875.684 178.666   6
  13  -4  -2 974.017 165.012   3
  13  -4  -2 1011.17 177.214   6
  12   4  -2 11266.1 446.379   6
  12  -4  -2 10464.1 413.857   6
  12  -4  -2 10614.2 396.370   3
  11   4  -2 8551.07 373.189   6
  11  -4  -2 8518.47 344.834   6
  10   4  -2 2980.69 224.458   6
  10  -4  -2 2964.76 200.770   6
   9   4  -2 23702.5 576.136   6
   9  -4  -2 24194.4 552.588   6
  -8  -4   2 12826.9 260.779   1
   8   4  -2 12991.5 386.844   6
   8  -4  -2 13679.3 369.195   6
   7   4  -2 173.212 95.8387   6
   7  -4  -2 205.005 73.0189   6
  -7  -4   2 67.5064 38.2944   1
  -7   4   2 153.270 74.4401   6
  -6  -4   2 43734.3 656.819   1
  -6   4   2 46812.4 731.688   6
   6  -4  -2 44320.9 723.709   6
  -6  -4   2 46277.7 759.545   6
   6   4  -2 46271.7 773.316   6
  -5  -4   2 48002.0 712.482   1
   5  -4  -2 50205.9 749.152   6
   5   4  -2 49746.3 789.822   6
  -5   4   2 51327.8 748.693   6
  -5  -4   2 51924.1 789.019   6
  -4  -4   2 26071.2 455.764   6
  -4   4   2 26293.3 415.610   6
   4  -4  -2 25965.3 423.890   6
   4   4  -2 25021.9 458.703   6
   3  -4  -2 89317.1 1129.19   6
   3   4  -2 88679.7 1186.82   6
  -3   4   2 88456.7 1126.41   6
  -3  -4   2 89977.0 1183.20   6
  -3   4   2 87326.2 1144.41   5
  -2  -4   2 1002.17 72.8039   6
   2  -4  -2 575.315 44.2336   6
  -2   4   2 647.362 61.6159   5
   2   4  -2 792.630 73.2724   6
  -2   4   2 633.018 42.5252   6
   1  -4  -2 9900.24 203.202   5
   1   4  -2 9846.14 203.976   6
  -1   4   2 9722.30 163.840   6
   1  -4  -2 9842.71 201.230   3
  -1  -4   2 10090.1 203.020   6
   1  -4  -2 9683.29 163.353   6
   0  -4   2 75758.2 982.640   6
   0  -4  -2 75147.1 949.712   6
   0   4   2 75682.5 952.594   6
   0  -4  -2 76001.7 962.432   3
   0   4   2 74627.1 982.828   2
   0   4  -2 74905.7 983.746   6
   0   4   2 72987.4 958.183   3
   1  -4   2 52584.8 725.659   4
   1   4   2 50505.3 670.671   3
   1  -4   2 53259.1 726.662   6
  -1  -4  -2 51762.6 710.028   6
   1   4   2 51422.1 703.826   2
   1  -4   2 52002.7 664.047   2
  -1  -4  -2 51550.5 705.751   2
  -1   4  -2 52756.8 724.207   6
   1   4   2 52415.0 705.386   4
  -2  -4  -2 51229.8 688.753   2
   2   4   2 52571.1 712.593   4
   2  -4   2 48144.7 619.838   2
  -2   4  -2 50479.0 721.107   6
   2  -4   2 51480.6 725.957   6
  -2  -4  -2 51081.1 728.248   6
  -2   4  -2 50241.7 730.799   4
  -2  -4  -2 51248.2 725.660   6
  -2  -4  -2 49334.5 704.907   4
   2  -4   2 51467.6 731.819   4
   2   4   2 47186.5 679.082   2
  -3   4  -2 97303.1 1219.23   3
   3  -4   2 96690.1 1290.82   6
  -3   4  -2 94912.2 1283.86   6
  -3  -4  -2 94958.9 1300.64   6
  -3  -4  -2 94075.8 1299.04   6
  -3  -4  -2 94594.2 1233.81   2
  -3   4  -2 94614.8 1306.25   4
  -3  -4  -2 93114.8 1275.96   4
  -4   4  -2 19353.5 407.861   4
  -4  -4  -2 19231.5 400.534   6
  -4   4  -2 19251.4 391.801   6
  -4  -4  -2 19004.3 333.211   2
  -4   4  -2 19042.7 384.235   6
  -4  -4  -2 19239.5 388.768   4
  -5   4  -2 41933.7 747.157   4
  -5  -4  -2 42285.1 722.833   4
   5  -4   2 42377.3 625.307   3
  -5   4  -2 43249.1 714.353   6
  -5  -4  -2 42729.8 736.181   6
  -5  -4  -2 43182.8 638.288   2
  -5   4  -2 39574.3 544.470   2
  -5   4  -2 43825.6 725.689   6
   5  -4   2 42719.9 589.018   1
   6  -4   2 44120.9 667.914   3
  -6  -4  -2 44740.2 677.271   2
  -6   4  -2 44815.3 769.544   6
   6  -4   2 43032.1 597.828   1
   6   4   2 45429.9 802.412   6
  -6   4  -2 41501.0 800.495   4
  -6  -4  -2 43283.5 783.877   4
  -7  -4  -2 4788.81 168.690   2
  -7   4  -2 4973.57 224.806   6
   7   4   2 4932.63 143.413   1
  -7  -4  -2 4624.34 230.910   4
  -7   4  -2 4565.79 241.030   4
   7  -4   2 4539.17 164.902   3
   8  -4   2 37950.4 645.258   3
  -8   4  -2 38050.8 761.835   6
  -8  -4  -2 40010.4 799.799   4
  -8  -4  -2 38820.2 644.612   2
  -8   4  -2 37883.6 807.083   4
  -9  -4  -2 4710.69 264.678   6
  -9  -4  -2 4488.37 257.831   4
  -9   4  -2 4149.77 257.906   4
   9  -4   2 4419.26 182.541   3
  -9  -4  -2 4181.71 174.534   2
  -9   4  -2 4433.72 246.812   6
 -10  -4  -2 4728.37 279.079   4
  10  -4   2 4726.26 198.933   3
 -10   4  -2 5458.88 289.998   6
 -10  -4  -2 4309.81 274.018   6
 -10  -4  -2 4985.73 195.785   2
 -10   4  -2 4945.12 291.783   4
 -11   4  -2 16499.2 561.801   4
 -11  -4  -2 16013.7 542.488   6
 -11   4  -2 16061.3 521.212   6
  11  -4   2 16202.2 404.097   3
 -11  -4  -2 16138.7 539.627   4
 -12   4  -2 135.964 128.666   6
 -12  -4  -2 77.9628 127.233   6
 -12  -4  -2 224.542 130.104   4
 -12   4  -2 123.619 127.891   4
 -13   4  -2 6847.44 369.273   6
 -13   4  -2 6836.89 397.089   4
 -13  -4  -2 7023.10 390.196   6
 -13  -4  -2 7491.43 394.075   4
 -15   5   2 270.722 149.244   6
  14  -5  -2 342.470 147.714   3
  14   5  -2 299.726 160.970   6
  13  -5  -2 1287.27 183.827   6
  13  -5  -2 912.546 155.479   3
  13   5  -2 890.058 166.840   6
  12  -5  -2 1076.92 154.357   3
  12   5  -2 1285.01 192.268   6
  12  -5  -2 1302.65 167.780   6
  11  -5  -2 445.023 119.900   3
  11  -5  -2 532.679 130.520   6
  11   5  -2 509.835 126.275   6
  10  -5  -2 600.686 121.394   6
  10   5  -2 902.049 142.310   6
   9  -5  -2-59.0339 85.5691   6
   9   5  -2 103.573 102.490   6
   8  -5  -2-2.22937 75.7566   6
  -8  -5   2 25.5729 41.8297   1
   8   5  -2 122.208 92.8855   6
   7   5  -2 959.441 117.337   6
  -7  -5   2 911.839 73.3464   1
  -7   5   2 834.923 93.3093   6
   7  -5  -2 945.643 97.4687   6
  -6   5   2 81.6917 54.9942   6
   6  -5  -2 73.0796 54.9647   6
  -6  -5   2 3.36525 41.8212   1
   5   5  -2 43869.3 719.442   6
  -5   5   2 44671.3 667.308   6
  -5  -5   2 45377.0 720.534   6
  -5  -5   2 43633.2 656.356   1
   5  -5  -2 42322.4 664.656   6
   4  -5  -2 3924.73 126.338   6
  -4  -5   2 3878.01 92.4025   5
  -4  -5   2 4079.48 138.317   1
  -4  -5   2 4127.20 154.660   6
  -4   5   2 4338.92 126.708   6
   4   5  -2 3991.71 159.503   6
  -3   5   2 14835.9 279.537   5
   3  -5  -2 14892.5 308.270   3
   3   5  -2 15022.5 305.004   6
  -3   5   2 14638.8 244.953   6
  -3  -5   2 14544.5 299.545   6
   3  -5  -2 15391.8 250.862   6
   2  -5  -2 11391.1 244.366   3
   2  -5  -2 11358.6 183.107   6
   2   5  -2 11265.0 188.032   5
  -2   5   2 11460.3 181.922   6
  -2  -5   2 11808.3 239.154   6
   2   5  -2 11130.3 240.020   6
  -2   5   2 11401.7 230.415   5
   1  -5  -2 63970.6 857.854   3
  -1   5   2 63264.7 789.408   6
   1   5  -2 62859.3 854.385   6
   1  -5  -2 62745.1 860.213   5
  -1  -5   2 63967.9 853.063   6
   1  -5  -2 63104.0 788.959   6
   0  -5   2 14021.9 253.792   6
   0   5   2 13212.7 242.420   3
   0   5  -2 13436.5 252.975   6
   0  -5  -2 13325.5 220.417   6
   0   5   2 13419.2 260.515   2
   0   5   2 13500.7 222.772   6
   0  -5  -2 13422.6 242.655   3
   1  -5   2 145545. 1819.70   4
   1  -5   2 144357. 1767.10   2
   1   5   2 143434. 1777.11   3
  -1  -5  -2 142156. 1801.72   6
   1   5   2 145493. 1791.37   4
   1  -5   2 146855. 1820.82   6
   1   5   2 144941. 1811.29   2
  -1  -5  -2 146858. 1804.63   6
  -1  -5  -2 143079. 1813.39   2
  -2  -5  -2 33552.9 507.577   2
  -2   5  -2 32834.1 519.624   6
   2  -5   2 32633.7 441.872   2
   2  -5   2 34122.0 531.931   4
  -2   5  -2 32671.5 528.512   4
   2  -5   2 34205.9 528.186   6
  -2  -5  -2 33101.6 525.228   6
  -2  -5  -2 33149.9 526.471   6
   2   5   2 32364.2 499.872   2
   2   5   2 33812.0 506.297   4
  -2  -5  -2 32955.3 502.672   4
  -3   5  -2 33025.5 490.144   3
   3  -5   2 32682.3 535.748   6
  -3   5  -2 30892.1 428.112   2
  -3   5  -2 32692.9 531.731   6
   3   5   2 31615.5 498.163   2
  -3  -5  -2 32761.3 550.630   6
  -3  -5  -2 32313.0 523.972   4
  -3  -5  -2 32916.3 508.543   2
  -3   5  -2 33540.6 557.686   4
  -4  -5  -2 16608.2 353.521   4
  -4   5  -2 15968.1 345.447   6
  -4   5  -2 16226.3 355.126   6
   4  -5   2 16072.5 290.883   1
  -4   5  -2 16207.8 372.331   4
  -4   5  -2 15223.3 236.290   2
  -4  -5  -2 16231.9 315.853   2
   4   5   2 15961.6 368.396   6
  -4  -5  -2 16461.1 369.506   6
   5   5   2 6572.09 241.249   6
   5  -5   2 6170.40 155.282   1
  -5   5  -2 6653.01 244.460   4
  -5   5  -2 5915.16 124.259   2
  -5   5  -2 6441.17 219.919   6
  -5   5  -2 6691.51 226.113   6
  -5  -5  -2 6647.53 192.367   2
  -5  -5  -2 6239.44 225.991   4
  -5  -5  -2 6631.04 236.844   6
   6  -5   2 2756.47 124.068   3
  -6   5  -2 3216.18 169.147   6
  -6  -5  -2 2926.81 173.696   4
  -6  -5  -2 2987.61 132.846   2
   6   5   2 2980.97 180.628   6
  -6   5  -2 2688.56 180.847   4
  -6   5  -2 2746.25 84.1429   2
   6  -5   2 2697.24 94.4187   1
   7  -5   2 7353.29 217.558   3
  -7   5  -2 7480.91 273.275   6
  -7  -5  -2 7358.68 219.992   2
  -7  -5  -2 7374.09 282.440   4
  -7   5  -2 7067.19 298.626   4
   7   5   2 7012.28 285.027   6
   7   5   2 7261.48 192.230   1
   8  -5   2 99.3734 60.9174   3
  -8   5  -2 220.418 98.2637   6
  -8  -5  -2 112.292 64.0689   2
   8   5   2 101.205 36.8630   1
  -8  -5  -2 214.046 98.3733   4
  -8   5  -2 244.585 125.178   4
  -9   5  -2 601.899 121.679   6
  -9  -5  -2 338.897 115.359   4
  -9  -5  -2 534.811 78.8999   2
   9  -5   2 353.360 75.5337   3
  -9   5  -2 474.295 140.720   4
 -10  -5  -2 623.724 132.706   6
 -10   5  -2 549.636 127.748   6
  10  -5   2 737.063 96.3247   3
 -10  -5  -2 783.867 97.0232   2
 -10   5  -2 483.734 127.797   4
 -10  -5  -2 692.997 138.961   4
  11  -5   2 125.606 83.5928   3
 -11   5  -2 188.470 125.725   6
 -11  -5  -2 140.491 128.169   6
 -11  -5  -2 186.092 130.562   4
 -11   5  -2 237.410 127.836   4
 -12  -5  -2 1856.61 211.677   6
 -12  -5  -2 1531.47 202.332   4
 -12   5  -2 1635.90 213.172   4
 -12   5  -2 1697.42 196.593   6
 -13  -5  -2 1326.02 197.300   4
 -13   5  -2 1171.26 192.996   6
 -13   5  -2 1109.03 196.067   4
 -13  -5  -2 1294.75 193.869   6
 -15   6   2 720.993 176.153   6
  15  -6  -2 321.510 149.641   3
 -14   6   2 999.718 179.566   6
  14   6  -2 988.043 190.426   6
  14  -6  -2 813.664 174.306   3
  13  -6  -2 1346.29 178.617   3
  13   6  -2 1492.14 204.529   6
  13  -6  -2 1040.49 165.380   6
  12  -6  -2 1239.20 158.753   6
  12  -6  -2 1565.45 178.899   3
  12   6  -2 1600.96 203.070   6
  11   6  -2 6260.40 320.622   6
  11  -6  -2 6575.84 306.317   3
  11  -6  -2 5921.87 289.819   6
  10   6  -2 585.116 138.914   6
  10  -6  -2 606.181 130.156   6
  10  -6  -2 816.833 144.568   3
   9  -6  -2 6433.16 258.579   6
   9   6  -2 5887.68 279.311   6
   9  -6  -2 5824.64 257.488   3
   8  -6  -2 10136.5 306.737   6
  -8  -6   2 10118.8 248.724   1
   8  -6  -2 10469.4 329.189   3
   8   6  -2 9929.62 338.332   6
  -8   6   2 9504.62 204.368   1
   7   6  -2 621.217 111.238   6
   7  -6  -2 510.027 86.1939   6
  -7   6   2 557.526 90.2118   6
  -7  -6   2 462.978 66.9685   1
   6  -6  -2 58309.1 875.627   6
   6   6  -2 59365.0 950.119   6
  -6   6   2 58363.2 874.630   6
  -6  -6   2 57300.6 843.202   1
  -5  -6   2 6958.93 196.186   1
   5  -6  -2 7201.26 232.635   3
  -5   6   2 7311.80 195.103   6
   5   6  -2 7268.12 238.024   6
   5  -6  -2 7079.81 193.919   6
  -5  -6   2 8100.17 238.622   6
   4   6  -2 15850.6 339.004   6
  -4  -6   2 16030.5 337.711   6
  -4   6   2 16007.8 278.796   6
   4  -6  -2 15777.4 285.070   6
  -4  -6   2 15338.5 314.998   1
  -4  -6   2 15374.8 250.161   5
   4  -6  -2 15867.5 345.859   3
  -3   6   2 36587.0 571.478   5
  -3  -6   2 36936.7 587.145   1
   3   6  -2 38134.8 592.554   6
   3  -6  -2 38287.1 519.570   6
  -3   6   2 37131.0 508.839   6
  -3  -6   2 39005.8 590.430   6
   3  -6  -2 37914.3 605.912   3
  -2  -6   2 5243.39 153.284   6
   2  -6  -2 5166.57 162.588   3
  -2   6   2 5310.40 154.040   5
   2   6  -2 5138.47 121.140   5
  -2  -6   2 4832.95 161.432   1
   2  -6  -2 5066.90 97.4701   6
   2   6  -2 4915.16 154.352   6
  -2   6   2 5053.49 97.0196   6
  -1   6   2 17401.7 317.924   3
   1   6  -2 17422.8 310.894   6
  -1   6   2 17490.0 245.681   6
  -1  -6   2 17254.3 306.915   6
   1  -6  -2 17428.7 323.975   5
  -1   6   2 18313.7 329.713   2
   1  -6  -2 16966.5 243.067   6
   1  -6  -2 17653.6 318.830   3
   0  -6   2 170279. 2113.78   6
   0   6   2 170845. 2134.18   2
   0  -6  -2 169449. 2062.54   6
   0  -6  -2 168827. 2066.71   6
   0  -6   2 173854. 2108.34   2
   0   6   2 167812. 2109.63   3
   0  -6  -2 173131. 2144.09   5
   0   6  -2 169542. 2113.82   6
   0  -6  -2 171739. 2133.93   2
  -1   6  -2 5838.46 161.383   6
   1   6   2 5738.17 144.964   3
  -1  -6  -2 5560.85 146.876   6
  -1  -6  -2 6047.11 166.324   2
  -1  -6  -2 6188.02 152.874   6
   1   6   2 5917.64 140.616   4
   1  -6   2 6213.35 161.878   6
   1  -6   2 6314.64 161.675   4
   1  -6   2 6014.40 138.657   2
   1   6   2 5946.46 162.608   2
  -2  -6  -2 13384.6 273.463   2
  -2   6  -2 13120.2 272.849   6
   2  -6   2 13289.7 220.951   2
   2  -6   2 13085.1 269.082   1
  -2  -6  -2 13525.2 279.893   6
  -2  -6  -2 13470.1 278.243   6
   2   6   2 13154.5 268.106   2
   2  -6   2 13074.9 280.008   4
  -2   6  -2 12936.7 277.909   4
   2   6   2 13033.9 254.205   4
   2  -6   2 13490.6 276.287   6
  -2   6  -2 13286.0 227.722   2
   3  -6   2 111705. 1480.03   1
  -3   6  -2 115908. 1538.08   4
  -3   6  -2 114226. 1412.72   2
  -3   6  -2 113381. 1477.21   3
  -3   6  -2 114308. 1509.33   6
   3   6   2 114110. 1538.62   6
   3  -6   2 116718. 1517.81   6
   3   6   2 113166. 1489.27   2
  -3  -6  -2 115368. 1536.21   6
  -3  -6  -2 114230. 1495.37   4
  -3  -6  -2 114968. 1496.53   2
  -4   6  -2 1064.99 94.1463   6
  -4  -6  -2 1170.69 94.1021   4
  -4   6  -2 1301.55 100.550   6
   4  -6   2 1261.48 75.2688   1
  -4  -6  -2 1281.94 89.2551   2
  -4   6  -2 1182.49 53.2594   2
  -4   6  -2 1166.42 80.3607   3
  -4   6  -2 1348.75 112.092   4
  -4  -6  -2 1296.05 104.912   6
   4   6   2 1189.09 110.351   6
  -5   6  -2 36071.4 671.860   4
  -5   6  -2 35806.3 629.386   6
  -5   6  -2 36330.8 642.784   6
  -5  -6  -2 36244.6 640.115   4
  -5   6  -2 34986.8 493.204   2
   5   6   2 34913.2 666.612   6
  -5  -6  -2 36641.5 593.985   2
   5  -6   2 36132.7 544.507   1
   6  -6   2 12179.8 242.594   1
  -6   6  -2 11812.3 327.751   6
  -6  -6  -2 11808.0 288.806   2
   6   6   2 11435.7 352.167   6
  -6   6  -2 11284.3 210.155   2
  -6  -6  -2 11918.3 337.575   4
  -6   6  -2 11859.8 362.467   4
  -7   6  -2 2831.19 173.725   6
  -7   6  -2 2734.34 94.1261   2
  -7  -6  -2 2958.61 186.351   4
  -7  -6  -2 3138.57 149.123   2
  -7   6  -2 2864.77 199.945   4
   7   6   2 3098.36 201.502   6
   7   6   2 3300.63 134.115   1
  -8   6  -2 30300.7 643.592   6
  -8  -6  -2 30317.6 661.942   4
   8   6   2 29621.4 680.005   6
   8   6   2 29684.1 482.138   1
  -8   6  -2 29233.3 686.729   4
  -8  -6  -2 30897.6 564.252   2
  -8   6  -2 28363.2 452.595   2
  -9   6  -2 4951.72 253.372   6
   9  -6   2 5059.99 204.891   3
  -9  -6  -2 5003.74 202.331   2
   9   6   2 4320.69 126.981   1
  -9  -6  -2 4899.90 257.125   4
  -9   6  -2 4486.06 270.466   4
 -10  -6  -2 3262.67 173.893   2
 -10   6  -2 3420.37 226.348   6
 -10   6  -2 2826.36 235.951   4
 -10  -6  -2 3181.05 229.510   4
 -10  -6  -2 3231.82 240.298   6
 -11  -6  -2 12539.7 478.674   6
 -11   6  -2 13338.3 465.335   6
 -11  -6  -2 12973.4 474.004   4
 -11   6  -2 13000.6 502.100   4
 -12   6  -2 627.027 146.936   6
 -12  -6  -2 571.104 152.014   6
 -12  -6  -2 597.645 144.888   4
 -12   6  -2 791.681 168.125   4
 -13  -6  -2 1854.61 218.081   4
 -13  -6  -2 2653.14 259.047   6
 -13   6  -2 1720.35 212.241   6
 -13   6  -2 1791.83 223.509   4
  15  -7  -2 4196.04 306.241   3
 -15   7   2 3659.95 284.794   6
  14   7  -2-17.2978 136.499   6
  14  -7  -2 359.411 142.121   3
 -14   7   2-18.6473 135.405   6
  13  -7  -2 6206.33 330.416   3
  13   7  -2 6065.16 357.502   6
  12  -7  -2 4413.08 268.062   3
  12   7  -2 4437.39 302.838   6
  12  -7  -2 4206.82 263.036   6
  11  -7  -2 4345.26 255.882   3
  11   7  -2 4537.45 280.220   6
  11  -7  -2 4402.11 250.684   6
  10  -7  -2 39802.9 811.779   3
  10   7  -2 39008.8 847.920   6
  10  -7  -2 40259.9 791.932   6
   9  -7  -2 10201.0 345.474   3
   9   7  -2 9859.60 362.905   6
   9  -7  -2 9442.50 316.881   6
  -8   7   2 1511.98 81.8774   1
   8  -7  -2 1376.39 142.496   3
   8   7  -2 1330.22 141.245   6
   8  -7  -2 1551.03 129.147   6
  -7  -7   2 78564.4 1125.58   1
   7   7  -2 79795.9 1241.73   6
  -7   7   2 78445.8 1163.65   6
   7  -7  -2 80943.9 1225.40   3
   7  -7  -2 79674.1 1164.70   6
   6  -7  -2 9391.16 288.856   3
   6  -7  -2 9682.59 250.716   6
  -6  -7   2 9372.17 246.166   1
   6   7  -2 9661.43 297.545   6
  -6   7   2 9755.39 251.497   6
  -5  -7   2 168648. 2175.73   1
   5  -7  -2 172122. 2147.17   6
  -5  -7   2 164721. 2090.23   5
   5   7  -2 168166. 2232.77   6
  -5  -7   2 172210. 2231.34   6
  -5   7   2 173940. 2139.85   6
   5  -7  -2 172838. 2239.30   3
   4  -7  -2 56615.2 869.176   3
  -4  -7   2 55521.7 749.966   5
  -4   7   2 57694.4 764.263   6
   4   7  -2 57034.7 857.075   6
  -4  -7   2 56254.8 836.402   1
  -4  -7   2 59054.1 856.039   6
   4  -7  -2 56114.5 770.607   6
   3  -7  -2 326.481 76.3503   3
  -3  -7   2 289.917 61.9990   1
  -3   7   2 311.853 63.6254   5
   3  -7  -2 319.826 36.6430   6
  -3   7   2 255.814 31.0103   6
  -3  -7   2 231.036 61.3814   6
   3   7  -2 336.658 76.1040   6
   2  -7  -2 45804.0 667.647   3
   2   7  -2 45180.3 599.537   5
  -2   7   2 44099.1 649.628   5
  -2   7   2 45850.2 666.227   2
   2   7  -2 45561.0 649.667   6
  -2  -7   2 45652.6 646.426   6
   2  -7  -2 40187.0 535.851   6
  -2  -7   2 44550.5 668.059   1
  -2   7   2 41917.6 535.606   6
  -1   7   2 6973.93 185.877   3
  -1  -7   2 6733.48 194.530   1
  -1  -7   2 7066.04 172.970   6
   1  -7  -2 6999.39 187.660   3
  -1   7   2 6459.94 111.682   6
  -1   7   2 7389.35 193.518   2
   1  -7  -2 7097.27 194.344   5
  -1   7   2 6968.28 187.343   5
   1   7  -2 6916.12 175.701   6
   1  -7  -2 6474.93 110.616   6
   0   7   2 15508.8 307.290   2
   0   7   2 15831.7 295.863   3
   0  -7  -2 15259.8 247.322   6
   0  -7   2 15801.7 287.984   6
   0  -7  -2 15665.8 309.531   2
   0  -7   2 15576.1 289.678   2
   0  -7  -2 15946.4 316.716   5
   0   7  -2 15418.8 287.101   6
   0  -7   2 15713.1 319.403   1
   0  -7  -2 15306.4 243.724   6
   1  -7   2 89803.0 1183.82   4
   1  -7   2 89787.5 1163.30   2
   1   7   2 91337.9 1178.69   3
  -1  -7  -2 90392.1 1209.21   2
  -1  -7  -2 90824.7 1166.82   6
  -1  -7  -2 89625.1 1167.51   6
   1   7   2 89451.5 1145.68   4
   1  -7   2 88366.1 1216.58   1
   1  -7   2 90648.1 1188.47   6
   1   7   2 91423.7 1207.78   2
  -1   7  -2 89967.1 1186.22   6
   2  -7   2 50602.9 683.593   2
   2  -7   2 52182.5 742.224   6
  -2  -7  -2 50770.2 749.101   2
  -2   7  -2 51250.1 693.623   2
   2  -7   2 50774.5 748.651   4
  -2  -7  -2 49596.5 740.816   6
   2   7   2 49160.9 740.867   2
  -2   7  -2 49662.4 742.232   4
   2   7   2 50959.0 707.631   4
  -2   7  -2 50044.2 735.130   6
   2  -7   2 51353.2 747.339   1
   3  -7   2 21225.4 387.164   1
   3  -7   2 22399.0 407.892   6
  -3   7  -2 21574.1 386.935   3
  -3   7  -2 21600.9 338.942   2
   3   7   2 21027.1 419.304   6
  -3  -7  -2 21508.4 383.864   4
  -3   7  -2 21534.4 398.577   6
  -3  -7  -2 20925.4 414.061   6
  -3   7  -2 21283.3 416.782   4
  -3  -7  -2 22303.2 407.054   2
   3   7   2 20903.4 394.095   2
   4   7   2 122830. 1723.02   6
  -4   7  -2 129300. 1651.77   3
  -4   7  -2 125329. 1568.83   2
  -4  -7  -2 126189. 1721.20   6
  -4  -7  -2 126636. 1674.04   4
  -4   7  -2 128327. 1729.06   4
  -4  -7  -2 127653. 1674.63   2
  -4   7  -2 125361. 1678.91   6
   4  -7   2 123846. 1632.11   1
   5  -7   2 4517.59 147.988   1
  -5   7  -2 4763.88 192.736   6
  -5   7  -2 4784.80 120.930   2
  -5  -7  -2 4987.82 192.449   4
   5   7   2 4474.45 204.441   6
  -5   7  -2 4659.76 209.147   4
  -5   7  -2 4512.99 183.051   6
  -5  -7  -2 4635.95 174.814   2
  -6   7  -2 34790.0 510.431   2
  -6   7  -2 35921.1 656.424   6
  -6  -7  -2 35998.9 617.783   2
  -6  -7  -2 36106.8 668.383   4
  -6   7  -2 35196.0 703.975   4
   6   7   2 35346.9 706.026   6
   6  -7   2 35975.9 556.591   1
  -7   7  -2 69359.6 945.134   2
  -7   7  -2 73194.2 1143.70   6
   7   7   2 71451.7 1194.09   6
  -7   7  -2 69640.2 1197.62   4
  -7  -7  -2 71886.1 1154.05   4
  -7  -7  -2 72388.6 1074.81   2
   7   7   2 73802.1 1039.00   1
  -8   7  -2 5054.04 142.599   2
  -8   7  -2 5280.89 247.347   6
   8   7   2 5242.46 170.735   1
  -8  -7  -2 5266.98 254.527   4
  -8  -7  -2 5169.18 206.772   2
  -8   7  -2 5248.69 272.513   4
   8   7   2 5134.83 268.511   6
  -9  -7  -2 19054.5 523.199   4
  -9   7  -2 18791.9 503.864   6
  -9   7  -2 18143.5 543.038   4
   9   7   2 18095.8 337.768   1
  -9  -7  -2 18289.1 434.226   2
 -10  -7  -2 5581.20 232.701   2
 -10   7  -2 5289.27 278.962   6
 -10  -7  -2 5762.26 297.317   4
 -10   7  -2 5205.02 306.613   4
 -11  -7  -2 12789.5 376.032   2
 -11   7  -2 13220.1 467.696   6
 -11  -7  -2 13327.4 497.980   6
 -11  -7  -2 13447.6 478.587   4
 -11   7  -2 13489.8 509.251   4
 -12   7  -2 10773.3 436.336   6
 -12  -7  -2 9679.58 445.114   6
 -12   7  -2 9952.42 455.182   4
 -12  -7  -2 9402.15 419.684   4
 -13   7  -2 4264.61 301.007   6
 -13  -7  -2 3794.67 293.119   4
 -13   7  -2 3485.33 293.965   4
  15  -8  -2 1096.57 210.498   3
 -15   8   2 834.310 174.060   6
  14  -8  -2 4008.33 288.963   3
 -14   8   2 3687.42 275.836   6
 -13   8   2 1080.34 163.995   6
  13  -8  -2 1491.01 196.237   3
  13   8  -2 1358.34 196.309   6
  12  -8  -2 467.700 137.087   3
  12   8  -2 489.918 143.889   6
  11  -8  -2 6496.62 309.217   3
  11  -8  -2 6609.16 298.816   6
  11   8  -2 6883.95 342.697   6
  10   8  -2 694.787 139.271   6
  10  -8  -2 772.394 135.474   3
  10  -8  -2 621.840 115.013   6
   9  -8  -2 3712.48 217.050   3
  -9   8   2 3299.16 107.909   1
   9   8  -2 3487.33 224.536   6
   9  -8  -2 3628.25 192.214   6
   8  -8  -2 10391.0 335.411   3
  -8   8   2 9754.19 228.188   1
   8   8  -2 9164.21 338.945   6
   8  -8  -2 9403.82 288.940   6
   7  -8  -2 227.354 83.3441   3
   7   8  -2 360.574 101.358   6
   7  -8  -2 482.785 76.3677   6
  -7   8   2 206.084 65.9428   6
  -7  -8   2 383.136 71.4776   1
   6  -8  -2 21889.5 478.483   3
  -6  -8   2 21452.0 429.208   1
  -6   8   2 21414.5 411.629   6
   6  -8  -2 21892.9 413.259   6
  -6  -8   2 21380.5 370.629   5
   6   8  -2 22330.0 490.954   6
   5   8  -2 23547.7 487.012   6
  -5  -8   2 24002.5 479.644   6
  -5  -8   2 23913.0 454.082   1
  -5  -8   2 23299.1 384.685   5
  -5   8   2 24761.8 408.512   6
   5  -8  -2 24459.1 491.790   3
   5  -8  -2 24230.7 410.620   6
   4  -8  -2 12762.6 317.315   3
   4   8  -2 12528.4 302.825   6
   4  -8  -2 12783.2 234.166   6
  -4  -8   2 12074.5 232.837   5
  -4  -8   2 12243.5 293.203   1
  -4  -8   2 13253.4 302.065   6
  -4   8   2 12513.4 225.947   6
   3  -8  -2 15993.3 346.648   3
  -3   8   2 16373.3 329.381   5
   3  -8  -2 14915.6 238.091   6
  -3  -8   2 16058.0 337.902   1
   3   8  -2 15324.7 325.995   6
  -3  -8   2 16630.0 325.670   6
  -3   8   2 15431.5 231.705   6
   2   8  -2 1614.14 82.0070   5
   2  -8  -2 1518.63 106.762   3
  -2   8   2 1653.54 103.429   5
  -2   8   2 1688.00 101.221   2
  -2  -8   2 1607.26 104.158   1
   2   8  -2 1306.48 92.8204   6
  -2  -8   2 1492.19 92.0957   6
  -2   8   2 1585.73 99.7549   3
  -1   8   2 7298.18 200.804   3
  -1   8   2 7455.06 205.615   5
  -1   8   2 7484.91 207.145   2
  -1  -8   2 7325.09 183.511   6
  -1  -8   2 7278.58 200.571   2
   1  -8  -2 7568.56 210.744   5
  -1  -8   2 7619.47 214.650   1
   1   8  -2 7167.66 185.310   6
   0  -8  -2 63004.8 812.173   6
   0  -8  -2 64058.1 912.147   2
   0  -8   2 63742.3 885.511   2
   0  -8  -2 62876.7 817.730   6
   0   8   2 65166.7 893.369   3
   0  -8   2 63093.9 853.636   4
   0  -8  -2 65577.8 919.495   5
   0  -8   2 64779.0 926.352   1
   0   8  -2 62122.1 871.577   6
   0   8   2 64853.9 910.953   2
   0  -8   2 63788.9 873.283   6
  -1  -8  -2 1711.28 82.1232   6
  -1  -8  -2 1679.34 107.841   2
  -1  -8  -2 1664.07 81.5447   6
   1  -8   2 1547.19 88.6560   6
   1   8   2 1857.64 104.163   2
   1  -8   2 1689.07 85.5269   4
   1  -8   2 1658.33 105.145   1
   1  -8   2 1610.35 84.8939   2
   1   8   2 1704.92 70.3200   4
  -1   8  -2 1539.62 86.4584   6
  -2  -8  -2 11150.2 267.445   2
  -2   8  -2 10972.9 246.648   6
   2  -8   2 11308.9 223.254   2
  -2   8  -2 11308.7 229.604   2
   2   8   2 11156.8 254.840   6
  -2  -8  -2 10634.0 247.652   6
   2   8   2 10880.2 260.353   2
  -2   8  -2 10909.6 252.162   4
   2  -8   2 11406.8 266.779   1
   2  -8   2 11743.2 254.815   6
   2   8   2 11238.2 224.277   4
   2  -8   2 11366.7 259.438   4
   3  -8   2 40440.0 635.133   1
  -3   8  -2 39864.2 631.925   6
  -3   8  -2 41229.7 638.337   3
   3  -8   2 40829.6 642.582   6
   3   8   2 39209.7 658.408   6
  -3  -8  -2 39609.3 653.706   6
  -3   8  -2 40412.1 581.711   2
  -3  -8  -2 39469.9 605.923   4
   3   8   2 40338.4 644.013   2
  -3   8  -2 39727.7 653.423   4
  -3  -8  -2 40893.8 651.091   2
  -4  -8  -2 47.0990 58.4135   2
  -4  -8  -2 121.797 63.6541   6
  -4   8  -2 80.6193 59.2799   6
   4  -8   2 63.0021 47.5412   1
  -4   8  -2 154.007 54.6173   3
  -4   8  -2 60.2658 34.5158   2
  -4   8  -2 22.9798 65.5877   4
  -4  -8  -2 75.9565 47.5309   4
   4   8   2 318.798 84.5421   6
   5  -8   2 34495.1 566.599   1
  -5   8  -2 34577.3 613.624   6
  -5  -8  -2 34743.9 613.864   4
   5   8   2 33544.0 655.831   6
  -5  -8  -2 34070.6 604.809   2
  -5   8  -2 35113.6 627.505   6
  -5   8  -2 34696.5 509.602   2
  -5   8  -2 34555.3 655.903   4
  -6   8  -2 31961.5 606.139   6
  -6  -8  -2 31458.6 608.154   4
   6  -8   2 32078.9 530.904   1
  -6   8  -2 31471.9 651.837   4
  -6  -8  -2 32279.0 588.337   2
   6   8   2 32675.4 578.685   1
   6   8   2 31130.4 654.095   6
  -6   8  -2 31241.3 478.355   2
  -7   8  -2 2195.42 91.7478   2
   7   8   2 2275.42 183.824   6
   7   8   2 2666.23 136.987   1
  -7   8  -2 2416.68 160.194   6
  -7  -8  -2 2633.82 169.999   4
  -7   8  -2 2694.78 192.721   4
  -7  -8  -2 2654.77 153.417   2
  -8  -8  -2 9690.00 298.095   2
  -8   8  -2 9785.15 330.127   6
  -8   8  -2 9809.16 373.205   4
   8   8   2 9779.83 255.116   1
   8   8   2 9997.52 369.226   6
  -8  -8  -2 9148.36 332.141   4
  -8   8  -2 9286.50 210.859   2
   9   8   2 845.446 72.8497   1
  -9   8  -2 537.209 109.157   6
   9   8   2 1080.40 158.907   6
  -9  -8  -2 1046.89 139.383   4
  -9  -8  -2 934.979 109.677   2
  -9   8  -2 1060.09 158.605   4
 -10   8  -2 3067.34 212.779   6
 -10  -8  -2 2938.10 177.544   2
 -10  -8  -2 2847.66 212.789   4
 -10   8  -2 2499.53 216.968   4
 -11  -8  -2 9915.32 432.752   6
 -11  -8  -2 10088.8 333.576   2
 -11   8  -2 10440.5 410.615   6
 -11  -8  -2 10127.1 411.835   4
 -11   8  -2 10158.5 441.683   4
 -12   8  -2-209.434 135.221   6
 -12  -8  -2 136.693 137.933   6
 -12  -8  -2 227.621 125.702   4
 -12   8  -2 35.9785 137.147   4
 -13   8  -2 2693.51 244.359   6
 -13  -8  -2 3096.48 263.078   4
 -15   9   2 997.817 195.283   6
  14  -9  -2 39.5085 142.917   3
 -14  -9   2 164.620 131.589   2
 -14   9   2-129.762 132.728   6
  13  -9  -2 2057.34 216.364   3
  13   9  -2 2121.62 234.232   6
 -13   9   2 2334.48 209.692   6
  12   9  -2-141.302 142.598   6
  12  -9  -2-11.8828 113.120   3
 -12   9   2 39.4177 101.890   6
  11   9  -2 434.887 149.090   6
  11  -9  -2 326.422 119.896   3
  10   9  -2 4618.03 272.452   6
  10  -9  -2 4880.97 260.720   3
  10  -9  -2 4904.48 237.720   6
   9  -9  -2 1657.79 159.220   3
  -9   9   2 1713.38 84.8230   1
   9   9  -2 1779.70 172.956   6
   9  -9  -2 1745.49 140.124   6
   8  -9  -2 2920.45 187.829   3
  -8   9   2 2400.81 149.484   6
   8   9  -2 2769.67 192.919   6
   8  -9  -2 2959.69 159.757   6
  -8   9   2 2879.68 126.365   1
  -7   9   2 1313.02 102.573   6
   7  -9  -2 1446.63 139.064   3
   7  -9  -2 1335.44 104.357   6
  -7  -9   2 1310.59 105.742   1
   7   9  -2 1638.04 147.659   6
  -6  -9   2 7943.69 244.856   1
   6  -9  -2 7762.14 270.190   3
   6   9  -2 8215.61 278.602   6
   6  -9  -2 8034.60 215.781   6
  -6  -9   2 7714.61 195.592   5
  -6   9   2 7646.58 214.228   6
   5  -9  -2 2387.19 148.632   3
   5   9  -2 2165.29 140.435   6
  -5  -9   2 2158.67 97.6668   5
  -5  -9   2 2080.59 124.056   1
   5  -9  -2 2311.44 99.6031   6
  -5   9   2 2585.53 101.687   6
  -5  -9   2 2396.64 138.360   6
  -4  -9   2 4903.46 176.486   6
  -4   9   2 4534.81 113.419   6
   4  -9  -2 4663.37 189.374   3
  -4  -9   2 4430.53 133.042   5
  -4  -9   2 4544.02 176.614   1
   4  -9  -2 4652.62 119.448   6
   4   9  -2 4541.22 180.728   6
  -3  -9   2 851.596 87.9297   1
   3  -9  -2 770.602 36.6296   6
  -3   9   2 861.305 35.4399   6
   3  -9  -2 1009.46 100.097   3
   3   9  -2 863.552 86.4337   6
  -3   9   2 1013.28 89.1054   2
  -3  -9   2 1118.95 86.7680   6
  -3   9   2 1015.65 92.4271   5
  -2   9   2 1134.78 90.0714   3
   2  -9  -2 1200.47 103.482   3
  -2   9   2 1250.99 94.1820   2
  -2  -9   2 943.441 90.8794   2
   2   9  -2 1054.97 75.9860   5
  -2  -9   2 1046.66 92.1926   1
  -2   9   2 1115.13 93.1232   5
   2   9  -2 1018.36 81.6377   6
  -2  -9   2 1167.45 82.8429   6
  -1   9   2 3042.45 135.436   3
  -1   9   2 3487.08 145.888   2
  -1  -9   2 3167.92 144.782   1
  -1   9   2 3587.51 144.484   5
  -1  -9   2 3346.61 139.025   2
   1  -9  -2 3571.08 150.301   5
   1   9  -2 3225.90 125.573   6
  -1  -9   2 3432.86 122.937   6
   0  -9  -2 8167.62 157.189   6
   0  -9   2 8233.83 199.068   6
   0   9   2 8431.72 218.644   3
   0  -9  -2 8198.41 154.378   6
   0  -9  -2 8183.41 230.351   2
   0  -9   2 8419.13 212.957   2
   0  -9   2 8393.20 182.350   4
   0  -9  -2 8439.90 235.521   5
   0  -9   2 8123.67 231.770   1
   0   9  -2 8174.34 199.147   6
   0   9   2 8561.57 228.033   2
   1  -9   2 203.209 47.0904   6
  -1  -9  -2 140.837 75.9396   5
  -1  -9  -2 138.177 66.6722   2
   1  -9   2 95.5229 49.0243   2
  -1  -9  -2 78.6622 37.5415   6
   1  -9   2 107.166 56.0655   1
  -1  -9  -2 101.639 38.6207   6
   1   9   2 86.3801 31.4163   4
   1  -9   2 134.296 42.8216   4
   1   9   2 87.3552 56.4433   2
  -1   9  -2 117.584 50.9391   6
  -2   9  -2 5881.57 172.709   6
   2  -9   2 6275.29 178.979   6
  -2   9  -2 5776.03 164.405   2
  -2  -9  -2 5686.14 173.413   6
   2  -9   2 5917.88 192.782   1
   2   9   2 6116.79 181.590   6
   2   9   2 5753.23 188.964   2
   2  -9   2 5955.79 161.649   2
  -2   9  -2 5831.19 174.830   4
   2   9   2 6103.54 152.565   4
   2  -9   2 5740.49 178.988   4
  -2  -9  -2 5934.63 198.068   2
  -3   9  -2 29763.5 508.093   6
  -3  -9  -2 30482.0 531.547   6
  -3   9  -2 30456.1 525.956   3
   3  -9   2 30116.0 515.602   6
   3  -9   2 30363.3 526.084   1
   3   9   2 29933.3 530.717   2
  -3   9  -2 29636.9 473.892   2
   3  -9   2 29431.6 462.276   2
   3   9   2 28935.7 533.557   6
  -3  -9  -2 29296.3 476.902   4
  -3   9  -2 30408.0 530.311   4
  -3  -9  -2 30802.2 541.958   2
  -4  -9  -2 2163.71 134.144   6
   4  -9   2 2291.32 123.075   6
  -4   9  -2 2175.51 121.069   6
   4   9   2 2204.11 142.434   6
  -4   9  -2 2274.81 124.718   3
  -4   9  -2 2218.62 94.7474   2
  -4  -9  -2 2280.45 114.274   4
   4  -9   2 2108.91 113.933   1
  -4   9  -2 2232.98 135.989   4
  -4  -9  -2 2199.45 128.787   2
  -5  -9  -2 104.442 53.9473   4
  -5   9  -2 33.7547 55.2588   3
   5  -9   2 111.444 49.3265   1
   5   9   2 118.741 81.5227   6
  -5   9  -2 78.4447 61.6341   6
  -5   9  -2 51.7340 67.0771   4
  -5  -9  -2 33.5607 59.8292   2
  -5   9  -2 91.7475 39.6621   2
  -5   9  -2 77.4345 61.9291   6
   6   9   2 149.722 92.2402   6
  -6   9  -2 254.324 81.7005   6
   6   9   2 282.781 64.5553   1
  -6   9  -2 150.204 39.5686   2
  -6  -9  -2 168.546 72.8002   2
   6  -9   2 191.534 54.5200   1
  -6  -9  -2 298.464 78.8391   4
  -6   9  -2 247.949 86.3534   4
   7   9   2 3838.75 168.320   1
  -7   9  -2 3363.89 184.228   6
  -7  -9  -2 3325.64 172.692   2
   7   9   2 3425.63 216.620   6
  -7   9  -2 3505.77 210.493   4
  -7  -9  -2 3296.28 184.480   4
  -7   9  -2 3360.31 119.516   2
   8   9   2 1041.93 94.8651   1
  -8   9  -2 1281.56 137.212   6
   8   9   2 1156.89 151.083   6
  -8  -9  -2 1251.70 120.814   2
  -8  -9  -2 1046.80 131.018   4
  -8   9  -2 1130.70 147.715   4
  -8   9  -2 1025.77 72.7543   2
   9   9   2 1875.64 192.434   6
  -9   9  -2 1503.24 150.875   6
   9   9   2 1559.02 101.509   1
  -9  -9  -2 1445.64 131.688   2
  -9  -9  -2 1443.30 153.443   4
  -9   9  -2 1611.09 176.204   4
 -10   9  -2-5.07818 94.5893   6
 -10   9  -2 70.2576 116.436   4
 -10  -9  -2 178.842 92.0464   2
 -10  -9  -2 225.299 120.291   4
 -11   9  -2 199.408 126.857   6
 -11  -9  -2 181.404 138.981   6
 -11  -9  -2 17.0801 110.533   4
 -11   9  -2 205.788 142.278   4
 -11  -9  -2 259.326 104.183   2
 -12  -9  -2 2616.58 249.763   6
 -12   9  -2 2695.48 256.724   4
 -12   9  -2 2362.25 222.875   6
 -12  -9  -2 2348.79 219.901   4
 -13   9  -2 214.986 139.071   6
 -13  -9  -2 365.078 154.342   4
 -14  10   2 8517.11 390.861   6
 -14 -10   2 8792.06 403.636   2
  14 -10  -2 9276.77 433.521   3
  13 -10  -2 1980.42 211.076   3
  13  10  -2 2310.73 245.895   6
 -13 -10   2 2256.86 219.233   2
 -13  10   2 2446.06 214.158   6
  12  10  -2 2416.70 244.661   6
  12 -10  -2 2348.15 216.134   3
 -12  10   2 2395.42 195.887   6
  11 -10  -2 21490.1 591.924   3
 -11  10   2 21569.7 543.062   6
  11  10  -2 20218.9 611.827   6
  10 -10  -2 1741.70 177.254   3
  10  10  -2 1497.00 179.907   6
   9 -10  -2 5166.34 255.989   3
  -9  10   2 4809.35 153.883   1
   9  10  -2 4590.70 256.404   6
   9 -10  -2 5118.82 220.222   6
  -8  10   2 22950.2 431.025   1
   8 -10  -2 22897.2 548.651   3
   8 -10  -2 23325.7 481.800   6
  -8  10   2 22017.5 477.260   6
   8  10  -2 22491.6 562.225   6
   7 -10  -2 8615.79 306.690   3
  -7  10   2 9210.79 256.752   6
   7  10  -2 9129.18 317.302   6
   7 -10  -2 9347.87 255.222   6
  -7 -10   2 8635.27 225.702   5
  -7 -10   2 8714.98 274.223   1
  -7  10   2 8763.69 248.170   1
   6 -10  -2 57247.5 829.967   6
   6 -10  -2 56543.8 946.960   3
   6  10  -2 58684.1 954.528   6
  -6 -10   2 55331.2 811.799   5
  -6  10   2 56511.8 828.272   6
  -6 -10   2 56673.2 909.510   1
   5 -10  -2 14560.3 374.030   3
   5 -10  -2 14607.9 274.508   6
  -5 -10   2 14671.1 355.193   1
  -5 -10   2 14061.8 285.567   5
  -5  10   2 14138.5 267.603   6
   5  10  -2 14719.6 363.490   6
   4 -10  -2 17962.3 405.165   3
  -4 -10   2 17334.0 388.522   1
   4 -10  -2 16714.7 272.876   6
  -4  10   2 17425.4 382.374   5
   4  10  -2 16991.9 379.766   6
  -4  10   2 18207.6 386.923   2
  -4  10   2 17184.7 269.386   6
  -4 -10   2 18008.0 375.972   6
  -3  10   2 44598.7 710.202   2
   3 -10  -2 43459.2 718.549   3
  -3 -10   2 42619.8 716.493   1
  -3 -10   2 42346.3 714.180   2
  -3  10   2 42685.4 700.106   5
   3  10  -2 42690.8 683.817   6
   3  10  -2 43229.7 643.047   5
  -3 -10   2 43514.9 681.435   6
  -3  10   2 42180.9 713.540   3
  -2 -10   2 17916.5 379.089   2
  -2  10   2 17252.0 372.623   3
   2  10  -2 17613.2 348.240   6
  -2  10   2 17968.9 374.703   2
  -2  10   2 17413.3 371.066   5
  -2 -10   2 17459.2 383.342   1
   2  10  -2 17735.9 335.002   5
  -2 -10   2 18172.3 346.862   6
  -1  10   2 73123.4 1044.88   5
  -1  10   2 74107.9 1045.80   2
   1 -10  -2 73434.1 1047.60   5
  -1 -10   2 71134.9 1059.34   1
  -1 -10   2 71678.0 1031.10   2
   1  10  -2 71059.0 992.460   6
  -1  10   2 71002.0 1035.31   3
  -1 -10   2 71567.8 991.588   6
   0 -10   2 148907. 1990.02   1
   0  10   2 154057. 1960.60   3
   0  10  -2 148453. 1912.27   6
   0 -10  -2 148553. 1836.76   6
   0 -10  -2 151434. 1975.75   2
   0 -10  -2 152524. 1982.04   5
   0 -10  -2 152653. 1842.22   6
   0 -10   2 151834. 1882.15   4
   0 -10   2 152181. 1948.15   2
   0  10   2 153704. 1979.24   2
   0 -10   2 148723. 1912.26   6
   1 -10   2 1155.86 84.9403   2
   1 -10   2 1342.79 83.5202   6
  -1 -10  -2 1227.91 103.253   2
   1  10   2 1232.12 99.7372   2
  -1  10  -2 1245.14 86.7853   2
  -1 -10  -2 1215.15 71.3604   6
  -1 -10  -2 1166.26 108.839   5
  -1 -10  -2 1318.98 73.1893   6
   1  10   2 1174.59 56.8660   4
   1 -10   2 1212.84 76.1358   4
   1 -10   2 1240.16 99.2626   1
  -1  10  -2 1084.73 77.0183   6
  -2 -10  -2 107837. 1470.52   2
  -2 -10  -2 105563. 1412.60   6
   2 -10   2 109797. 1417.94   6
   2 -10   2 105091. 1466.75   1
   2  10   2 107662. 1464.46   2
   2 -10   2 106020. 1396.20   2
   2  10   2 106193. 1423.73   6
  -2  10  -2 107538. 1413.87   2
  -2  10  -2 105172. 1411.17   4
  -2  10  -2 106483. 1409.10   6
  -3 -10  -2 79089.5 1135.11   6
  -3  10  -2 79190.6 1107.32   6
   3  10   2 75263.8 1135.99   6
  -3  10  -2 79750.3 1130.95   4
   3 -10   2 81710.9 1119.81   6
   3 -10   2 80065.6 1148.30   1
   3  10   2 79096.6 1148.65   2
   3 -10   2 79751.3 1073.16   2
  -3  10  -2 80853.4 1144.15   3
  -3  10  -2 79651.8 1085.89   2
  -3 -10  -2 79322.6 1157.39   2
  -4 -10  -2 1730.78 126.204   6
  -4  10  -2 2030.91 122.634   3
  -4  10  -2 1719.13 109.614   6
  -4  10  -2 1650.16 89.5967   2
   4 -10   2 1709.77 110.450   1
   4 -10   2 1928.43 114.464   6
  -4 -10  -2 1675.85 99.1838   4
  -4  10  -2 1850.02 125.421   4
  -4 -10  -2 1772.64 125.336   2
   4  10   2 1766.25 132.609   6
  -5 -10  -2 28084.3 518.997   4
  -5  10  -2 27922.5 534.446   3
  -5  10  -2 28510.6 545.509   6
   5  10   2 27064.5 580.106   6
  -5  10  -2 28578.1 532.888   6
  -5  10  -2 27857.3 465.004   2
  -5  10  -2 29239.9 580.700   4
  -5 -10  -2 28004.9 551.448   2
   5 -10   2 28089.2 522.940   1
  -6  10  -2 18155.5 418.082   6
   6  10   2 18315.9 473.546   6
  -6 -10  -2 18296.5 429.345   2
  -6 -10  -2 18076.2 418.152   4
  -6  10  -2 17938.5 462.763   4
  -6  10  -2 17926.9 338.371   2
   6  10   2 18616.4 424.905   1
  -7  10  -2 3797.73 193.624   6
  -7  10  -2 3983.42 137.228   2
  -7  10  -2 3822.86 221.305   4
   7  10   2 4034.56 230.831   6
   7  10   2 4132.35 180.506   1
  -7 -10  -2 3919.80 198.279   4
  -7 -10  -2 3852.35 194.410   2
   8  10   2 22546.3 588.094   6
  -8 -10  -2 22529.2 512.167   2
  -8  10  -2 22026.4 526.385   6
   8  10   2 22775.7 463.060   1
  -8  10  -2 21619.2 392.649   2
  -8 -10  -2 21816.3 531.341   4
  -8  10  -2 21941.7 578.289   4
   9  10   2 3578.17 160.412   1
  -9  10  -2 3487.28 215.713   6
   9  10   2 3844.25 252.284   6
  -9  10  -2 3532.41 244.339   4
  -9 -10  -2 3353.73 194.656   2
  -9 -10  -2 3647.34 223.710   4
 -10 -10  -2 10956.4 359.554   2
 -10 -10  -2 10552.8 396.542   4
 -10  10  -2 11618.2 406.464   6
 -10  10  -2 10571.7 429.438   4
 -11  10  -2 15394.8 497.099   6
 -11 -10  -2 15623.6 448.273   2
 -11 -10  -2 14957.0 502.033   4
 -11  10  -2 15502.7 550.363   4
 -11 -10  -2 15563.4 552.469   6
 -12  10  -2 1546.97 192.234   6
 -12 -10  -2 1346.00 187.119   4
 -12  10  -2 1317.10 198.213   4
 -12 -10  -2 1441.52 198.221   6
 -13  10  -2 11316.1 469.438   6
 -13 -10  -2 10390.6 456.515   4
  14 -11  -2 96.9682 161.315   3
 -14  11   2 261.425 138.900   6
 -14 -11   2 284.299 155.959   2
 -13  11   2 12062.9 437.674   6
 -13 -11   2 12352.8 469.200   2
  13  11  -2 11515.0 511.968   6
  13 -11  -2 12810.8 491.620   3
  12 -11  -2 3965.79 274.425   3
 -12  11   2 3744.04 235.621   6
 -12 -11   2 3575.54 252.104   2
  12  11  -2 4375.76 302.063   6
  11 -11  -2 3226.39 240.842   3
  11  11  -2 3089.55 254.253   6
 -11  11   2 2999.41 200.694   6
  10 -11  -2 11821.8 416.150   3
 -10  11   2 11455.3 356.791   6
  10  11  -2 11756.1 433.045   6
   9 -11  -2 5413.05 268.455   3
   9  11  -2 4916.53 267.994   6
  -9  11   2 5071.22 213.532   6
  -9  11   2 5218.46 169.283   1
  -9 -11   2 4821.08 186.281   5
  -8 -11   2 1338.76 98.7258   5
  -8  11   2 1372.85 102.032   1
   8 -11  -2 1504.83 156.911   3
   8  11  -2 1384.24 155.720   6
  -8  11   2 1291.63 112.793   6
   7 -11  -2 33196.8 678.252   3
  -7 -11   2 32296.8 547.949   5
  -7  11   2 32692.2 569.994   6
   7  11  -2 32874.9 678.498   6
  -7 -11   2 32689.9 631.665   1
  -7  11   2 32621.8 586.774   1
  -6 -11   2 130.195 69.8100   1
  -6 -11   2 40.3765 53.6764   5
   6 -11  -2 34.2388 78.0945   3
   6  11  -2 125.551 87.3711   6
  -6  11   2 64.1775 48.2239   6
   5 -11  -2 44713.3 781.222   3
   5  11  -2 44375.5 760.183   6
  -5  11   2 44407.2 623.301   6
  -5 -11   2 42569.6 660.535   5
  -5 -11   2 44330.0 765.294   1
  -5  11   2 44158.5 621.831   6
  -4 -11   2 76991.4 1134.41   1
   4 -11  -2 76468.3 1141.96   3
  -4  11   2 75829.7 1113.32   5
  -4  11   2 72565.9 936.693   6
  -4 -11   2 76831.5 1141.10   2
  -4 -11   2 77909.2 1096.37   6
  -4  11   2 79398.4 1122.87   2
   4  11  -2 76194.4 1104.74   6
  -4  11   2 72316.8 934.447   6
  -3 -11   2 9176.00 273.608   1
  -3  11   2 8919.61 256.670   2
  -3  11   2 8751.30 258.140   5
   3  11  -2 8885.60 242.993   6
   3 -11  -2 8505.13 264.716   3
  -3 -11   2 8829.80 269.841   2
  -3 -11   2 8759.74 239.242   6
   3  11  -2 8867.00 223.517   5
  -3  11   2 8891.04 265.531   3
  -2  11   2 38968.9 661.896   3
  -2  11   2 38250.1 652.184   5
  -2  11   2 40099.3 660.803   2
  -2 -11   2 38586.3 674.808   1
  -2 -11   2 37516.6 651.281   2
   2  11  -2 38848.8 611.999   5
   2  11  -2 37930.8 614.845   6
  -2 -11   2 38988.7 617.089   6
  -1  11   2 60383.7 908.174   2
  -1  11   2 59410.4 898.342   3
  -1 -11   2 58957.3 924.636   1
   1 -11  -2 59545.4 907.000   5
  -1  11   2 60447.7 908.333   5
   1 -11  -2 57022.2 898.876   2
   1  11  -2 58766.8 847.802   6
  -1 -11   2 59434.8 847.152   6
  -1 -11   2 58498.1 892.495   2
   0 -11  -2 306.513 81.5916   2
   0 -11   2 435.680 60.7203   6
   0  11   2 241.076 72.0163   2
   0 -11   2 485.312 80.8732   1
   0 -11   2 278.001 43.6420   4
   0  11   2 296.892 66.6676   3
   0 -11  -2 311.564 33.6954   6
   0 -11  -2 463.903 92.1688   5
   0 -11  -2 275.189 31.5951   6
   0 -11   2 326.055 69.0465   2
   0  11  -2 241.549 50.6132   6
   1 -11   2 73246.1 998.805   6
  -1 -11  -2 72522.2 1066.76   2
   1 -11   2 71881.8 1078.46   1
  -1  11  -2 72065.3 1030.10   2
   1  11   2 73364.2 1068.85   2
  -1  11  -2 71178.8 992.153   6
  -1 -11  -2 73858.5 965.607   6
   1  11   2 70468.3 917.079   4
   1 -11   2 72779.4 984.695   4
   1 -11   2 71066.1 1017.96   2
  -1 -11  -2 71853.2 1065.30   5
  -2 -11  -2 12252.9 313.907   2
  -2 -11  -2 12035.3 314.583   5
   2 -11   2 11812.1 266.898   2
   2  11   2 11595.2 272.253   6
   2 -11   2 11684.2 308.589   1
   2 -11   2 12286.9 271.182   6
  -2  11  -2 12075.8 276.938   2
  -2 -11  -2 12145.7 270.060   6
   2  11   2 12307.6 308.523   2
  -2  11  -2 11361.0 262.275   6
  -3  11  -2 46878.6 718.204   6
  -3  11  -2 47603.7 742.387   4
   3 -11   2 47418.5 775.826   1
  -3  11  -2 47213.2 765.351   3
   3 -11   2 46927.9 727.061   6
   3  11   2 47807.8 774.602   2
  -3  11  -2 47914.7 716.412   2
  -3 -11  -2 46860.5 747.736   6
   3  11   2 43949.9 748.256   6
   3 -11   2 46390.4 700.313   2
  -3 -11  -2 46408.7 776.825   2
   4 -11   2 29507.8 548.687   1
  -4 -11  -2 29038.8 552.997   6
   4  11   2 27029.0 552.556   6
  -4 -11  -2 28170.3 483.916   4
   4 -11   2 28036.5 516.911   6
  -4  11  -2 28395.6 543.418   4
  -4  11  -2 28773.5 542.817   3
  -4  11  -2 28025.7 482.672   2
  -4  11  -2 28315.5 511.186   6
  -4 -11  -2 28296.9 554.798   2
  -5  11  -2 5995.51 219.615   3
   5  11   2 5614.45 237.532   6
  -5  11  -2 5444.16 172.138   2
  -5  11  -2 5784.01 232.810   4
  -5  11  -2 5658.16 203.529   6
  -5 -11  -2 5578.20 193.893   4
  -5 -11  -2 5736.54 228.416   2
  -5  11  -2 6037.53 217.307   6
   5  11   2 5935.11 232.618   1
   5 -11   2 5727.74 208.655   1
  -6  11  -2 38773.8 689.537   6
  -6 -11  -2 38568.4 680.445   4
   6  11   2 38647.8 761.425   6
  -6 -11  -2 38983.0 717.737   2
  -6  11  -2 37769.9 604.989   2
  -6  11  -2 38886.2 749.784   4
   6  11   2 37469.9 701.226   1
  -7  11  -2 7991.80 279.443   6
   7  11   2 8937.66 338.156   6
  -7 -11  -2 8202.95 283.358   4
  -7 -11  -2 8382.53 292.594   2
   7  11   2 8670.99 276.362   1
  -7  11  -2 8196.81 319.664   4
  -7  11  -2 8085.24 214.336   2
  -8  11  -2 3214.70 191.127   6
   8  11   2 3350.07 165.106   1
  -8  11  -2 3236.16 217.292   4
   8  11   2 3056.01 220.247   6
  -8 -11  -2 3256.39 193.143   2
  -8 -11  -2 3183.87 190.463   4
  -9  11  -2 14119.5 425.742   6
  -9 -11  -2 14386.5 414.695   2
  -9 -11  -2 13468.9 424.450   4
  -9  11  -2 13773.2 470.003   4
   9  11   2 14290.0 352.066   1
   9  11   2 13702.9 476.662   6
 -10  11  -2 3480.93 225.409   6
 -10 -11  -2 3721.76 215.489   2
 -10  11  -2 3602.77 260.350   4
 -10 -11  -2 3702.92 234.768   4
 -11  11  -2 1065.69 160.282   6
 -11  11  -2 892.520 174.941   4
 -11 -11  -2 977.686 157.224   4
 -11 -11  -2 867.703 126.361   2
 -12  11  -2 5477.11 315.417   6
 -12 -11  -2 5983.52 360.528   6
 -12 -11  -2 5880.95 327.162   4
 -12  11  -2 5274.71 342.159   4
 -13  11  -2 3711.81 280.105   6
 -13 -11  -2 3863.13 291.783   4
  14 -12  -2-156.047 156.707   3
 -14 -12   2-33.6720 135.126   2
  13  12  -2 467.012 181.015   6
  13 -12  -2 445.088 161.425   3
 -13  12   2 267.295 126.981   6
 -13 -12   2 285.648 136.231   2
  12  12  -2 233.320 130.632   6
  12 -12  -2 232.604 138.105   3
 -12  12   2 240.369 99.3469   6
 -12 -12   2 454.920 144.067   2
  11 -12  -2 481.138 142.782   3
 -11  12   2 470.255 107.733   6
 -11 -12   2 213.941 117.658   2
  11  12  -2 319.780 134.831   6
  10 -12  -2 105.481 104.187   3
 -10  12   2-39.6649 78.1499   6
 -10 -12   2 58.2954 65.4097   5
 -10 -12   2 173.130 115.051   2
  10  12  -2-23.1323 115.789   6
   9 -12  -2 2068.30 183.588   3
  -9  12   2 1965.99 139.492   6
  -9 -12   2 1868.15 122.045   5
   9  12  -2 1885.64 182.488   6
  -9  12   2 2003.24 112.762   1
  -8  12   2 3561.82 168.598   6
   8 -12  -2 4100.25 227.907   3
  -8  12   2 3961.22 171.598   6
   8  12  -2 3734.59 232.240   6
  -8  12   2 3962.53 169.147   1
  -8 -12   2 3911.96 164.007   5
   7 -12  -2 6722.20 281.876   3
  -7 -12   2 6925.83 211.911   5
   7  12  -2 6739.19 278.934   6
  -7  12   2 7090.29 210.088   6
  -7  12   2 6711.81 209.204   6
  -7  12   2 6997.54 236.501   1
  -6  12   2 589.080 61.8245   6
   6  12  -2 526.841 107.183   6
  -6 -12   2 633.297 72.2964   5
   6 -12  -2 507.130 101.059   3
  -6  12   2 479.384 57.5690   6
  -6  12   2 645.615 89.1523   1
   5 -12  -2 515.143 97.1586   3
  -5 -12   2 447.586 94.0413   1
  -5  12   2 587.529 47.8747   6
  -5 -12   2 477.676 98.2276   2
  -5 -12   2 639.395 74.2895   5
   5  12  -2 548.491 96.3931   6
  -5  12   2 569.386 48.6189   6
  -4 -12   2 4037.18 191.120   1
  -4 -12   2 3752.60 187.853   2
  -4  12   2 3185.97 76.4153   6
   4 -12  -2 3637.55 183.467   3
  -4 -12   2 3626.74 161.327   6
   4  12  -2 3678.36 171.975   6
  -3  12   2 236.192 65.9001   2
  -3 -12   2 294.746 96.8194   2
   3  12  -2 163.310 57.5219   5
   3  12  -2 232.222 66.9720   6
  -3 -12   2 247.023 62.0443   6
  -3 -12   2 224.278 74.9186   1
  -2  12   2 2335.37 134.761   3
  -2  12   2 2275.47 129.806   2
  -2 -12   2 2353.94 147.203   2
  -2  12   2 2104.97 130.536   5
  -2 -12   2 2056.99 135.910   1
   2  12  -2 2307.97 117.801   6
   2  12  -2 2290.24 120.297   5
  -2 -12   2 2175.13 116.702   6
  -1  12   2 27327.3 521.900   3
  -1 -12   2 27211.8 548.344   1
  -1 -12   2 27836.4 472.982   6
  -1 -12   2 27887.0 519.786   2
   1  12  -2 28622.4 507.003   5
   1 -12  -2 27022.8 521.729   2
   1  12  -2 26849.2 469.754   6
  -1  12   2 27965.7 529.904   5
  -1  12   2 28565.6 531.929   2
   0  12   2 16159.0 363.301   3
   0 -12  -2 16149.2 256.005   6
   0 -12  -2 16284.3 375.511   2
   0 -12  -2 16459.9 379.279   5
   0 -12  -2 15864.9 253.454   6
   0 -12   2 15988.6 288.232   4
   0 -12   2 16570.9 360.074   2
   0  12   2 17463.3 382.501   2
   0  12  -2 16099.1 319.048   6
   0 -12   2 16497.5 393.579   1
   0 -12   2 16408.1 321.545   6
  -1 -12  -2 28209.9 437.284   6
   1 -12   2 28301.8 552.269   1
  -1 -12  -2 27839.3 539.165   2
   1 -12   2 28806.5 474.636   6
  -1  12  -2 29089.2 514.012   2
   1  12   2 28592.2 536.446   2
  -1 -12  -2 29181.4 545.578   5
   1  12   2 26549.6 390.401   4
  -1  12  -2 27722.5 467.027   6
   1 -12   2 28043.8 457.694   4
   1 -12   2 27914.3 499.668   2
   2 -12   2 4842.15 166.773   2
   2 -12   2 4775.64 198.385   1
   2 -12   2 4706.77 159.236   6
  -2 -12  -2 4582.25 154.294   6
   2  12   2 4735.47 189.500   2
  -2  12  -2 4536.82 167.898   2
  -2 -12  -2 4754.16 199.145   5
  -2 -12  -2 4537.62 193.611   2
   2  12   2 4628.82 163.326   6
  -2  12  -2 4462.22 154.785   6
  -3 -12  -2 339.247 64.2954   6
  -3  12  -2 397.628 64.1003   6
  -3 -12  -2 394.454 86.6519   2
  -3  12  -2 474.384 86.5094   3
   3 -12   2 357.413 63.5113   6
   3  12   2 382.166 76.5457   2
  -3  12  -2 397.779 65.9558   2
   3  12   2 424.574 78.8083   6
   3 -12   2 519.916 71.7750   2
  -3  12  -2 401.004 66.9421   4
   3 -12   2 366.776 73.2563   1
  -4  12  -2 3626.75 174.305   3
  -4 -12  -2 3335.09 163.961   6
   4 -12   2 3434.86 150.479   6
   4  12   2 3327.56 174.566   6
  -4  12  -2 3568.66 143.406   2
  -4  12  -2 3741.78 156.155   6
  -4  12  -2 3389.48 163.072   4
  -4 -12  -2 3275.55 131.200   4
  -4 -12  -2 3432.65 178.380   2
   4 -12   2 3656.28 173.188   1
  -5  12  -2 6431.71 218.475   6
   5  12   2 6029.13 249.228   6
  -5  12  -2 6021.73 222.184   6
  -5  12  -2 5937.44 187.600   2
  -5 -12  -2 5926.79 196.900   4
  -5  12  -2 6224.27 241.189   4
  -5 -12  -2 5902.09 238.772   2
   5 -12   2 6134.12 225.648   1
   5  12   2 5758.41 238.650   1
  -6  12  -2 1308.08 115.528   6
  -6  12  -2 1278.34 91.4225   2
   6  12   2 1196.26 137.205   6
  -6 -12  -2 1341.26 108.045   4
   6  12   2 1398.09 124.689   1
  -6  12  -2 1471.22 139.655   4
  -6 -12  -2 1303.58 125.859   2
  -7  12  -2 750.486 103.974   6
   7  12   2 965.676 137.267   6
  -7  12  -2 849.318 129.394   4
  -7 -12  -2 1153.74 117.256   4
  -7  12  -2 910.433 81.5713   2
   7  12   2 898.425 107.410   1
  -7 -12  -2 962.468 125.649   2
  -8  12  -2 85.4308 92.8461   4
  -8  12  -2 48.6619 77.1399   6
   8  12   2 127.555 67.7591   1
  -8 -12  -2 189.363 85.6689   4
   8  12   2 198.554 105.765   6
  -8 -12  -2 92.3186 85.1666   2
   9  12   2 4487.67 196.665   1
  -9 -12  -2 4008.86 223.304   2
  -9  12  -2 4464.19 266.999   4
   9  12   2 3730.14 252.317   6
  -9  12  -2 4353.19 233.163   6
  -9 -12  -2 4271.13 235.486   4
 -10  12  -2 349.318 110.499   6
  10  12   2 611.580 152.253   6
 -10  12  -2 467.971 139.405   4
 -10 -12  -2 371.682 111.606   4
 -10 -12  -2 292.471 100.979   2
 -11  12  -2 1308.04 163.681   6
 -11 -12  -2 1446.40 171.243   4
 -11  12  -2 1329.93 194.177   4
 -11 -12  -2 1418.52 160.461   2
 -12  12  -2 77.1178 120.942   6
 -12 -12  -2 91.3541 123.672   6
 -12 -12  -2-36.2939 119.479   4
 -12  12  -2 115.513 122.311   4
 -13  12  -2-103.553 120.297   6
 -13 -12  -2 119.426 123.424   4
  14 -13  -2-175.336 155.939   3
 -14 -13   2-197.990 155.375   2
 -14 -13   2-34.2557 124.363   4
  13 -13  -2 8777.54 416.330   3
 -13 -13   2 7850.94 384.866   2
  13  13  -2 8766.81 449.282   6
  12 -13  -2 6345.27 345.526   3
 -12 -13   2 6021.24 328.459   2
 -12  13   2 6501.57 294.232   6
  12  13  -2 6518.48 364.155   6
 -11  13   2 156.142 95.2392   6
  11  13  -2 254.501 143.154   6
 -11 -13   2 163.098 125.396   2
  11 -13  -2 96.9512 124.886   3
  10 -13  -2 5854.74 305.540   3
 -10  13   2 6044.60 245.347   6
 -10 -13   2 5942.57 222.052   5
 -10 -13   2 5509.77 294.820   2
  10  13  -2 5711.55 311.402   6
   9 -13  -2 2901.41 215.250   3
  -9  13   2 2739.04 156.370   6
  -9 -13   2 2665.95 203.794   2
   9  13  -2 2690.73 209.825   6
  -9 -13   2 2507.26 144.807   5
  -9  13   2 2695.98 139.604   1
   8 -13  -2 5362.21 265.799   3
  -8  13   2 5155.99 200.875   1
  -8  13   2 5211.60 193.193   6
  -8 -13   2 5090.16 258.027   2
  -8 -13   2 5087.46 192.279   5
   8  13  -2 5523.77 270.325   6
  -8  13   2 4983.82 195.561   6
  -7  13   2 28690.3 504.436   6
   7 -13  -2 29312.3 646.965   3
  -7  13   2 29112.9 502.026   6
  -7 -13   2 29415.5 645.375   2
   7  13  -2 29171.2 643.159   6
  -7 -13   2 28337.2 521.223   5
  -7  13   2 29289.5 572.181   1
   6 -13  -2 7283.51 287.688   3
  -6  13   2 7350.87 183.420   6
  -6 -13   2 7474.71 287.806   2
  -6 -13   2 7460.36 219.684   5
   6  13  -2 7609.71 287.469   6
  -6  13   2 7286.28 258.362   1
  -6  13   2 7448.25 185.772   6
  -5  13   2 41586.0 574.006   6
  -5 -13   2 42832.2 784.589   2
   5  13  -2 42745.3 750.004   6
  -5  13   2 41286.3 572.734   6
   5 -13  -2 43414.8 786.726   3
   4  13  -2 14966.7 360.395   6
  -4 -13   2 14236.3 350.665   6
  -4 -13   2 14908.9 390.184   2
   3  13  -2 19069.5 387.147   5
   3  13  -2 17985.7 391.046   6
  -3 -13   2 18907.7 390.481   6
  -3 -13   2 18298.0 431.565   2
   2  13  -2 32664.5 569.162   6
  -2 -13   2 33869.8 625.154   2
   2  13  -2 35115.1 591.519   5
  -2 -13   2 34945.8 576.058   6
  -1  13   2 4000.90 178.069   3
  -1 -13   2 4021.01 192.715   1
   1  13  -2 3912.24 163.750   5
  -1 -13   2 3478.08 165.880   2
  -1  13   2 3858.29 181.293   5
   1 -13  -2 4074.43 182.255   2
  -1 -13   2 3810.79 109.960   4
   1  13  -2 3921.12 146.249   6
  -1  13   2 3939.64 177.641   2
  -1 -13   2 3750.73 142.326   6
   0 -13   2 4769.81 210.881   1
   0 -13  -2 5324.49 118.557   6
   0 -13  -2 5109.75 114.756   6
   0 -13  -2 5321.96 210.186   2
   0  13   2 5468.26 209.466   2
   0  13   2 5216.00 201.212   3
   0 -13   2 5188.72 164.612   6
   0 -13   2 4986.92 192.464   2
   0 -13  -2 5476.65 214.356   5
   0 -13   2 5202.16 140.787   4
   0  13  -2 5269.91 167.321   6
  -1  13  -2 20551.2 381.719   6
   1 -13   2 21042.0 386.644   6
  -1 -13  -2 20922.3 455.404   2
  -1  13  -2 21266.9 433.264   2
   1 -13   2 20784.6 471.592   1
  -1 -13  -2 20375.8 347.426   6
  -1 -13  -2 21420.7 459.316   5
   1 -13   2 20685.3 370.799   4
   1 -13   2 20166.3 415.202   2
  -2 -13  -2 6039.17 178.073   6
   2 -13   2 5966.61 232.207   1
  -2 -13  -2 5961.57 229.720   2
   2 -13   2 5636.24 190.587   2
   2 -13   2 5808.56 180.903   6
  -2  13  -2 6006.11 202.780   2
   2  13   2 5658.04 183.874   6
  -2 -13  -2 6156.01 229.804   5
  -2  13  -2 5881.18 178.433   6
   3 -13   2 15648.8 333.970   6
  -3  13  -2 15639.0 345.444   2
   3 -13   2 14715.2 329.353   2
  -3 -13  -2 15545.7 341.999   6
  -3  13  -2 14946.9 337.706   4
   3  13   2 13786.3 343.584   6
  -3 -13  -2 15143.6 387.068   2
  -3 -13  -2 15425.7 391.341   5
   3 -13   2 15467.8 393.307   1
  -3  13  -2 14922.6 324.109   6
  -4  13  -2 19980.8 402.324   6
  -4  13  -2 19831.0 428.915   4
   4 -13   2 19692.9 407.265   6
   4  13   2 18945.9 445.095   6
  -4 -13  -2 20017.0 433.208   6
  -4  13  -2 19474.3 399.614   2
   4  13   2 19713.6 482.574   1
  -4 -13  -2 18929.7 457.812   2
   4 -13   2 19426.5 455.510   1
  -5  13  -2 17652.6 390.267   6
  -5 -13  -2 17110.3 362.485   4
   5  13   2 17049.6 443.424   6
  -5  13  -2 17522.6 427.524   4
  -5  13  -2 17257.6 367.859   2
  -5 -13  -2 17398.5 441.876   2
  -5  13  -2 18222.8 407.879   6
   5  13   2 17373.4 447.417   1
  -6  13  -2 7627.62 254.471   6
   6  13   2 7821.81 308.310   6
  -6  13  -2 7475.10 222.935   2
  -6 -13  -2 7707.03 243.743   4
  -6 -13  -2 7556.84 284.663   2
  -6  13  -2 7300.57 284.008   4
   6  13   2 7651.07 282.066   1
   7  13   2 13542.7 380.922   1
   7  13   2 13826.4 440.276   6
  -7 -13  -2 13461.2 363.307   4
  -7  13  -2 13688.3 420.485   4
  -7 -13  -2 13501.1 399.712   2
  -7  13  -2 13139.0 311.608   2
  -7  13  -2 14061.1 376.330   6
  -8  13  -2 383.507 96.0985   6
   8  13   2 286.743 85.4512   1
   8  13   2 424.790 129.107   6
  -8 -13  -2 370.093 98.2728   4
  -8  13  -2 115.430 105.632   4
  -8 -13  -2 241.858 101.542   2
   9  13   2 17500.9 427.031   1
  -9  13  -2 16203.0 462.598   6
  -9 -13  -2 16253.2 463.258   4
  -9 -13  -2 17630.9 485.693   2
   9  13   2 17519.0 548.781   6
  -9  13  -2 17090.0 533.994   4
 -10  13  -2 549.360 119.295   6
 -10 -13  -2 377.716 109.274   4
 -10  13  -2 442.786 132.822   4
  10  13   2 575.221 149.370   6
 -10 -13  -2 524.347 122.511   2
 -11 -13  -2 217.193 108.693   2
 -11  13  -2 41.1796 110.245   6
 -11 -13  -2 163.152 105.752   4
 -11  13  -2 365.820 140.173   4
 -12  13  -2 2147.04 209.464   6
 -12 -13  -2 2326.39 253.086   6
 -12 -13  -2 2149.59 210.937   4
 -12  13  -2 2263.86 236.830   4
 -13  13  -2 1275.23 187.374   6
 -13 -13  -2 1112.81 187.404   4
  14 -14  -2 4742.40 333.071   3
 -14 -14   2 5117.17 330.207   2
 -14 -14   2 4534.04 312.527   4
  13 -14  -2 709.124 183.199   3
  13  14  -2 994.017 193.021   6
 -13 -14   2 432.385 150.007   2
  12 -14  -2 5716.35 336.212   3
 -12 -14   2 5465.96 320.259   2
  12  14  -2 5926.70 357.150   6
  11 -14  -2 7431.37 357.032   3
  11  14  -2 7270.08 376.544   6
 -11  14   2 7145.67 284.344   6
 -11 -14   2 7731.60 360.512   2
  10  14  -2 346.175 130.429   6
 -10 -14   2 433.420 132.809   2
  10 -14  -2 744.819 154.823   3
 -10  14   2 395.281 89.5810   6
 -10 -14   2 270.134 84.0777   5
  -9 -14   2 14786.8 366.891   5
  -9  14   2 15390.6 375.210   6
  -9 -14   2 15924.5 486.098   2
  -9  14   2 15155.0 360.846   1
   9  14  -2 14498.3 477.546   6
   9 -14  -2 16401.7 495.202   3
   8 -14  -2 20091.4 539.997   3
  -8  14   2 20158.9 447.968   1
  -8  14   2 20258.6 413.528   6
  -8 -14   2 20518.3 548.099   2
  -8 -14   2 20309.4 430.216   5
   8  14  -2 20350.5 544.251   6
  -8  14   2 19900.2 419.309   6
  -7  14   2 3098.20 172.177   1
   7 -14  -2 3411.90 214.783   3
  -7  14   2 3204.20 129.587   6
  -7 -14   2 3161.63 152.315   5
   7  14  -2 3233.44 200.350   6
  -7 -14   2 3072.96 202.860   2
  -7  14   2 3076.45 130.979   6
  -6 -14   2 27731.6 613.821   2
   6 -14  -2 28522.6 621.239   3
  -6 -14   2 26668.5 498.751   5
   6  14  -2 27879.3 598.524   6
  -6  14   2 26736.0 427.408   6
  -6  14   2 26613.2 425.923   6
  -6  14   2 26839.0 563.833   1
  -5  14   2 25991.5 377.823   6
  -5  14   2 26281.9 377.982   6
  -5 -14   2 27555.3 592.408   2
   5  14  -2 28368.8 563.955   6
  -5  14   2 27360.1 572.325   1
   4  14  -2 11842.2 324.815   6
  -4 -14   2 11991.9 354.479   2
   3  14  -2 118438. 1577.51   5
  -3 -14   2 112625. 1640.23   2
   3  14  -2 113229. 1574.41   6
  -3 -14   2 115230. 1571.50   6
   2  14  -2 5178.61 193.937   5
  -2 -14   2 4690.52 204.301   2
   2  14  -2 4782.30 173.474   6
  -2 -14   2 5115.24 176.870   6
   1 -14  -2 18717.8 427.481   2
   1  14  -2 18085.2 365.574   6
   1  14  -2 18595.9 405.337   5
  -1 -14   2 18412.9 418.697   2
  -1 -14   2 18224.7 300.664   4
  -1 -14   2 17910.0 360.686   6
   0 -14   2 93518.3 1266.70   6
   0  14   2 96359.3 1362.23   3
   0 -14  -2 91828.8 1165.09   6
   0 -14  -2 94978.0 1372.74   2
   0 -14  -2 94377.8 1371.27   5
   0 -14  -2 92208.1 1169.76   6
   0  14  -2 94828.1 1271.00   6
   0 -14   2 94404.2 1214.50   4
   0 -14   2 94882.4 1343.69   2
  -1 -14  -2 5457.02 223.133   2
  -1  14  -2 5622.83 207.965   2
  -1 -14  -2 5030.37 213.139   5
  -1 -14  -2 5251.48 144.009   6
   1 -14   2 5123.17 165.987   6
  -1  14  -2 5072.45 166.037   6
   1 -14   2 5244.68 196.684   2
   2  14   2 37103.7 629.609   6
  -2 -14  -2 40776.4 727.454   2
   2 -14   2 39158.5 662.215   2
   2 -14   2 40405.4 633.916   6
  -2  14  -2 39856.2 682.732   2
  -2  14  -2 39628.5 628.317   6
  -2 -14  -2 38997.5 715.452   5
  -2 -14  -2 40107.3 620.667   6
  -3  14  -2 37961.4 653.343   2
   3 -14   2 38631.8 626.998   6
   3 -14   2 37929.7 637.519   2
  -3  14  -2 38054.6 631.602   4
  -3 -14  -2 37758.1 633.847   6
   3  14   2 33165.0 636.081   6
  -3 -14  -2 37757.3 704.010   5
  -3  14  -2 39125.4 621.246   6
  -3 -14  -2 38313.4 711.575   2
  -4  14  -2 182.769 62.2160   6
  -4 -14  -2 109.721 82.7910   2
   4 -14   2 68.8189 50.4179   6
   4  14   2 128.640 73.6320   6
  -4 -14  -2 112.380 60.8176   6
  -4  14  -2 142.223 56.8687   2
  -4 -14  -2 52.0093 84.1888   5
   4  14   2 235.275 93.7928   1
  -4  14  -2 108.416 64.7462   4
  -5  14  -2 100076. 1436.09   6
  -5  14  -2 101960. 1418.38   6
  -5 -14  -2 100361. 1374.26   4
  -5 -14  -2 101970. 1519.76   2
   5  14   2 100110. 1511.27   6
  -5  14  -2 100239. 1406.50   2
  -5  14  -2 101426. 1477.83   4
   5  14   2 99630.2 1526.80   1
   6  14   2 15297.7 425.696   1
  -6  14  -2 15254.8 354.422   2
  -6  14  -2 16321.3 388.544   6
  -6 -14  -2 15629.7 363.931   4
  -6  14  -2 15922.4 430.056   4
   6  14   2 15996.9 451.736   6
  -6 -14  -2 15576.6 433.989   2
   7  14   2 15874.2 473.634   6
  -7  14  -2 15967.2 406.986   6
   7  14   2 16083.5 429.496   1
  -7 -14  -2 16001.4 448.010   2
  -7  14  -2 15231.3 449.492   4
  -7  14  -2 14804.0 349.449   2
  -7 -14  -2 15762.0 394.200   4
   8  14   2 38644.1 843.635   6
   8  14   2 38136.2 734.291   1
  -8  14  -2 38837.0 745.831   6
  -8 -14  -2 37655.8 732.554   4
  -8  14  -2 37568.8 813.439   4
  -8 -14  -2 37992.3 781.789   2
   9  14   2 2318.06 156.465   1
  -9 -14  -2 2190.55 166.317   4
   9  14   2 2433.56 222.447   6
  -9 -14  -2 2386.12 184.837   2
  -9  14  -2 2247.82 173.969   6
  -9  14  -2 1966.26 195.138   4
 -10 -14  -2 6865.51 305.465   4
 -10  14  -2 7206.10 315.327   6
 -10  14  -2 6818.21 348.703   4
 -10 -14  -2 6788.69 310.103   2
  10  14   2 6972.01 362.130   6
 -11  14  -2 10624.2 405.740   6
 -11  14  -2 11052.2 465.406   4
 -11 -14  -2 11462.3 408.919   2
 -11 -14  -2 10716.2 407.802   4
 -12  14  -2 4220.12 307.831   4
 -12  14  -2 4354.48 279.291   6
 -12 -14  -2 3968.11 266.400   4
 -12 -14  -2 4565.31 327.749   6
 -13  14  -2 7475.30 377.814   6
 -14 -15   2 117.887 156.132   2
 -13  15   2 1701.09 220.026   4
  13 -15  -2 1992.31 241.031   3
 -13 -15   2 1792.82 219.380   2
 -13 -15   2 1803.36 205.337   4
  12 -15  -2 18.3174 134.837   3
 -12 -15   2 244.753 147.802   2
  12  15  -2-28.0940 130.059   6
  11 -15  -2 1275.44 184.560   3
 -11 -15   2 942.822 163.445   2
  11  15  -2 689.279 155.903   6
  10 -15  -2 7677.42 359.267   3
 -10  15   2 7649.24 269.838   6
 -10 -15   2 7872.28 356.706   2
 -10 -15   2 7871.16 268.409   5
  10  15  -2 7548.83 367.038   6
   9 -15  -2 6207.75 311.105   3
  -9  15   2 6186.69 220.672   6
  -9  15   2 5693.88 218.172   1
  -9 -15   2 5909.40 298.732   2
   9  15  -2 6098.99 306.186   6
  -9 -15   2 5383.53 216.760   5
  -8 -15   2 1268.73 110.130   5
  -8  15   2 1057.93 107.675   1
  -8  15   2 1217.43 98.4263   6
   8 -15  -2 1484.81 172.119   3
   8  15  -2 974.870 141.075   6
  -8 -15   2 1143.45 147.411   2
  -7  15   2 715.419 99.9726   1
  -7  15   2 812.176 71.8882   6
   7 -15  -2 700.740 135.498   3
  -7 -15   2 708.898 93.7724   5
   7  15  -2 661.871 121.722   6
  -7  15   2 706.126 70.9145   6
  -7 -15   2 868.784 136.282   2
   6  15  -2 1196.45 132.839   6
  -6  15   2 1166.11 65.0438   6
  -6  15   2 1290.37 127.843   1
  -6  15   2 1246.32 67.8787   6
  -6 -15   2 1040.52 142.297   2
  -5  15   2 9292.77 156.022   6
  -5 -15   2 11130.0 354.411   2
  -5  15   2 9293.06 156.036   6
  -5  15   2 10692.8 334.036   1
   5  15  -2 10883.8 324.705   6
   4  15  -2 21282.7 466.256   6
  -4 -15   2 22556.9 520.525   2
  -4  15   2 21765.0 517.625   1
   3  15  -2 1818.74 125.236   5
  -3 -15   2 1556.07 142.824   2
   3  15  -2 1868.85 124.532   6
  -3 -15   2 1866.86 123.125   6
   2  15  -2 27384.7 501.314   6
   2  15  -2 28434.0 534.122   5
   2  15  -2 24216.0 573.967   1
  -2 -15   2 27674.1 566.541   2
  -2 -15   2 27332.3 496.811   6
   1 -15  -2 7741.83 271.799   2
   1  15  -2 8403.62 299.079   1
   1  15  -2 8419.06 262.865   5
   1  15  -2 8354.39 230.140   6
  -1 -15   2 7846.52 266.906   2
  -1 -15   2 8239.83 171.491   4
  -1 -15   2 8288.97 226.136   6
   0 -15  -2 2936.04 168.775   2
   0 -15   2 2789.48 100.553   4
   0 -15  -2 2782.67 82.5241   6
   0 -15  -2 2679.35 164.580   5
   0 -15  -2 2597.32 78.5530   6
   0 -15   2 2838.97 126.228   6
   0  15  -2 2674.68 122.541   6
   0 -15   2 2761.82 154.980   2
   1 -15   2 17272.1 344.551   6
  -1 -15  -2 16394.9 417.986   2
  -1  15  -2 17146.5 403.636   2
  -1 -15  -2 16519.6 300.007   6
  -1 -15  -2 17109.1 423.265   5
  -1  15  -2 16786.0 340.807   6
   1 -15   2 16650.6 387.472   2
  -2 -15  -2 9957.36 243.261   6
  -2 -15  -2 10258.6 321.811   2
   2 -15   2 9693.14 280.393   2
   2 -15   2 10824.5 261.058   6
  -2  15  -2 10485.8 297.713   2
  -2 -15  -2 10733.9 326.232   5
   2  15   2 9919.36 255.711   6
  -2  15  -2 10418.7 252.254   6
  -3 -15  -2 3715.14 155.518   6
  -3 -15  -2 3455.27 193.533   2
  -3 -15  -2 3670.72 195.185   5
   3 -15   2 3688.13 153.025   6
   3  15   2 3176.28 158.011   6
  -3  15  -2 3462.58 164.976   2
   3 -15   2 3470.58 162.758   2
   3  15   2 3729.32 212.840   1
  -3  15  -2 3345.08 142.201   6
  -4  15  -2 8855.91 267.928   4
  -4 -15  -2 8625.66 307.745   2
   4 -15   2 8380.08 249.026   6
  -4  15  -2 9382.46 271.407   2
  -4 -15  -2 9571.29 317.116   5
   4  15   2 8384.84 282.223   6
   4  15   2 8594.50 320.424   1
  -4  15  -2 8880.27 248.031   6
  -5  15  -2 59.8089 58.1985   6
  -5 -15  -2-22.8104 89.7096   2
   5  15   2 256.939 106.221   1
  -5 -15  -2 82.5905 98.4140   5
   5  15   2 39.1492 80.1582   6
  -5  15  -2 33.1081 57.1666   2
  -5  15  -2 86.3506 73.6692   4
  -5  15  -2 56.8595 63.3549   6
  -6  15  -2 10962.8 309.833   6
   6  15   2 11253.9 367.254   1
   6  15   2 10509.7 365.639   6
  -6 -15  -2 10911.2 288.646   4
  -6  15  -2 11171.9 353.209   4
  -6  15  -2 10421.6 291.279   2
  -6 -15  -2 10935.6 363.888   2
   7  15   2 9137.83 325.551   1
   7  15   2 10049.0 373.691   6
  -7  15  -2 9148.63 297.436   6
  -7  15  -2 9273.55 343.942   4
  -7 -15  -2 9065.46 340.576   2
  -7 -15  -2 8825.38 281.843   4
  -8 -15  -2 25.4724 91.4668   2
   8  15   2 158.407 118.768   6
   8  15   2 14.5699 73.8442   1
  -8  15  -2 214.917 91.5682   6
  -8 -15  -2 188.981 81.9169   4
  -8  15  -2 24.2051 92.8141   4
  -9  15  -2 4058.92 220.726   6
  -9 -15  -2 3467.37 228.583   2
  -9 -15  -2 3619.67 208.371   4
   9  15   2 3937.28 266.594   6
  -9  15  -2 3664.97 247.483   4
   9  15   2 4071.51 211.031   1
 -10  15  -2 1516.68 157.943   6
 -10 -15  -2 1182.75 154.109   2
  10  15   2 1453.10 191.575   6
 -10 -15  -2 1086.79 137.152   4
 -10  15  -2 1603.20 192.171   4
 -11 -15  -2 806.360 144.732   2
 -11  15  -2 1051.20 157.511   6
 -11 -15  -2 1170.93 159.195   4
 -11  15  -2 1061.88 182.838   4
 -12  15  -2 2216.04 217.580   6
 -12 -15  -2 1880.61 198.577   4
 -12  15  -2 1902.68 221.536   4
 -13 -16   2 1213.05 199.078   2
 -13  16   2 1399.92 208.254   4
  12  16  -2 690.375 172.310   6
 -12 -16   2 800.482 168.518   2
 -11 -16   2 561.629 142.536   2
  11  16  -2 504.964 156.281   6
  10 -16  -2 1693.24 194.313   3
  10  16  -2 1557.47 193.793   6
 -10 -16   2 1562.70 133.291   5
 -10 -16   2 1721.66 190.187   2
   9  16  -2 369.736 128.004   6
  -9  16   2 327.773 79.7089   6
  -9 -16   2 273.312 86.1402   5
  -9  16   2 354.041 85.3202   1
  -9 -16   2 459.297 131.541   2
  -8  16   2 2566.95 126.264   6
  -8  16   2 2459.43 160.141   1
  -8 -16   2 2399.21 147.970   5
  -8 -16   2 2421.51 197.361   2
   8  16  -2 2282.49 200.115   6
  -7 -16   2 182.937 102.980   2
  -7  16   2 271.491 57.0990   6
  -7  16   2 166.933 49.2882   6
   7  16  -2 205.157 111.548   6
  -7 -16   2 246.018 81.4160   5
  -7  16   2 223.924 85.9360   1
  -6  16   2 4563.36 220.966   1
  -6  16   2 4021.71 110.034   6
  -6 -16   2 4125.13 234.670   2
   6  16  -2 4280.57 221.658   6
  -6  16   2 4166.94 111.012   6
  -5 -16   2 4283.10 231.794   2
   5  16  -2 4316.02 213.741   6
  -5  16   2 4164.79 219.386   1
  -4  16   2 1241.49 135.453   1
   4  16  -2 944.138 103.231   6
  -4 -16   2 969.241 128.232   2
   3  16  -2 12109.9 325.504   5
  -3  16   2 11671.0 372.378   1
   3  16  -2 11957.3 315.492   6
  -3 -16   2 11713.7 359.323   2
  -3 -16   2 12175.7 310.496   6
   2  16  -2 8197.44 310.034   1
  -2 -16   2 8733.51 173.147   4
  -2 -16   2 8886.57 299.237   2
   2  16  -2 8849.63 252.508   6
  -2 -16   2 8903.66 247.215   6
  -2  16   2 8461.13 315.494   1
   1  16  -2 1116.63 131.660   1
   1  16  -2 1251.43 94.1102   6
  -1 -16   2 1295.18 61.6586   4
   1 -16  -2 1213.52 127.681   2
  -1 -16   2 1188.66 123.007   2
  -1 -16   2 1363.01 94.3539   6
   0 -16   2 13458.2 299.245   6
   0  16  -2 13800.7 396.451   1
   0 -16  -2 13062.0 221.943   6
   0 -16  -2 13697.6 380.481   2
   0 -16  -2 12821.1 217.261   6
   0 -16   2 13467.1 358.291   2
   0  16  -2 14240.2 307.043   6
  -1 -16  -2 297.421 96.3471   5
   1 -16   2 322.707 58.4517   6
   1 -16   2 300.578 79.8829   2
  -1 -16  -2 480.257 100.165   2
  -1 -16  -2 307.412 43.4837   6
   1  16   2 429.796 105.351   1
  -1  16  -2 343.151 61.8502   6
  -2 -16  -2 710.580 68.4088   6
   2 -16   2 674.104 71.8717   6
  -2 -16  -2 845.997 119.977   2
   2 -16   2 609.895 91.4879   2
  -2  16  -2 645.331 72.9193   6
  -2 -16  -2 782.550 119.594   5
   2  16   2 732.665 76.7722   6
   2  16   2 797.428 119.497   1
  -3 -16  -2 3237.23 193.376   2
   3 -16   2 3130.35 140.850   6
   3  16   2 2678.10 148.968   6
  -3  16  -2 3111.03 163.147   2
   3 -16   2 3043.52 159.069   2
  -3 -16  -2 3146.14 190.822   5
  -3 -16  -2 2849.33 139.280   6
   3  16   2 3086.88 202.008   1
  -3  16  -2 3049.14 138.290   6
  -4  16  -2 8204.87 240.908   6
   4 -16   2 7879.27 240.558   6
   4  16   2 7736.29 272.716   6
  -4  16  -2 8282.37 266.558   2
  -4 -16  -2 7911.96 299.383   5
  -4  16  -2 8164.16 257.685   4
   4  16   2 8213.04 320.586   1
  -4 -16  -2 7716.19 298.539   2
  -5  16  -2 16121.7 373.463   6
   5  16   2 16634.2 469.768   1
   5  16   2 16224.7 438.827   6
  -5 -16  -2 16641.6 454.032   5
  -5  16  -2 16558.6 414.159   4
  -5  16  -2 16105.5 389.506   2
  -5 -16  -2 16890.6 463.794   2
  -5  16  -2 15787.8 386.443   6
  -6 -16  -2 119.996 61.8547   4
  -6  16  -2 113.127 72.2762   6
   6  16   2 121.651 89.2703   1
  -6 -16  -2 0.76341 87.0512   2
  -6  16  -2 16.2569 79.3046   4
  -6 -16  -2 51.8914 98.4872   5
  -6  16  -2 228.665 75.0228   2
   7  16   2 2846.04 192.578   1
  -7 -16  -2 2801.78 155.519   4
  -7  16  -2 2694.82 193.882   4
  -7  16  -2 2744.10 165.851   6
   7  16   2 2632.08 203.575   6
  -7 -16  -2 2263.18 187.786   2
  -8 -16  -2 786.494 133.978   2
   8  16   2 1107.79 128.394   1
   8  16   2 1296.57 161.610   6
  -8  16  -2 1184.69 127.585   6
  -8  16  -2 1097.00 146.021   4
  -8 -16  -2 1075.65 113.651   4
   9  16   2 413.423 138.069   6
  -9 -16  -2 108.705 109.742   2
   9  16   2 279.777 92.5226   1
  -9  16  -2 338.194 103.294   6
  -9 -16  -2 153.205 80.9418   4
  -9  16  -2 264.351 115.925   4
 -10 -16  -2 1870.99 189.210   2
 -10 -16  -2 2025.52 174.912   4
 -10  16  -2 2071.87 180.287   6
  10  16   2 1884.47 212.398   6
 -10  16  -2 1784.78 209.466   4
 -11  16  -2 1603.22 170.800   6
 -11 -16  -2 1411.70 177.434   2
 -11 -16  -2 1441.70 162.811   4
 -11  16  -2 1558.00 204.189   4
 -13 -17   2 9163.02 442.539   2
 -13  17   2 8390.97 436.154   4
 -12 -17   2 2868.43 259.065   2
  12  17  -2 2848.57 266.665   6
 -12  17   2 2636.87 252.704   4
 -11 -17   2 245.240 134.980   2
  11  17  -2 348.302 154.790   6
  10  17  -2 11998.9 471.982   6
 -10 -17   2 12947.3 474.313   2
  -9 -17   2 11086.8 328.849   5
   9  17  -2 11212.4 429.283   6
  -9  17   2 11540.4 339.896   1
  -9 -17   2 12083.5 440.179   2
  -8  17   2 12866.2 285.430   6
  -8  17   2 13139.8 376.524   1
  -8 -17   2 13491.0 453.263   2
   8  17  -2 12842.9 442.470   6
  -8 -17   2 13321.5 357.134   5
  -7  17   2 39704.6 592.441   6
  -7  17   2 41238.3 783.222   1
  -7 -17   2 42873.8 865.288   2
   7  17  -2 42278.6 839.641   6
  -6  17   2 3250.98 195.154   1
  -6  17   2 2754.61 78.1854   6
  -6 -17   2 3410.36 218.621   2
   6  17  -2 3296.31 207.665   6
   5  17  -2 77336.3 1213.45   6
  -5 -17   2 75461.7 1263.58   2
  -5  17   2 75460.8 1247.20   1
   4  17  -2 6586.16 242.064   6
  -4 -17   2 6290.76 275.820   2
  -4  17   2 6742.68 282.977   1
   3  17  -2 2495.05 145.242   6
  -3  17   2 2432.89 178.449   1
  -3 -17   2 2540.74 174.885   2
   2  17  -2 48897.0 933.681   1
  -2  17   2 52676.4 958.909   1
  -2 -17   2 48797.5 671.260   4
   2  17  -2 52806.3 817.722   6
  -2 -17   2 53607.4 916.172   2
  -2 -17   2 54283.5 815.685   6
   1  17  -2 14032.1 323.599   6
   1 -17  -2 14245.6 396.819   2
   1  17  -2 13290.7 410.512   1
  -1 -17   2 14169.7 388.920   2
  -1 -17   2 13486.1 237.801   4
  -1  17   2 13738.7 426.724   1
  -1 -17   2 14294.3 321.166   6
   0 -17   2 14297.7 311.855   6
   0 -17  -2 13226.1 225.032   6
   0  17  -2 14135.0 415.039   1
   0 -17  -2 14831.8 402.752   2
   0  17  -2 14695.9 318.027   6
   0 -17  -2 13147.6 220.478   6
   0 -17   2 14369.1 380.480   2
   0  17   2 13466.2 421.804   1
   1 -17   2 31632.9 626.752   2
   1 -17   2 32862.4 555.885   6
  -1 -17  -2 33094.4 503.500   6
  -1 -17  -2 32575.3 670.163   2
  -1  17  -2 33875.9 558.127   6
   1  17   2 31262.5 705.621   1
  -1 -17  -2 32487.4 664.396   5
   2 -17   2 5827.37 190.588   6
  -2 -17  -2 5803.23 257.305   2
   2 -17   2 5780.00 226.907   2
   2  17   2 5835.33 194.279   6
  -2 -17  -2 5759.07 252.293   5
  -2 -17  -2 6028.02 181.708   6
  -2  17  -2 6008.26 190.390   6
   2  17   2 6603.99 293.339   1
   3 -17   2 319.263 82.0508   2
  -3 -17  -2 387.585 101.884   2
   3 -17   2 239.453 61.4221   6
  -3 -17  -2 294.721 63.6008   6
   3  17   2 409.893 108.331   1
  -3 -17  -2 505.135 113.115   5
  -3  17  -2 345.115 67.0975   6
   3  17   2 496.431 84.4519   6
   4  17   2 49520.8 945.865   1
  -4  17  -2 48567.4 807.595   4
   4 -17   2 48430.9 784.071   6
   4  17   2 47183.0 842.075   6
  -4 -17  -2 49037.9 900.350   5
  -4  17  -2 49919.7 781.279   6
  -4 -17  -2 48569.2 908.725   2
  -5 -17  -2 130.565 101.817   2
   5  17   2 91.3371 90.4303   6
  -5  17  -2 202.789 81.8019   4
  -5 -17  -2 203.147 112.038   5
  -5  17  -2 120.193 77.2893   6
   5  17   2 368.557 111.830   1
  -5  17  -2 103.191 64.4880   6
  -6  17  -2 23571.0 492.764   6
   6  17   2 23961.8 589.906   1
   6  17   2 24126.6 585.851   6
  -6  17  -2 23822.1 551.342   4
  -6 -17  -2 23153.7 586.741   2
  -6 -17  -2 22818.9 576.347   5
  -7 -17  -2 22509.3 475.366   4
   7  17   2 23347.2 600.565   6
   7  17   2 22182.4 563.724   1
  -7  17  -2 22304.7 562.785   4
  -7  17  -2 22500.3 499.918   6
  -7 -17  -2 23796.3 598.012   2
  -7 -17  -2 22083.7 578.254   5
  -8 -17  -2-48.2777 102.942   2
  -8  17  -2-82.8117 83.6789   6
  -8 -17  -2 145.920 116.313   5
   8  17   2 72.6225 85.2506   1
   8  17   2 16.1446 113.462   6
  -8 -17  -2 97.5679 67.9101   4
  -8  17  -2 178.255 105.503   4
  -9  17  -2 13137.6 398.601   6
  -9  17  -2 11941.2 443.959   4
  -9 -17  -2 12683.6 383.575   4
   9  17   2 12953.4 480.173   6
   9  17   2 12730.3 404.399   1
  -9 -17  -2 12857.1 447.811   2
 -10  17  -2 8676.30 336.530   6
 -10  17  -2 8196.01 385.298   4
 -10 -17  -2 7912.81 361.016   2
 -11 -17  -2 1151.73 175.814   2
 -11  17  -2 847.307 174.174   4
  12  18  -2 5046.84 344.564   6
 -12 -18   2 5546.56 339.255   2
 -12  18   2 5282.38 331.982   4
  11  18  -2 4863.85 327.378   6
 -11 -18   2 5345.31 326.372   2
 -11  18   2 5191.59 313.834   4
  10  18  -2 118.102 114.990   6
 -10 -18   2 26.7904 115.915   2
  -9 -18   2 17441.2 551.037   2
   9  18  -2 17521.7 549.400   6
  -9  18   2 17531.4 447.636   1
  -9 -18   2 17177.0 432.246   5
  -8  18   2 15552.8 427.918   1
   8  18  -2 15730.4 495.004   6
  -8 -18   2 15433.9 497.591   2
  -7  18   2 468.469 47.7111   6
  -7  18   2 565.626 107.104   1
  -7 -18   2 485.556 131.616   2
   7  18  -2 597.879 125.441   6
  -6  18   2 23441.4 567.984   1
  -6 -18   2 23478.7 601.218   2
   6  18  -2 23928.8 568.839   6
  -5  18   2 7555.05 310.231   1
  -5 -18   2 7485.72 316.915   2
   5  18  -2 7992.04 291.679   6
   4  18  -2 1089.24 114.126   6
  -4 -18   2 992.852 134.111   2
  -4  18   2 1022.87 132.211   1
   3  18  -2 24022.4 499.163   6
  -3 -18   2 24554.1 575.093   2
  -3  18   2 24009.9 591.089   1
   2  18  -2 7118.13 303.790   1
  -2 -18   2 7225.18 228.350   6
  -2 -18   2 7275.18 284.157   2
   2  18  -2 7213.11 231.110   6
  -2 -18   2 6078.48 128.072   4
  -2  18   2 7327.16 307.586   1
   1  18  -2 14451.2 442.828   1
   1  18  -2 15863.4 350.907   6
  -1 -18   2 15337.4 418.214   2
   1 -18  -2 15697.3 430.212   2
  -1  18   2 14274.4 447.359   1
  -1 -18   2 14957.2 339.895   6
   0 -18   2 25959.1 469.157   6
   0 -18  -2 24432.5 359.092   6
   0 -18  -2 26496.2 583.082   2
   0  18  -2 27173.2 616.403   1
   0  18  -2 27282.7 480.386   6
   0  18   2 26036.4 624.733   1
   0 -18   2 26272.2 560.480   2
   0 -18  -2 23623.1 355.520   6
   1 -18   2 672.154 77.3221   6
   1 -18   2 761.696 109.321   2
  -1 -18  -2 440.667 105.800   5
  -1 -18  -2 650.131 118.931   2
  -1 -18  -2 578.338 53.9085   6
   1  18   2 508.647 113.686   1
  -1  18  -2 455.168 69.5402   6
  -2  18  -2 23278.9 438.308   6
  -2 -18  -2 22556.4 420.053   6
  -2 -18  -2 22802.4 553.702   2
   2 -18   2 22584.1 437.783   6
   2 -18   2 23168.3 507.664   2
  -2 -18  -2 23818.6 551.635   5
   2  18   2 22835.7 440.329   6
   2  18   2 22891.7 592.946   1
   3 -18   2 27103.7 509.435   6
  -3  18  -2 29100.9 512.249   6
   3  18   2 27070.5 541.764   6
  -3 -18  -2 28666.0 628.857   5
   3 -18   2 28733.0 577.912   2
  -3 -18  -2 27818.3 520.814   6
  -3 -18  -2 28558.6 639.394   2
   3  18   2 27578.8 665.983   1
   4  18   2 2582.09 201.961   1
   4 -18   2 2399.27 135.786   6
   4  18   2 2387.46 158.419   6
  -4 -18  -2 2635.59 193.293   5
  -4 -18  -2 2448.09 187.579   2
  -4  18  -2 2515.43 134.521   6
   5  18   2 60400.7 1099.19   1
  -5  18  -2 59437.1 980.058   4
  -5 -18  -2 59088.9 1061.42   5
   5  18   2 60500.3 1037.12   6
  -5  18  -2 59460.2 930.539   6
  -5 -18  -2 59301.9 1079.53   2
  -6  18  -2 6453.43 233.802   6
   6  18   2 5896.39 285.984   1
   6  18   2 6296.61 285.808   6
  -6  18  -2 6808.92 272.978   4
  -6 -18  -2 5751.78 283.935   5
  -6 -18  -2 6345.30 298.253   2
  -7  18  -2 4408.69 201.146   6
   7  18   2 4255.93 241.631   1
   7  18   2 4553.30 264.707   6
  -7  18  -2 4435.77 237.910   4
  -7 -18  -2 4626.31 264.391   2
  -7 -18  -2 4230.09 252.375   5
  -8  18  -2 15939.0 420.964   6
  -8 -18  -2 15641.8 493.787   5
   8  18   2 15373.1 464.224   1
  -8 -18  -2 15131.9 393.533   4
  -8  18  -2 15237.1 478.808   4
  -8 -18  -2 15995.5 499.299   2
   8  18   2 15947.9 511.797   6
  -9  18  -2 4170.94 223.716   6
  -9  18  -2 3904.32 257.051   4
  -9 -18  -2 3660.44 251.428   5
  -9 -18  -2 3215.56 234.614   2
   9  18   2 3756.52 270.235   6
   9  18   2 3957.56 232.205   1
 -10  18  -2 3415.76 216.813   6
 -10  18  -2 3361.47 258.676   4
 -10 -18  -2 3230.17 251.324   5
 -10 -18  -2 3735.33 259.745   2
 -11 -18  -2 8599.79 397.771   5
 -11  18  -2 8905.81 422.047   4
 -12 -19   2 49.4156 134.751   2
 -12  19   2 142.896 126.036   4
  11  19  -2 576.778 158.661   6
 -11  19   2 601.501 149.428   4
 -11 -19   2 465.832 154.793   2
 -10 -19   2 986.621 173.829   2
  10  19  -2 882.470 167.394   6
  -9  19   2 197.114 93.8219   1
  -9 -19   2 38.5479 119.015   2
   9  19  -2 256.137 135.563   6
  -8 -19   2 375.346 138.561   2
  -8  19   2 187.186 93.0792   1
   8  19  -2 71.5772 120.551   6
  -7  19   2-51.1340 79.9818   1
  -7 -19   2 20.6064 102.702   2
   7  19  -2 101.345 99.6178   6
   6  19  -2 112.026 94.1208   6
  -6 -19   2-12.2881 103.375   2
  -6  19   2 181.914 98.9298   1
  -5 -19   2 1689.67 177.317   2
  -5  19   2 1748.82 163.543   1
   5  19  -2 1738.02 149.775   6
  -4 -19   2 935.497 137.628   2
   4  19  -2 1061.44 118.090   6
  -4  19   2 1035.15 132.021   1
   3  19  -2 3566.47 177.976   6
  -3 -19   2 3655.00 221.459   2
  -3  19   2 3561.89 220.082   1
   2  19  -2 98.8053 61.2533   6
  -2  19   2 128.456 94.5685   1
   2  19  -2 102.648 102.435   1
  -2  19   2 46.9117 24.1018   4
  -2 -19   2-61.6121 95.3635   2
  -2 -19   2 91.5684 62.0866   6
   1  19  -2 74.4742 96.0381   1
  -1 -19   2 43.7186 51.7519   6
   1 -19  -2 92.0630 85.2339   2
  -1  19   2 26.0412 97.4865   1
  -1 -19   2 62.9159 88.2541   2
   1  19  -2-5.14375 53.5173   6
   0 -19   2 2411.86 126.092   6
   0 -19  -2 1883.88 64.4663   6
   0  19  -2 2537.47 192.606   1
   0 -19  -2 2691.08 188.059   2
   0  19  -2 2372.42 125.601   6
   0  19   2 2055.44 186.894   1
   0 -19  -2 2045.88 64.5745   6
   0 -19   2 2422.69 172.047   2
   1 -19   2 140.533 86.5470   2
   1  19   2 10.0960 99.1371   1
  -1 -19  -2-23.4600 97.7660   2
   1 -19   2 53.6603 47.9533   6
  -1  19  -2-44.4400 55.4969   6
  -1 -19  -2 97.9962 35.0708   6
  -2 -19  -2 3194.21 209.495   2
   2 -19   2 3182.18 145.409   6
   2 -19   2 3239.90 186.308   2
  -2 -19  -2 3083.99 201.630   5
  -2 -19  -2 3113.67 132.495   6
   2  19   2 3298.40 147.224   6
   2  19   2 3282.74 224.337   1
  -2  19  -2 3195.92 143.398   6
  -3 -19  -2-87.0864 64.5022   6
   3 -19   2 24.3410 52.7149   6
  -3 -19  -2 0.79323 93.4728   2
   3 -19   2 45.6261 79.7317   2
   3  19   2 209.501 112.602   1
  -3 -19  -2-129.575 114.521   5
   3  19   2 80.8905 68.3445   6
  -3  19  -2 54.3192 58.6446   6
  -4 -19  -2-26.5271 91.7098   2
   4 -19   2 30.9567 56.2051   6
   4  19   2 107.014 74.4946   6
   4  19   2 43.6325 94.4311   1
  -4 -19  -2 0.13096 106.970   5
  -4  19  -2 168.934 62.0814   6
  -5 -19  -2 376.731 121.422   2
   5  19   2 20.0039 82.4501   6
  -5 -19  -2 95.1310 113.345   5
  -5  19  -2 90.8906 74.5309   4
   5  19   2 167.090 104.370   1
  -5  19  -2 110.789 65.1576   6
  -6  19  -2 121.297 67.2100   6
  -6 -19  -2 169.202 117.230   5
   6  19   2-8.16795 96.6997   1
  -6 -19  -2 146.470 100.295   2
   6  19   2 1.86505 92.1876   6
  -6  19  -2 106.757 81.4645   4
  -7  19  -2 493.371 96.4483   6
  -7 -19  -2 349.831 112.944   2
   7  19   2 465.383 109.681   1
  -7 -19  -2 242.793 122.021   5
  -7  19  -2 417.055 102.372   4
   7  19   2 384.394 116.341   6
  -8  19  -2 336.845 89.6414   6
  -8 -19  -2 396.782 135.824   2
   8  19   2 438.378 130.134   6
  -8 -19  -2 541.049 146.366   5
   8  19   2 539.168 123.378   1
  -8  19  -2 414.612 121.969   4
  -9  19  -2 361.416 104.648   6
  -9 -19  -2 132.963 117.586   2
   9  19   2 264.292 138.459   6
  -9 -19  -2 66.6573 127.644   5
   9  19   2 156.887 96.7047   1
  -9  19  -2 190.112 104.872   4
 -10 -19  -2 50.1500 125.848   2
 -10 -19  -2 329.148 142.114   5
 -10  19  -2 383.318 145.047   4
 -11 -19  -2 825.132 178.872   2
 -11  19  -2 840.872 166.987   4
 -11 -19  -2 926.121 201.208   6
 -11 -19  -2 779.151 163.898   5
 -12  20   2 1352.46 204.065   4
  11  20  -2 6475.79 371.032   6
 -11 -20   2 5777.95 348.208   2
 -11  20   2 6453.01 346.340   4
 -10 -20   2 300.783 149.198   2
  10  20  -2 302.127 166.187   6
 -10  20   2 193.199 128.273   4
  -9  20   2 5999.16 267.295   1
  -9 -20   2 5601.94 322.733   2
   9  20  -2 5812.12 325.669   6
  -9  20   2 5927.44 295.674   4
  -8 -20   2 12704.3 470.480   2
   8  20  -2 12300.3 443.224   6
  -8  20   2 12788.5 402.776   1
  -7  20   2 965.605 134.370   1
   7  20  -2 748.924 137.814   6
  -7 -20   2 1092.52 164.126   2
  -6  20   2 3642.27 225.782   1
   6  20  -2 3462.38 214.894   6
  -6 -20   2 2860.82 218.626   2
  -5 -20   2 6550.57 310.299   2
  -5  20   2 6693.56 304.895   1
   5  20  -2 6718.36 278.238   6
   4  20  -2 880.089 116.653   6
  -4  20   2 747.081 122.493   1
  -4 -20   2 648.895 131.930   2
  -3  20   2 21298.1 573.964   1
  -3  20   2 21421.8 373.393   4
  -3 -20   2 22854.4 573.440   2
   3  20  -2 21247.4 474.637   6
   2  20  -2 7634.84 332.988   1
  -2  20   2 6662.33 133.664   4
  -2 -20   2 8259.10 320.778   2
   2  20  -2 7706.71 247.413   6
  -2  20   2 7786.96 335.453   1
   1  20  -2 13359.6 443.064   1
   1 -20  -2 13989.9 424.003   2
   1  20  -2 13712.9 331.209   6
  -1 -20   2 13312.3 406.684   2
  -1 -20   2 13265.7 324.793   6
  -1  20   2 13066.2 447.838   1
   0 -20   2 14429.6 322.431   6
   0  20  -2 14493.4 450.260   1
   0 -20  -2 14307.7 428.308   2
   0  20  -2 15715.2 334.584   6
   0 -20   2 14111.3 405.882   2
   0  20   2 13542.6 452.461   1
  -1 -20  -2 73.9815 34.4805   6
   1  20   2 39.7823 102.657   1
  -1  20  -2 82.2450 53.3027   6
  -1 -20  -2 4.09409 88.9452   2
   1 -20   2 220.101 92.7656   2
  -1 -20  -2-39.5912 40.3553   6
   1 -20   2 119.763 54.9892   6
   2  20   2 9270.15 377.901   1
  -2 -20  -2 9518.53 239.638   6
   2 -20   2 9455.93 257.971   6
  -2 -20  -2 9577.10 359.627   2
   2 -20   2 9298.70 320.700   2
  -2 -20  -2 9431.95 351.402   5
  -2  20  -2 9785.83 258.107   6
   2  20   2 9525.33 256.242   6
   3 -20   2 28030.9 602.226   2
  -3 -20  -2 27241.8 522.201   6
   3  20   2 28164.1 692.076   1
   3 -20   2 27571.5 516.137   6
  -3 -20  -2 27543.1 646.473   5
   3  20   2 27479.2 547.418   6
  -3 -20  -2 27753.8 662.439   2
  -3  20  -2 28998.6 517.118   6
  -4 -20  -2 655.327 127.232   2
   4  20   2 1127.08 122.559   6
  -4 -20  -2 712.597 136.904   5
   4  20   2 1071.00 147.153   1
  -4  20  -2 969.165 93.3005   6
  -5 -20  -2 12344.4 432.100   2
   5  20   2 12726.8 444.041   1
   5  20   2 12500.3 388.049   6
  -5 -20  -2 12392.0 424.349   5
  -5  20  -2 12386.7 319.756   6
  -6  20  -2 5603.93 251.232   4
   6  20   2 5323.74 287.400   1
   6  20   2 5650.88 276.705   6
  -6 -20  -2 5589.93 287.459   5
  -6  20  -2 5710.12 218.588   6
  -6 -20  -2 5734.26 301.842   2
   7  20   2 3850.75 245.822   6
   7  20   2 3741.37 246.781   1
  -7  20  -2 3925.56 226.094   4
  -7 -20  -2 4417.47 272.762   5
  -7 -20  -2 4194.22 266.647   2
  -7  20  -2 4100.86 197.043   6
  -8  20  -2 11747.5 352.848   6
  -8  20  -2 11577.7 413.367   4
  -8 -20  -2 11533.8 433.756   5
   8  20   2 11292.2 434.921   6
   8  20   2 11453.0 416.492   1
  -8 -20  -2 11552.1 441.669   2
  -9 -20  -2 2180.09 223.812   2
  -9 -20  -2 2210.53 218.528   5
   9  20   2 2593.20 205.402   1
  -9  20  -2 2409.52 210.066   4
   9  20   2 2501.39 234.061   6
 -10 -20  -2 357.458 144.694   5
 -10  20  -2 297.878 129.159   4
 -10 -20  -2 408.551 149.175   2
 -11  20  -2 3418.56 274.783   4
 -11 -20  -2 2673.08 254.210   2
 -11 -20  -2 3061.07 273.590   6
 -11 -20  -2 2813.68 249.122   5
 -12  21   2 964.989 188.486   4
 -11  21   2 291.488 132.938   4
 -11 -21   2 81.5743 145.645   2
  11  21  -2 376.461 147.052   6
 -10 -21   2 12431.3 503.205   2
 -10  21   2 13240.7 469.284   4
  10  21  -2 13072.8 510.060   6
  -9  21   2 1401.59 154.080   1
   9  21  -2 952.896 169.511   6
  -9 -21   2 913.915 177.880   2
  -9  21   2 958.904 149.881   4
  -8 -21   2 10625.9 437.514   2
  -8  21   2 10574.6 374.523   1
   8  21  -2 10654.7 414.790   6
  -8  21   2 10097.1 363.846   4
  -7  21   2 24535.0 612.927   1
  -7 -21   2 24904.3 678.129   2
   7  21  -2 24642.9 634.563   6
  -7  21   2 25744.1 576.915   4
  -6  21   2 4807.86 259.350   1
   6  21  -2 4829.83 253.381   6
  -6 -21   2 4744.80 281.180   2
  -6  21   2 4726.26 212.035   4
  -5  21   2 21618.6 580.085   1
  -5 -21   2 21949.9 598.020   2
   5  21  -2 21812.3 537.529   6
  -5  21   2 21236.1 451.295   4
  -4  21   2 37040.5 816.196   1
  -4 -21   2 38576.4 823.809   2
  -4  21   2 37328.1 612.802   4
   4  21  -2 37975.3 729.330   6
   3  21  -2 5210.55 217.719   6
  -3  21   2 5050.50 274.811   1
  -3  21   2 4669.29 137.222   4
  -3 -21   2 5370.38 276.234   2
  -2  21   2 39931.1 871.847   1
  -2 -21   2 41421.1 839.732   2
   2  21  -2 41575.5 720.377   6
  -1  21   2 6474.93 318.540   1
  -1 -21   2 5960.93 274.345   2
   1  21  -2 6351.08 219.613   6
   1 -21  -2 6047.95 286.506   2
  -1 -21   2 5946.17 208.969   6
   0 -21   2 8219.57 313.055   2
   0 -21   2 8229.80 236.191   6
   0 -21  -2 8657.11 337.348   2
   0  21  -2 8577.81 243.815   6
   0  21   2 8700.70 364.443   1
   1  21   2 21139.7 596.094   1
   1 -21   2 20674.3 417.904   6
   1 -21   2 20560.3 520.307   2
  -1 -21  -2 20489.7 362.257   6
  -1 -21  -2 20826.4 552.997   2
  -1  21  -2 21764.1 425.201   6
  -1 -21  -2 20353.9 350.754   6
   2  21   2 28453.0 713.398   1
  -2 -21  -2 28687.2 498.602   6
   2 -21   2 27808.8 519.870   6
  -2 -21  -2 28541.9 678.529   2
   2 -21   2 29234.1 636.946   2
  -2  21  -2 30267.2 528.853   6
  -3 -21  -2 27710.5 675.566   2
  -3 -21  -2 26490.0 648.186   5
   3  21   2 28291.9 705.538   1
   3 -21   2 26977.7 606.133   2
   3  21   2 26574.9 539.940   6
  -3  21  -2 28233.6 513.102   6
  -4 -21  -2 15813.9 493.517   2
   4  21   2 15644.2 507.607   1
   4  21   2 15427.0 412.665   6
  -4 -21  -2 15498.9 479.163   5
  -4  21  -2 16444.1 365.893   6
  -5 -21  -2 1476.95 168.969   5
   5  21   2 1176.10 159.953   1
  -5 -21  -2 1272.60 163.458   2
   5  21   2 1241.63 140.521   6
  -5  21  -2 1449.55 112.755   6
  -6 -21  -2 13134.0 466.951   2
  -6 -21  -2 13600.0 462.483   5
   6  21   2 12886.7 458.008   1
   6  21   2 13177.3 428.111   6
  -6  21  -2 13107.0 390.232   4
  -6  21  -2 13307.1 347.149   6
  -7 -21  -2 17811.4 540.606   5
   7  21   2 17700.3 528.859   6
   7  21   2 17724.7 541.291   1
  -7 -21  -2 16625.8 539.832   2
  -7  21  -2 17564.6 487.629   4
  -8 -21  -2 1609.25 192.724   2
  -8 -21  -2 1615.75 197.288   5
  -8  21  -2 1299.98 157.124   4
   8  21   2 1295.16 180.304   6
   8  21   2 1586.45 178.038   1
  -9 -21  -2 9787.70 416.563   5
   9  21   2 9645.93 390.360   1
  -9  21  -2 9200.66 391.706   4
  -9 -21  -2 9915.74 427.340   2
 -10 -21  -2 5275.34 315.634   5
 -10  21  -2 5420.95 323.725   4
 -10 -21  -2 5008.28 321.104   2
 -11 -21  -2 111.890 146.041   2
 -11 -21  -2 509.522 168.575   5
 -11  21  -2 372.988 133.329   4
  11  22  -2 2575.34 262.062   6
 -11  22   2 2148.98 220.807   4
  10  22  -2 789.785 172.134   6
 -10 -22   2 735.442 169.486   2
 -10  22   2 812.544 152.386   4
   9  22  -2 1478.35 196.039   6
  -9 -22   2 1667.66 206.322   2
  -9  22   2 1483.51 167.827   4
  -8 -22   2 2415.64 236.231   2
   8  22  -2 2370.90 212.164   6
  -8  22   2 2407.32 194.690   1
  -8  22   2 2537.57 189.896   4
   7  22  -2 397.616 121.483   6
  -7  22   2 431.959 125.906   1
  -7 -22   2 693.426 157.416   2
  -7  22   2 312.931 94.9508   4
  -6 -22   2 3328.92 249.475   2
  -6  22   2 3683.85 239.214   1
   6  22  -2 3231.55 216.150   6
  -6  22   2 3455.66 181.649   4
  -5  22   2 1957.58 182.161   1
   5  22  -2 1796.76 161.902   6
  -5  22   2 1660.22 116.445   4
  -5 -22   2 1934.50 194.078   2
   4  22  -2 97.6914 82.2589   6
  -4 -22   2-168.236 124.768   2
  -4  22   2 18.0264 48.9471   4
  -4  22   2 13.8350 94.4747   1
  -3  22   2 14102.5 472.504   1
   3  22  -2 14600.5 384.377   6
  -3  22   2 13898.8 256.710   4
  -3 -22   2 14653.8 468.573   2
  -2  22   2 200.452 119.429   1
  -2 -22   2 248.517 120.055   2
   2  22  -2 376.782 91.0895   6
  -1 -22   2 785.417 128.296   2
   1  22  -2 950.083 98.1427   6
   1 -22  -2 1097.56 150.449   2
  -1  22   2 1089.88 156.334   1
   0 -22   2 8080.98 325.447   2
   0 -22   2 8482.84 248.163   6
   0  22  -2 8396.85 248.906   6
   0 -22  -2 8057.84 341.396   2
   0  22   2 8133.70 365.363   1
  -1 -22  -2 48.1347 38.5401   6
  -1 -22  -2-8.41020 102.830   2
  -1  22  -2 140.676 58.5291   6
   1 -22   2 265.111 105.251   2
   1  22   2 134.870 109.226   1
   2  22   2 24238.2 660.396   1
  -2 -22  -2 24629.1 635.250   2
   2 -22   2 23901.2 582.738   2
  -2  22  -2 25233.8 472.726   6
   3  22   2 1426.36 123.311   6
  -3 -22  -2 1558.42 176.970   2
  -3 -22  -2 1229.61 164.469   5
   3 -22   2 1399.07 148.929   2
  -3  22  -2 1508.79 105.643   6
   3  22   2 1416.96 178.685   1
  -4 -22  -2 3092.34 232.091   2
   4  22   2 3033.52 231.723   1
   4  22   2 2969.70 178.088   6
  -4  22  -2 2859.22 147.273   6
  -4 -22  -2 2610.02 212.719   5
  -5 -22  -2 6212.61 321.880   2
   5  22   2 6285.01 321.809   1
  -5 -22  -2 6397.26 313.258   5
   5  22   2 6180.96 271.633   6
  -5  22  -2 6703.90 227.389   6
  -6 -22  -2 1990.56 203.027   2
   6  22   2 2225.30 186.069   6
  -6 -22  -2 2279.94 204.919   5
   6  22   2 2201.51 208.460   1
   7  22   2 188.752 112.222   6
  -7 -22  -2 235.315 133.371   2
  -7  22  -2 232.780 101.598   4
  -7 -22  -2 117.999 133.458   5
   7  22   2 125.629 114.300   1
  -8 -22  -2 2670.64 237.590   5
  -8 -22  -2 2537.31 240.460   2
   8  22   2 2664.70 229.619   6
  -8  22  -2 2713.55 209.454   4
   8  22   2 2619.21 219.446   1
  -9 -22  -2 130.316 135.988   5
  -9 -22  -2-13.8056 136.826   2
  -9  22  -2 135.960 123.105   4
   9  22   2 22.8870 112.725   1
 -10  22  -2 3218.22 254.679   4
 -10 -22  -2 3111.59 264.737   5
 -10 -22  -2 3266.38 274.454   2
  10  23  -2 2047.79 227.294   6
 -10 -23   2 2637.05 262.525   2
 -10  23   2 2178.35 207.366   4
   9  23  -2 123.835 137.961   6
  -9 -23   2 111.340 134.377   2
  -9  23   2 110.315 96.5462   4
   8  23  -2 468.541 146.456   6
  -8  23   2 568.725 127.311   1
  -8 -23   2 528.222 153.515   2
  -8  23   2 416.380 104.952   4
  -7  23   2 9495.12 377.981   1
   7  23  -2 9262.85 377.396   6
  -7 -23   2 9512.33 424.053   2
  -7  23   2 9258.87 318.562   4
  -6  23   2 717.529 138.097   1
  -6  23   2 293.482 80.0031   4
   6  23  -2 474.059 121.679   6
  -6 -23   2 365.058 136.958   2
  -5  23   2 1732.73 176.805   1
   5  23  -2 1771.24 164.054   6
  -5  23   2 1486.92 110.950   4
  -5 -23   2 1957.65 203.022   2
  -4  23   2 1620.94 168.660   1
   4  23  -2 1828.51 152.297   6
  -4 -23   2 1637.30 183.408   2
  -3  23   2 669.201 129.607   1
  -3 -23   2 637.331 143.480   2
   3  23  -2 639.484 101.640   6
   2  23  -2 3060.36 167.884   6
  -2  23   2 2810.72 225.273   1
  -2 -23   2 3178.69 225.082   2
  -1  23   2 6050.43 323.785   1
   1 -23  -2 6357.12 304.983   2
   1  23  -2 6391.92 225.619   6
  -1 -23   2 6473.29 303.158   2
   0 -23   2 1761.46 170.540   2
   0  23  -2 1950.23 125.152   6
   0 -23  -2 1799.07 186.837   2
   0  23   2 1966.75 207.211   1
  -1 -23  -2 597.620 54.0856   6
   1 -23   2 614.741 119.664   2
  -1 -23  -2 640.337 133.286   2
  -1  23  -2 793.246 87.2623   6
   1  23   2 1109.47 166.165   1
   2  23   2 2627.69 227.319   1
  -2 -23  -2 2943.20 226.839   2
  -2 -23  -2 2537.38 129.071   6
   2 -23   2 2755.65 203.078   2
  -2  23  -2 2565.76 135.121   6
  -3 -23  -2 4493.56 274.979   2
   3  23   2 5181.41 302.609   1
  -3  23  -2 4807.46 181.873   6
   3 -23   2 4623.63 246.940   2
  -4  23  -2 8384.90 245.645   6
  -4 -23  -2 8419.47 371.790   2
   4  23   2 7369.45 359.435   1
  -4 -23  -2 7386.28 342.918   5
   4  23   2 7680.30 282.960   6
   5  23   2 575.554 140.006   1
  -5 -23  -2 237.762 126.534   2
   5  23   2 406.352 103.876   6
  -5 -23  -2 46.6532 119.542   5
  -6 -23  -2 3163.69 252.130   2
  -6 -23  -2 2819.32 233.459   5
   6  23   2 3184.35 242.137   1
   6  23   2 3183.82 216.271   6
  -7 -23  -2 2020.79 215.911   2
  -7 -23  -2 1746.49 200.064   5
   7  23   2 2076.17 209.818   1
   7  23   2 2220.96 199.716   6
   8  23   2 221.025 119.471   1
  -8 -23  -2 180.279 139.922   5
  -8 -23  -2-98.0020 124.193   2
  -8  23  -2-11.7586 93.9274   4
   9  23   2 2252.27 218.005   1
  -9 -23  -2 2002.34 230.753   2
  -9  23  -2 2117.30 208.680   4
  -9 -23  -2 2617.88 245.083   5
 -10 -23  -2 652.402 175.455   2
 -10 -23  -2 696.397 167.735   6
 -10 -23  -2 654.437 167.003   5
 -10  23  -2 736.202 170.087   4
  10  24  -2 1132.25 209.731   6
   9  24  -2 5877.22 343.918   6
  -9 -24   2 5358.68 347.599   2
   8  24  -2 9613.67 411.975   6
  -8  24   2 10215.3 400.245   1
  -8 -24   2 10215.6 457.829   2
   7  24  -2 233.470 113.689   6
  -7  24   2 56.5749 103.452   1
  -7 -24   2-58.8665 128.230   2
  -6  24   2 15761.3 512.826   1
   6  24  -2 16615.8 498.280   6
  -6 -24   2 17503.1 576.578   2
  -5  24   2 16038.0 519.825   1
  -5 -24   2 16510.3 549.594   2
   5  24  -2 16107.1 466.304   6
  -4  24   2 3135.99 231.297   1
   4  24  -2 3026.45 193.271   6
  -4 -24   2 2832.38 236.607   2
  -3  24   2 20381.9 607.758   1
  -3 -24   2 20607.4 593.085   2
   3  24  -2 21370.7 498.655   6
  -2  24   2 1664.82 183.211   1
  -2 -24   2 1503.28 176.351   2
   2  24  -2 1375.77 123.656   6
  -1 -24   2 4271.79 264.372   2
  -1  24   2 4797.16 296.301   1
   1  24  -2 4516.85 192.845   6
   1 -24  -2 4491.93 270.579   2
   0 -24  -2 15817.2 504.715   2
   0  24   2 15109.8 524.012   1
   0 -24   2 15331.4 480.174   2
   0  24  -2 15376.1 361.880   6
  -1 -24  -2 381.126 132.234   2
  -1  24  -2 258.173 64.3650   6
   1  24   2 221.732 126.639   1
   1 -24   2 206.640 104.452   2
   2  24   2 21466.4 645.596   1
  -2 -24  -2 23312.6 640.498   2
   2 -24   2 22540.7 586.024   2
  -2  24  -2 23391.7 450.692   6
  -3 -24  -2 26875.4 701.318   2
   3  24   2 27377.2 731.719   1
   3 -24   2 26384.3 643.119   2
   4  24   2 986.114 176.218   1
  -4 -24  -2 869.824 164.997   5
  -4 -24  -2 980.301 168.566   2
  -5 -24  -2 16546.3 555.304   2
   5  24   2 16088.8 454.913   6
   5  24   2 16119.9 548.476   1
  -5 -24  -2 15370.4 517.479   5
  -6 -24  -2 6075.64 339.718   2
   6  24   2 6195.23 293.827   6
  -6 -24  -2 5933.48 330.702   5
   6  24   2 6663.47 348.089   1
  -7 -24  -2 3038.97 258.009   2
  -7 -24  -2 2345.76 227.470   5
   7  24   2 2566.86 233.989   1
  -8 -24  -2 12709.6 504.193   2
  -8 -24  -2 12082.5 479.936   5
   8  24   2 12899.0 489.338   1
  -9 -24  -2 3287.71 276.486   2
  -9 -24  -2 3051.49 266.783   5
 -10 -24  -2 2583.64 260.415   6
 -10 -24  -2 3014.12 275.291   5
  10  25  -2 2399.95 247.813   6
   9  25  -2 224.231 150.597   6
   8  25  -2 2758.70 240.472   6
  -8  25   2 2734.27 222.980   1
  -8 -25   2 2647.72 258.269   2
  -7 -25   2 4374.65 315.643   2
  -7  25   2 4035.32 263.274   1
   7  25  -2 4197.10 267.325   6
   6  25  -2 488.748 119.163   6
  -6  25   2 416.727 123.478   1
  -6 -25   2 613.592 162.078   2
  -5  25   2 8585.79 381.233   1
  -5 -25   2 9707.96 427.065   2
   5  25  -2 8863.95 341.361   6
   4  25  -2 14402.5 421.416   6
  -4  25   2 14193.8 501.911   1
  -4 -25   2 14837.8 515.135   2
  -3 -25   2 45.1687 118.490   2
  -3  25   2-58.7479 121.336   1
   3  25  -2 95.6761 86.4885   6
   2  25  -2 19944.4 463.108   6
  -2  25   2 20105.4 614.548   1
  -2 -25   2 20258.9 590.508   2
  -1 -25   2 15709.2 508.436   2
   1  25  -2 16327.8 390.477   6
  -1  25   2 16098.0 546.003   1
   1 -25  -2 16228.8 517.401   2
   0  25   2 1780.63 200.244   1
   0 -25  -2 1794.55 195.173   2
   0 -25   2 1591.15 176.118   2
   0  25  -2 1574.40 116.881   6
   1  25   2 17269.4 578.062   1
   1 -25   2 19139.4 545.896   2
  -1 -25  -2 18817.4 571.947   2
   2  25   2 3212.35 259.693   1
  -2 -25  -2 3496.37 257.068   2
   2 -25   2 3431.30 234.621   2
   3  25   2 4527.14 297.927   1
  -3 -25  -2 4460.78 290.267   2
   3 -25   2 4246.33 254.059   2
  -4 -25  -2 15676.7 539.045   2
   4  25   2 16206.9 556.749   1
  -5 -25  -2 526.883 157.284   5
   5  25   2 708.745 150.626   1
  -5 -25  -2 587.443 158.482   2
  -6 -25  -2 7246.26 380.872   2
  -6 -25  -2 7200.27 366.036   5
   6  25   2 7195.17 372.205   1
  -7 -25  -2 5265.57 328.852   2
   7  25   2 4669.40 309.375   1
  -7 -25  -2 4201.98 296.257   5
   8  25   2 615.056 162.971   1
  -8 -25  -2 339.327 163.632   2
  -8 -25  -2 500.163 167.153   5
  -9 -25  -2 5711.82 355.563   2
  -9 -25  -2 6080.00 348.125   6
  -9 -25  -2 6067.64 356.797   5
  10  26  -2 447.011 168.408   6
   9  26  -2 1683.46 217.751   6
   8  26  -2-93.6115 123.899   6
  -8  26   2 62.1107 116.638   1
  -8 -26   2 55.1851 135.893   2
  -7 -26   2 5.90692 139.482   2
  -7  26   2 72.2207 112.705   1
   7  26  -2 11.4077 107.385   6
  -6 -26   2 662.670 164.986   2
   6  26  -2 618.452 133.087   6
  -6  26   2 583.434 136.075   1
  -5 -26   2-28.8616 128.503   2
   5  26  -2 156.056 104.608   6
  -5  26   2 160.092 111.058   1
   4  26  -2 791.269 127.168   6
  -4 -26   2 932.214 181.854   2
  -4  26   2 523.415 132.818   1
  -3  26   2-109.585 120.391   1
  -3 -26   2 19.1059 123.004   2
   3  26  -2 97.4531 90.0798   6
  -2  26   2 274.153 144.149   1
  -2 -26   2 75.8319 132.412   2
   2  26  -2 182.437 85.7804   6
  -1  26   2 110.838 133.124   1
  -1 -26   2 3.59552 109.381   2
   1  26  -2-60.2744 71.0280   6
   0  26   2 3027.71 256.096   1
   0 -26  -2 2717.14 239.317   2
   0 -26   2 2549.83 218.774   2
  -1 -26  -2 1161.02 182.319   2
   1  26   2 1306.14 196.831   1
   1 -26   2 1580.00 184.450   2
   2  26   2-0.80887 122.331   1
  -2 -26  -2-124.367 135.256   2
   2 -26   2-111.381 116.057   2
   3 -26   2 323.810 118.075   2
   3  26   2 299.246 130.890   1
  -3 -26  -2 400.905 147.680   2
  -4 -26  -2 101.310 123.984   2
   4  26   2 145.855 152.184   1
   5  26   2 75.6649 117.368   1
  -5 -26  -2 98.5846 137.265   2
  -6 -26  -2 46.8243 134.921   2
  -6 -26  -2 127.635 147.137   5
   6  26   2 110.506 126.357   1
   7  26   2 76.1409 131.340   1
  -7 -26  -2-37.9344 150.758   2
  -7 -26  -2-142.810 141.254   5
  -8 -26  -2 213.771 145.050   2
  -8 -26  -2 188.727 143.229   5
   8  26   2 271.645 148.694   1
  -9 -26  -2-127.851 158.214   5
   9  27  -2 1691.99 217.563   6
   8  27  -2 5151.40 321.025   6
  -8  27   2 4584.90 299.697   1
  -7  27   2 10388.4 441.863   1
   7  27  -2 11260.1 433.231   6
  -7 -27   2 10666.9 488.434   2
  -6 -27   2 95.9110 140.265   2
  -6  27   2-144.022 115.529   1
   6  27  -2-20.1521 101.080   6
   5  27  -2 11209.8 395.564   6
  -5  27   2 11565.6 461.182   1
  -5 -27   2 11638.1 482.351   2
  -4  27   2 6201.88 341.778   1
   4  27  -2 6670.76 285.176   6
  -4 -27   2 6626.06 362.205   2
  -3 -27   2 1829.97 220.804   2
  -3  27   2 1472.28 197.510   1
  -2 -27   2 25431.5 702.734   2
  -2  27   2 24297.9 714.895   1
  -1  27   2 892.082 173.608   1
  -1 -27   2 668.687 151.820   2
   0  27   2 807.550 174.661   1
   0 -27   2 497.216 136.212   2
   0 -27  -2 397.678 138.471   2
   1 -27   2 11904.7 449.367   2
   1  27   2 11967.4 489.437   1
  -1 -27  -2 12588.2 484.589   2
   2  27   2 1032.32 190.147   1
  -2 -27  -2 802.932 160.292   2
   2 -27   2 979.488 159.648   2
  -3 -27  -2 3390.28 276.075   2
   3  27   2 3305.26 271.963   1
   4  27   2 18259.6 616.439   1
  -4 -27  -2 18103.6 608.137   2
  -5 -27  -2 1299.98 199.100   2
   5  27   2 1048.98 183.968   1
  -6 -27  -2 3291.17 288.087   2
   6  27   2 3745.37 292.699   1
  -7 -27  -2 3159.93 269.197   5
   7  27   2 2981.06 269.156   1
  -7 -27  -2 3199.05 277.059   2
  -8 -27  -2 354.478 160.779   5
  -8  28   2 8145.04 395.410   1
   8  28  -2 8428.92 399.154   6
  -7  28   2 1717.90 205.371   1
  -6  28   2 13446.7 513.589   1
  -6 -28   2 14281.2 559.185   2
  -5 -28   2 4036.03 302.414   2
  -5  28   2 3748.90 275.832   1
  -4 -28   2 4146.46 303.586   2
  -4  28   2 3637.77 271.743   1
  -3  28   2 14021.2 537.141   1
  -3 -28   2 14022.3 527.168   2
  -2  28   2 1097.72 186.700   1
  -2 -28   2 1283.57 195.522   2
  -1  28   2 2794.61 253.691   1
  -1 -28   2 2671.52 247.964   2
   0  28   2 16121.4 581.943   1
   0 -28   2 16923.1 556.691   2
   0 -28  -2 17588.8 585.371   2
   1  28   2 207.752 153.040   1
   1 -28   2-51.7459 137.981   2
  -1 -28  -2-51.2600 134.758   2
  -2 -28  -2 13880.1 525.902   2
   2  28   2 13236.6 528.772   1
   2 -28   2 12737.6 472.493   2
  -3 -28  -2 7996.76 409.242   2
   3  28   2 8064.90 416.305   1
  -4 -28  -2 252.657 139.738   2
   4  28   2 195.799 142.728   1
  -5 -28  -2 9789.89 456.660   2
   5  28   2 9357.72 451.185   1
  -6 -28  -2 2018.98 238.189   2
   6  28   2 2087.22 237.094   1
   7  28   2 1774.93 218.169   1
  -7  29   2 338.453 131.372   1
  -6  29   2 210.923 121.252   1
  -5 -29   2 1633.95 217.270   2
  -4 -29   2-72.9350 157.137   2
  -4  29   2 278.787 126.076   1
  -3 -29   2-229.693 140.942   2
  -3  29   2 229.169 144.377   1
  -2 -29   2 2388.45 235.805   2
  -2  29   2 2332.96 246.762   1
  -1 -29   2 7351.62 380.560   2
  -1  29   2 7218.36 397.968   1
   0 -29  -2 3083.07 266.048   2
   0 -29   2 2714.81 246.265   2
   0  29   2 2387.25 251.999   1
   1  29   2 2146.94 232.855   1
  -1 -29  -2 1958.78 228.286   2
   1 -29   2 2064.45 224.167   2
   2  29   2 967.279 188.012   1
  -2 -29  -2 1511.36 211.856   2
   2 -29   2 1743.64 207.031   2
  -3 -29  -2 901.830 189.235   2
  -4 -29  -2 2833.25 261.069   2
   4  29   2 3089.18 277.729   1
   5  29   2 51.2163 128.586   1
   6  29   2 2047.27 251.463   1
  -7  30   2 33.5986 122.553   1
  -6  30   2 1402.18 188.206   1
  -5  30   2 2451.46 245.240   1
  -4 -30   2 1426.46 217.433   2
  -4  30   2 1426.23 206.545   1
  -3 -30   2 2650.38 264.964   2
  -3  30   2 2728.61 265.895   1
  -2 -30   2 2543.37 255.069   2
  -2  30   2 1611.87 217.320   1
  -1 -30   2 352.274 157.588   2
  -1  30   2 290.218 152.259   1
   0 -30   2 2917.99 256.186   2
   0  30   2 2977.93 273.167   1
   1  30   2 427.910 165.686   1
  -1 -30  -2 112.405 141.360   2
   1 -30   2 238.113 139.193   2
  -2 -30  -2 4101.05 316.799   2
   2 -30   2 3815.12 284.158   2
   2  30   2 3397.49 294.331   1
  -3 -30  -2 3738.60 305.470   2
   3  30   2 3699.65 304.282   1
   4  30   2 13.2089 139.128   1
  -4  31   2 9858.60 469.325   1
  -3  31   2 1596.41 219.639   1
  -2 -31   2 16434.0 600.415   2
  -2  31   2 15994.1 612.654   1
  -1 -31   2 8765.23 429.498   2
  -1  31   2 9068.15 463.575   1
   0 -31   2 1795.58 223.363   2
   0  31   2 2015.31 259.319   1
   1 -31   2 9244.52 437.322   2
  -1 -31  -2 8563.41 439.231   2
   2 -31   2 3353.64 277.287   2
   0 -32   2 7380.68 405.664   2
   1 -32   2 107.532 133.162   2
  14   0  -3-47.0620 137.117   6
  13   0  -3 156.590 124.141   6
  12   0  -3-137.590 118.537   6
  11   0  -3-79.5075 109.260   6
  10   0  -3-59.7592 98.3642   6
 -10   0   3-58.5690 28.9182   1
   9   0  -3 63.3403 98.9645   6
  -9   0   3 1.91648 31.3260   1
   8   0  -3-12.4098 73.4194   6
   7   0  -3-17.9587 68.3573   6
   6   0  -3 235.275 77.2612   6
  -6   0   3 193.188 68.1075   6
   5   0  -3-8.90249 60.9526   6
  -5   0   3 121.887 55.0567   6
  -4   0   3 36.7879 20.2086   5
   4   0  -3 90.9331 62.7561   6
  -4   0   3 182.576 56.7379   6
   3   0  -3 234.014 70.6162   6
  -3   0   3 124.271 57.0738   6
   2   0  -3 52.3929 54.5152   6
  -2   0   3 38.8901 44.7013   6
  -1   0   3 13.5168 43.7055   6
   1   0  -3 48.6449 54.8518   6
   0   0  -3 3.05272 54.0791   6
   0   0   3 65.4144 50.4721   6
  -1   0  -3 40.6801 59.6092   6
   1   0   3 98.3888 52.8554   6
   2   0   3 12.2458 19.6801   2
  -2   0  -3 15.5620 59.1600   6
   2   0   3-9.67819 52.2078   6
   2   0   3 15.3878 55.0047   4
   3   0   3 75.6661 59.6414   4
  -3   0  -3-1.80889 63.3760   6
   3   0   3 137.236 63.2075   6
  -3   0  -3 33.8023 66.0522   4
  -4   0  -3 149.879 86.0842   6
  -4   0  -3 308.077 81.5730   6
  -4   0  -3 427.435 98.7449   4
   4   0   3 334.909 78.2362   4
  -5   0  -3 147.061 81.8426   6
  -5   0  -3 14.9700 15.9733   2
  -5   0  -3 205.475 93.6497   4
  -6   0  -3 34.8007 19.7028   2
   6   0   3-82.4453 36.3089   3
  -6   0  -3-62.1253 78.8486   6
  -6   0  -3 64.0146 94.3417   4
   7   0   3-97.6027 41.3781   3
  -7   0  -3 132.297 87.2172   6
  -7   0  -3 44.8587 96.1750   4
  -7   0  -3 39.8465 25.3524   2
   8   0   3-3.92071 39.6993   3
  -8   0  -3 136.114 95.0318   6
  -8   0  -3 10.9930 99.7338   4
  -8   0  -3-16.3742 31.4200   2
   9   0   3-47.6091 47.3887   3
  -9   0  -3-30.1666 106.980   6
  -9   0  -3 0.16218 109.396   4
  -9   0  -3 3.93702 30.6832   2
 -10   0  -3 56.6191 113.559   6
 -10   0  -3-31.1736 127.635   4
 -11   0  -3 159.811 140.301   6
 -11   0  -3 262.162 150.900   4
 -12   0  -3 102.688 134.089   6
 -12   0  -3-188.418 149.280   4
  15  -1  -3 2824.84 277.465   6
  14  -1  -3 2764.06 244.480   6
  14   1  -3 2776.43 262.120   6
  13   1  -3 594.744 149.687   6
  13  -1  -3 696.119 158.627   6
  12  -1  -3 7188.65 348.784   6
  12   1  -3 7420.22 352.315   6
  11  -1  -3 6271.13 304.554   6
  11   1  -3 6449.76 316.544   6
  10  -1  -3 42.8869 103.646   6
 -10  -1   3 14.7978 26.4197   1
   9   1  -3 15981.3 449.876   6
   9  -1  -3 16102.9 438.363   6
  -9  -1   3 15224.9 283.510   1
   8  -1  -3 834.073 118.226   6
   8   1  -3 1178.38 129.681   6
   7   1  -3 10531.7 313.740   6
   7  -1  -3 9744.01 294.147   6
  -6  -1   3 53777.8 843.114   6
   6   1  -3 51831.8 841.877   6
  -6   1   3 53621.2 829.417   6
   6  -1  -3 52693.7 834.089   6
   5  -1  -3 4630.47 168.500   6
   5   1  -3 4560.34 174.951   6
  -5   1   3 4823.33 168.588   6
  -5  -1   3 4906.00 175.196   6
   4   1  -3 44462.3 666.119   6
   4  -1  -3 43498.1 652.669   6
  -4   1   3 40579.9 561.188   5
  -4   1   3 44495.3 646.725   6
  -4  -1   3 44689.5 659.149   6
   3  -1  -3 117670. 1541.76   6
   3   1  -3 120435. 1557.44   6
  -3  -1   3 121223. 1556.23   6
  -3   1   3 121930. 1539.96   6
   2   1  -3 5735.17 162.089   6
   2  -1  -3 6130.47 159.282   6
  -2   1   3 5850.89 153.470   6
  -2  -1   3 5850.38 160.432   6
  -1   1   3 32287.2 487.224   6
   1   1  -3 32638.2 501.103   6
   1  -1  -3 32729.8 491.014   6
  -1  -1   3 33247.6 499.967   6
   0   1  -3 52465.2 744.158   6
   0  -1  -3 51894.9 734.556   6
   0  -1   3 53039.8 743.679   6
   0   1   3 52552.0 735.195   6
  -1   1  -3 274.930 68.3034   6
  -1  -1  -3 253.828 64.9482   6
   1  -1   3 373.282 60.1165   6
   1   1   3 379.540 62.9685   6
   1  -1   3 419.447 63.4218   4
  -2   1  -3 42628.8 668.420   6
  -2  -1  -3 43163.6 669.729   6
   2  -1   3 44308.6 678.675   6
   2   1   3 43564.4 674.342   6
   2  -1   3 44764.6 678.992   4
   2   1   3 43855.9 673.055   4
   2   1   3 42703.3 567.552   2
  -3   1  -3 49120.4 772.231   6
  -3  -1  -3 48522.4 772.464   6
   3  -1   3 50467.8 779.813   6
  -3  -1  -3 49794.0 779.564   6
  -3   1  -3 48763.4 778.090   4
   3   1   3 49554.1 773.956   4
   3  -1   3 51024.9 782.555   4
  -3  -1  -3 48976.4 771.817   4
  -4   1  -3 80088.6 1175.73   6
  -4  -1  -3 81090.6 1180.61   6
  -4   1  -3 82657.3 1190.33   6
  -4  -1  -3 77160.4 996.740   2
  -4  -1  -3 83277.2 1188.94   6
  -4  -1  -3 81956.5 1186.26   4
  -4   1  -3 79727.7 1188.11   4
   4  -1   3 83727.9 1192.47   4
   5   1   3 51675.4 680.650   3
  -5   1  -3 57336.8 910.099   6
  -5  -1  -3 58084.5 917.351   6
  -5  -1  -3 57483.8 921.702   4
  -5   1  -3 58095.8 930.955   4
  -5  -1  -3 55932.4 715.124   2
  -6   1  -3 24331.7 563.958   4
   6   1   3 24547.7 359.485   3
  -6   1  -3 26408.2 557.092   6
  -6  -1  -3 26395.6 563.386   6
  -6  -1  -3 24192.5 555.224   4
  -6  -1  -3 24141.4 376.594   2
   7   1   3 3008.75 97.8309   3
   7  -1   3 3172.27 108.451   3
  -7   1  -3 2982.40 193.559   6
  -7  -1  -3 3307.91 202.714   6
  -7  -1  -3 3067.46 202.322   4
  -7   1  -3 2648.68 191.298   4
  -7  -1  -3 2939.58 104.140   2
   8  -1   3 14087.9 230.344   1
   8   1   3 15963.3 289.734   3
   8  -1   3 16625.5 307.094   3
  -8   1  -3 16359.7 470.473   6
  -8  -1  -3 16415.6 475.665   6
  -8  -1  -3 16057.2 479.881   4
  -8   1  -3 16203.1 489.347   4
  -8  -1  -3 15744.6 294.096   2
   9   1   3 937.189 71.6208   3
   9  -1   3 994.984 79.5008   3
  -9   1  -3 918.830 137.609   6
  -9  -1  -3 1204.67 160.271   6
  -9  -1  -3 914.265 71.0159   2
  -9  -1  -3 846.552 146.457   4
  -9   1  -3 1038.12 160.013   4
 -10   1  -3 8033.94 359.322   6
 -10  -1  -3 7947.49 366.031   6
 -10  -1  -3 8520.23 386.007   4
 -10   1  -3 7652.86 368.883   4
 -11  -1  -3 10866.4 455.371   4
 -11   1  -3 10360.9 435.215   6
 -11  -1  -3 11218.1 452.809   6
 -11   1  -3 10706.7 460.121   4
 -12   1  -3 1028.78 189.215   6
 -12  -1  -3 1247.06 196.094   6
 -12  -1  -3 1397.59 195.625   4
 -12   1  -3 1096.55 183.195   4
 -13  -1  -3 9597.86 465.386   4
 -13   1  -3 9426.77 451.831   6
  15  -2  -3 2255.07 243.509   6
  14   2  -3 754.934 168.916   6
  14  -2  -3 759.155 179.456   6
  13  -2  -3 13818.8 503.518   6
  13   2  -3 14848.3 538.970   6
  12   2  -3 3783.32 267.947   6
  12  -2  -3 4131.25 271.495   6
  11  -2  -3 13559.7 454.141   6
  11   2  -3 14179.9 471.015   6
  10   2  -3 41031.7 790.375   6
  10  -2  -3 42135.3 782.173   6
 -10  -2   3 37084.4 503.981   1
   9   2  -3 3149.73 206.260   6
  -9  -2   3 3135.00 114.365   1
   9  -2  -3 3216.44 194.057   6
   8   2  -3 56303.2 956.065   6
  -8  -2   3 53892.3 783.074   1
   8  -2  -3 55940.9 937.111   6
   7  -2  -3 43304.6 750.351   6
  -7   2   3 44168.7 751.201   6
   7   2  -3 43921.2 777.251   6
  -6   2   3 4371.99 173.639   6
  -6  -2   3 4165.57 177.468   6
   6  -2  -3 4157.19 174.966   6
   6   2  -3 4374.02 188.257   6
   5   2  -3 46040.0 742.649   6
  -5   2   3 47464.3 720.057   6
  -5  -2   3 47790.0 744.471   6
   5  -2  -3 46741.6 723.076   6
   4  -2  -3 65408.1 905.058   6
  -4   2   3 62136.3 836.688   5
   4   2  -3 66751.0 936.049   6
  -4   2   3 65744.0 898.978   6
  -4  -2   3 65669.1 927.507   6
   3  -2  -3 15027.5 284.723   6
   3   2  -3 15315.9 307.074   6
  -3  -2   3 15121.6 301.181   6
  -3   2   3 15384.2 281.645   6
   2  -2  -3 143338. 1787.52   6
   2  -2  -3 142211. 1765.97   5
   2   2  -3 140688. 1813.29   6
  -2  -2   3 143099. 1812.84   6
  -2   2   3 145819. 1786.14   6
  -1   2   3 44247.6 628.483   6
  -1  -2   3 45468.6 653.213   6
   1  -2  -3 45013.2 630.963   6
   1   2  -3 45182.5 653.587   6
   0  -2   3 144499. 1840.29   6
   0   2   3 146192. 1826.28   6
   0  -2  -3 144919. 1823.23   6
   0   2  -3 146020. 1843.42   6
  -1  -2  -3 256827. 3127.19   3
  -1   2  -3 264889. 3243.56   6
   1  -2   3 275436. 3248.62   6
   1   2   3 268445. 3236.21   6
   1  -2   3 271152. 3252.81   4
   1   2   3 262288. 3174.75   2
  -2   2  -3 23147.0 425.081   6
  -2  -2  -3 22134.9 418.345   6
   2  -2   3 23169.1 428.184   6
   2   2   3 24808.6 435.246   6
   2   2   3 23621.3 423.844   4
   2  -2   3 24475.2 434.082   4
   2   2   3 22764.8 346.897   2
  -3  -2  -3 223707. 2765.82   6
  -3   2  -3 217101. 2752.19   6
  -3  -2  -3 214474. 2753.52   6
   3  -2   3 221649. 2760.99   6
   3   2   3 216764. 2618.79   2
  -3  -2  -3 212753. 2744.98   4
   3   2   3 217867. 2748.71   4
  -3   2  -3 216907. 2762.55   4
   3  -2   3 223117. 2766.37   4
  -3  -2  -3 212701. 2616.77   2
  -4  -2  -3 128686. 1602.37   2
  -4   2  -3 125940. 1753.40   6
  -4  -2  -3 129118. 1767.33   6
  -4   2  -3 133715. 1774.90   6
  -4  -2  -3 133596. 1778.05   6
  -4   2  -3 128868. 1779.58   4
  -4  -2  -3 128156. 1763.25   4
  -5   2  -3 11416.6 319.034   6
  -5  -2  -3 11401.4 325.059   4
  -5   2  -3 12469.6 345.830   4
  -5  -2  -3 11207.1 210.325   2
  -5  -2  -3 11780.8 331.029   6
   6   2   3 99581.1 1241.95   3
  -6   2  -3 103068. 1494.07   6
  -6  -2  -3 107369. 1523.50   6
  -6  -2  -3 99773.4 1504.63   4
  -6  -2  -3 97852.9 1288.24   2
  -6   2  -3 97718.6 1514.39   4
   7   2   3 48571.9 649.135   3
  -7   2  -3 49538.7 884.446   6
  -7  -2  -3 50994.6 908.771   6
  -7  -2  -3 47167.5 893.684   4
  -7   2  -3 44446.4 890.063   4
  -7  -2  -3 43700.2 675.790   2
   8   2   3 106.081 36.2333   3
   8  -2   3 80.7615 16.7544   1
  -8   2  -3 125.455 99.7353   6
  -8  -2  -3 182.619 102.548   6
  -8  -2  -3 59.7852 95.2428   4
  -8   2  -3 81.6944 100.209   4
  -8  -2  -3 201.988 50.4843   2
   9   2   3 14035.4 282.270   3
  -9   2  -3 13714.9 451.666   6
  -9  -2  -3 14763.5 475.850   6
  -9  -2  -3 13974.8 297.524   2
  -9  -2  -3 13660.0 467.380   4
  -9   2  -3 13751.6 476.339   4
 -10   2  -3 5995.66 314.630   6
 -10  -2  -3 7055.73 344.281   6
 -10  -2  -3 6487.87 333.718   4
 -10   2  -3 6788.88 346.581   4
 -11  -2  -3 5591.84 331.121   6
 -11   2  -3 5887.69 330.563   6
 -11  -2  -3 6021.07 343.161   4
 -11   2  -3 6299.33 354.368   4
 -12  -2  -3 9652.62 449.428   4
 -12   2  -3 9879.93 457.441   4
 -12   2  -3 9592.28 435.205   6
 -12  -2  -3 9684.30 439.094   6
 -13   2  -3 2688.36 260.752   6
 -13  -2  -3 2952.17 271.394   4
  15  -3  -3-144.187 140.869   3
  15  -3  -3 75.2565 139.626   6
  14   3  -3 2384.20 245.990   6
  14  -3  -3 2253.68 232.686   6
  14  -3  -3 3323.16 263.988   3
  13  -3  -3 112.585 123.361   6
  13   3  -3 271.357 138.181   6
  12  -3  -3 972.995 157.724   6
  12   3  -3 572.444 141.478   6
  11   3  -3 681.018 153.355   6
  11  -3  -3 707.510 143.095   6
  10  -3  -3 177.123 108.394   6
 -10  -3   3 158.020 43.5440   1
 -10   3   3 122.204 21.5284   1
  10   3  -3 175.732 113.582   6
  -9  -3   3 2195.58 101.385   1
   9  -3  -3 2414.68 168.606   6
   9   3  -3 2312.00 178.318   6
   8  -3  -3 4032.32 198.116   6
   8   3  -3 4353.00 221.940   6
  -8  -3   3 3821.96 138.480   1
   7  -3  -3 67.1054 75.3528   6
   7   3  -3 232.665 90.5575   6
  -7   3   3 179.555 71.7476   6
   6  -3  -3 4497.06 176.833   6
  -6  -3   3 4624.98 185.438   6
   6   3  -3 4183.74 185.905   6
  -6   3   3 4384.00 171.843   6
   5   3  -3 3081.08 154.503   6
   5  -3  -3 3457.23 139.139   6
  -5   3   3 3642.63 141.614   6
  -5  -3   3 3333.18 150.638   6
  -4  -3   3 46053.4 694.993   6
  -4   3   3 43010.3 617.442   5
   4  -3  -3 44336.1 657.773   6
  -4   3   3 45120.6 652.443   6
   4   3  -3 45704.1 699.938   6
   3  -3  -3 24056.1 393.076   6
   3   3  -3 24221.2 430.410   6
  -3  -3   3 24984.4 426.090   6
  -3   3   3 24153.3 388.240   6
   2   3  -3 466.589 74.7988   6
   2  -3  -3 453.174 57.1929   6
  -2  -3   3 379.988 62.3108   6
  -2   3   3 439.587 49.7279   6
   2  -3  -3 342.696 58.2711   5
  -1   3   3 34788.6 506.488   6
   1   3  -3 34619.2 538.255   6
   1  -3  -3 35222.0 508.333   6
  -1  -3   3 35440.7 540.236   6
   0  -3   3 9321.80 217.631   6
   0   3   3 9691.20 206.911   6
   0  -3  -3 9271.86 204.324   6
   0  -3  -3 9739.49 182.892   3
   0   3  -3 9622.40 225.566   6
  -1   3  -3 7973.33 209.826   6
   1  -3   3 8174.24 210.539   6
  -1  -3  -3 7537.56 196.892   6
  -1  -3  -3 8251.55 144.822   3
   1   3   3 8331.13 203.056   6
   1   3   3 7769.12 174.355   2
   1  -3   3 8416.34 214.114   4
  -2   3  -3 45510.7 702.046   6
  -2  -3  -3 44646.3 696.023   6
   2  -3   3 47386.6 713.123   6
   2   3   3 45743.1 701.421   6
   2  -3   3 47835.8 716.621   4
   2   3   3 45866.0 696.392   4
   2   3   3 44567.7 628.840   2
  -3   3  -3 2854.43 85.6043   3
  -3   3  -3 2869.12 140.867   6
  -3  -3  -3 2588.37 135.464   6
   3  -3   3 2632.60 136.057   6
  -3  -3  -3 2727.40 93.8198   2
  -3  -3  -3 2805.86 140.544   6
   3   3   3 2630.98 92.5798   2
  -3  -3  -3 2436.43 132.750   4
  -3   3  -3 3030.98 151.379   4
   3   3   3 2959.05 137.940   4
   3  -3   3 2597.09 135.028   4
  -4  -3  -3 3518.41 110.350   2
  -4  -3  -3 3510.00 163.896   4
  -4   3  -3 3505.93 165.984   6
  -4  -3  -3 3581.06 173.195   6
  -4  -3  -3 3528.94 168.857   6
  -4   3  -3 4047.09 187.960   4
  -5   3  -3 1435.31 120.421   6
  -5  -3  -3 1260.20 119.207   6
  -5  -3  -3 1429.70 122.190   4
  -5   3  -3 1401.07 128.157   4
  -5  -3  -3 1431.71 76.0359   2
  -6  -3  -3 515.949 61.2201   2
  -6  -3  -3 425.878 102.814   4
  -6   3  -3 435.907 99.1963   6
  -6  -3  -3 526.716 112.231   6
  -6   3  -3 471.898 114.503   4
   7  -3   3 7714.88 171.613   1
  -7   3  -3 7697.94 297.663   6
  -7  -3  -3 8115.07 314.499   6
  -7   3  -3 6961.39 304.799   4
  -7  -3  -3 7432.99 300.286   4
  -7  -3  -3 7059.94 196.200   2
   7   3   3 7768.84 166.087   3
   8  -3   3 665.930 36.4139   1
   8   3   3 773.495 58.9388   3
  -8   3  -3 780.040 127.169   6
  -8  -3  -3 817.741 136.592   6
  -8  -3  -3 624.908 120.729   4
  -8   3  -3 795.114 137.643   4
  -8  -3  -3 725.014 71.2495   2
   9   3   3 24.4583 38.3950   3
  -9   3  -3-112.521 99.6944   6
  -9  -3  -3 119.317 107.232   6
  -9  -3  -3 96.0321 104.398   4
  -9   3  -3 176.801 119.877   4
  -9  -3  -3-10.7026 48.8186   2
 -10   3  -3 6752.15 328.764   6
 -10  -3  -3 6739.77 336.316   6
 -10  -3  -3 7277.02 355.854   4
 -10   3  -3 6796.95 351.195   4
 -11   3  -3 10336.5 424.016   6
 -11  -3  -3 10447.5 438.796   6
 -11  -3  -3 10373.9 437.299   4
 -11   3  -3 10093.4 450.963   4
 -12   3  -3 1544.70 202.610   6
 -12  -3  -3 2189.61 236.735   6
 -12  -3  -3 1875.29 221.745   4
 -12   3  -3 1615.15 217.447   4
 -13   3  -3 427.558 145.948   6
 -13  -3  -3 853.180 176.094   4
  15  -4  -3 141.827 133.824   6
  15  -4  -3 225.002 148.674   3
  14   4  -3 744.440 190.123   6
  14  -4  -3 589.846 156.107   3
  14  -4  -3 560.641 152.677   6
  13   4  -3 737.966 157.799   6
  13  -4  -3 989.702 170.287   6
  13  -4  -3 731.803 149.095   3
  12  -4  -3 2665.68 214.178   6
  12   4  -3 2875.25 242.785   6
  11   4  -3 119.823 112.125   6
  11  -4  -3 113.137 106.242   6
  10  -4  -3 19033.0 504.900   6
  10   4  -3 18872.9 532.618   6
  -9  -4   3 1580.58 92.7028   1
   9   4  -3 1452.20 158.815   6
   9  -4  -3 1577.47 146.143   6
   8   4  -3 17659.8 453.410   6
  -8  -4   3 15998.2 330.199   1
   8  -4  -3 16361.2 412.568   6
  -7  -4   3 12849.5 288.084   1
   7  -4  -3 12918.9 337.470   6
   7   4  -3 13949.7 375.224   6
  -7   4   3 14165.4 343.806   6
   6  -4  -3 2628.27 134.063   6
  -6   4   3 2723.92 135.521   6
   6   4  -3 2503.09 154.210   6
  -5   4   3 65401.3 913.593   6
   5   4  -3 64635.8 972.682   6
   5  -4  -3 63917.7 918.636   6
  -5  -4   3 67501.5 967.241   6
  -5   4   3 61972.1 880.659   5
   4   4  -3 14931.7 325.560   6
   4  -4  -3 14428.7 280.747   6
  -4   4   3 13788.0 267.093   5
  -4  -4   3 14378.4 315.848   6
  -4   4   3 14674.4 277.074   6
  -3   4   3 15892.9 285.994   5
   3  -4  -3 15928.3 282.074   6
   3   4  -3 15975.3 326.212   6
  -3  -4   3 15998.1 322.606   6
  -3   4   3 15873.1 279.924   6
   2  -4  -3 6180.18 162.973   5
   2   4  -3 5735.45 173.738   6
   2  -4  -3 6176.02 144.892   6
  -2  -4   3 6177.39 175.109   6
  -2   4   3 6291.32 144.428   6
  -1   4   3 1644.45 74.7981   6
   1   4  -3 1617.01 99.2552   6
   1  -4  -3 1666.66 76.5661   6
  -1  -4   3 1521.50 90.0872   6
   0  -4  -3 14473.0 249.988   3
   0  -4  -3 13921.8 259.297   6
   0   4   3 14165.8 263.424   6
   0  -4   3 14177.6 285.111   6
   0   4   3 13846.8 271.930   2
   0   4  -3 13970.6 288.543   6
  -1   4  -3 21941.9 394.020   6
   1  -4   3 22022.1 397.658   4
   1  -4   3 22059.6 395.019   6
   1   4   3 21216.5 358.897   2
  -1  -4  -3 20981.0 371.722   6
   1   4   3 22129.3 382.483   6
  -2   4  -3 1056.44 89.5877   6
  -2  -4  -3 1160.69 95.2189   6
   2  -4   3 1040.70 90.5548   6
  -2  -4  -3 1066.59 85.8279   6
  -2  -4  -3 1118.62 69.1091   2
   2  -4   3 875.930 35.4176   2
   2   4   3 1159.61 85.4273   4
   2   4   3 1168.04 70.6622   2
   2  -4   3 1046.44 87.0273   4
  -3   4  -3 55753.6 716.267   3
  -3   4  -3 55338.3 820.667   6
  -3  -4  -3 55008.9 827.846   6
  -3  -4  -3 55158.8 740.275   2
   3  -4   3 57405.4 835.035   6
  -3  -4  -3 56741.1 834.244   6
  -3  -4  -3 53874.8 807.474   4
  -3   4  -3 55452.2 834.618   4
   3   4   3 55714.3 814.309   4
   3  -4   3 55914.9 835.632   4
   3   4   3 54129.3 734.688   2
  -4  -4  -3 46004.6 670.760   2
  -4   4  -3 45995.6 763.397   6
  -4  -4  -3 46807.9 782.622   6
  -4  -4  -3 47394.2 782.658   6
  -4  -4  -3 46368.6 764.638   4
  -4   4  -3 47234.4 789.739   4
  -5  -4  -3 362.155 55.4781   2
  -5   4  -3 292.929 82.8883   6
  -5  -4  -3 402.802 97.3103   6
  -5   4  -3 211.014 87.3047   4
  -5  -4  -3 241.367 80.0923   4
  -6   4  -3 24373.9 526.165   6
  -6  -4  -3 24118.3 548.542   6
  -6   4  -3 22750.1 545.224   4
  -6  -4  -3 23176.0 528.259   4
  -6  -4  -3 22457.4 410.330   2
  -7   4  -3 6773.38 273.548   6
  -7  -4  -3 6611.37 285.100   6
  -7  -4  -3 6538.21 278.623   4
   7  -4   3 6307.07 157.271   1
  -7   4  -3 6034.29 282.096   4
  -7  -4  -3 6160.63 190.799   2
  -8   4  -3 115.430 96.7540   6
  -8  -4  -3 61.9589 109.196   6
  -8  -4  -3 223.401 113.714   4
  -8   4  -3 302.260 127.894   4
   8  -4   3 70.0096 22.2608   1
  -8  -4  -3 98.1623 58.5067   2
   9   4   3 28.3087 38.1813   3
  -9   4  -3-205.556 111.133   6
  -9  -4  -3 39.6671 113.834   6
  -9  -4  -3 6.05581 110.762   4
  -9   4  -3 92.0724 107.940   4
  -9  -4  -3 26.4009 50.5325   2
 -10   4  -3 393.949 135.741   6
 -10  -4  -3 165.527 125.592   6
 -10  -4  -3 411.051 139.580   4
 -10   4  -3 56.1651 131.921   4
 -11   4  -3 757.185 158.627   6
 -11  -4  -3 876.507 181.972   6
 -11  -4  -3 676.980 162.975   4
 -11   4  -3 988.930 176.494   4
 -12   4  -3 6695.52 362.004   6
 -12  -4  -3 6673.70 370.698   6
 -12   4  -3 5855.09 362.047   4
 -12  -4  -3 6204.07 356.522   4
 -13   4  -3 59.4725 152.709   6
 -13  -4  -3 330.433 155.650   4
  15  -5  -3 4023.69 303.067   3
  15  -5  -3 4052.79 306.377   6
  14  -5  -3 5235.16 321.522   3
  14   5  -3 5493.08 353.853   6
  14  -5  -3 4951.22 316.259   6
  13  -5  -3 533.302 146.345   3
  13  -5  -3 648.918 153.628   6
  13   5  -3 539.323 157.328   6
  12  -5  -3 3143.24 229.251   6
  12   5  -3 3686.09 270.283   6
  12  -5  -3 3259.82 244.955   3
  11  -5  -3 19635.3 541.106   6
  11   5  -3 19729.7 576.397   6
  10   5  -3 5071.24 276.534   6
  10  -5  -3 5607.70 268.684   6
  -9  -5   3 25818.0 463.634   1
   9   5  -3 25717.5 614.783   6
   9  -5  -3 26017.9 573.723   6
   8  -5  -3 25277.5 532.752   6
   8   5  -3 25481.4 578.280   6
  -8  -5   3 24972.9 454.884   1
   7  -5  -3 23687.3 485.250   6
   7   5  -3 24684.0 535.772   6
  -7   5   3 25203.5 489.632   6
  -7  -5   3 23486.4 440.261   1
  -6   5   3 60315.3 829.438   6
  -6  -5   3 57078.4 815.634   1
   6  -5  -3 57196.5 832.016   6
   6   5  -3 56907.5 890.878   6
   5   5  -3 783.418 101.196   6
  -5   5   3 398.107 62.0291   5
   5  -5  -3 445.093 66.8949   6
  -5   5   3 408.781 62.2102   6
  -5  -5   3 528.093 83.7903   6
  -4  -5   3 77597.5 1087.06   6
   4  -5  -3 76310.8 1020.25   6
   4   5  -3 77570.1 1092.30   6
  -4   5   3 73615.6 1026.00   5
  -4   5   3 76900.2 1013.06   6
  -3   5   3 21658.0 370.625   5
   3   5  -3 20879.8 294.964   5
   3  -5  -3 21927.5 348.043   6
   3   5  -3 22747.2 411.586   6
  -3  -5   3 22658.7 406.858   6
  -3   5   3 22356.3 346.674   6
   2   5  -3 3582.50 137.655   6
   2  -5  -3 3113.09 96.4409   6
  -2  -5   3 3392.80 130.655   6
   2  -5  -3 3156.97 124.798   5
  -2   5   3 3135.24 95.3063   6
  -1   5   3 67103.5 886.499   6
  -1  -5   3 67986.9 941.108   6
   1   5  -3 67613.2 944.088   6
   1  -5  -3 68448.1 926.597   3
   1  -5  -3 68552.1 888.090   6
   0   5   3 86522.1 1159.19   2
   0  -5   3 86631.0 1167.17   6
   0  -5  -3 85931.8 1125.38   6
   0  -5  -3 87686.6 1125.33   3
   0   5   3 87159.3 1130.65   6
   0   5  -3 86912.3 1170.33   6
  -1   5  -3 4215.84 151.993   6
   1   5   3 3838.38 129.592   2
   1  -5   3 4305.15 152.284   6
   1   5   3 3964.04 136.406   6
   1  -5   3 3945.25 146.765   4
  -1  -5  -3 4041.50 135.224   6
   2   5   3 198212. 2428.53   3
  -2   5  -3 202903. 2551.24   6
   2  -5   3 209694. 2559.97   6
  -2  -5  -3 203031. 2541.15   6
  -2  -5  -3 205073. 2549.50   6
  -2  -5  -3 203622. 2499.31   2
   2  -5   3 195680. 2413.50   2
   2   5   3 202400. 2498.55   2
   2   5   3 205923. 2530.93   4
   2  -5   3 209141. 2563.57   4
  -3   5  -3 76415.8 994.492   3
  -3   5  -3 74082.3 1076.40   6
   3   5   3 73384.3 935.976   3
  -3  -5  -3 74589.6 1015.89   2
  -3  -5  -3 73204.1 1088.66   6
   3  -5   3 77963.7 1095.12   6
  -3  -5  -3 75547.4 1090.18   6
   3   5   3 72865.1 1007.33   2
   3   5   3 75827.6 1068.07   4
  -3   5  -3 75089.3 1095.20   4
   3  -5   3 77657.8 1100.80   4
  -4  -5  -3 16448.3 320.909   2
  -4   5  -3 16021.4 372.455   6
  -4  -5  -3 16050.7 390.732   6
   4  -5   3 16558.9 380.815   6
  -4  -5  -3 17307.2 397.243   6
  -4  -5  -3 16535.1 374.042   4
  -4   5  -3 16376.5 393.802   4
  -4   5  -3 16784.8 303.029   3
  -5   5  -3 89923.1 1313.60   6
  -5  -5  -3 89065.1 1341.78   6
  -5  -5  -3 88283.6 1312.67   4
  -5   5  -3 89743.5 1353.31   4
  -5  -5  -3 88695.4 1211.13   2
  -6   5  -3 5264.57 224.843   6
  -6  -5  -3 5297.85 245.245   6
  -6  -5  -3 5175.71 229.932   4
  -6   5  -3 5309.69 248.661   4
  -6  -5  -3 4650.77 166.735   2
   6  -5   3 4889.45 151.002   1
  -7   5  -3 7996.63 299.994   6
   7  -5   3 8375.67 192.107   1
  -7  -5  -3 8332.22 323.867   6
  -7  -5  -3 8453.53 313.754   4
  -7   5  -3 7646.19 320.056   4
  -7  -5  -3 8020.19 231.264   2
  -8   5  -3 59464.8 1036.21   6
  -8  -5  -3 59949.9 1075.15   6
  -8  -5  -3 58739.8 1051.68   4
  -8   5  -3 54835.9 1070.27   4
  -8  -5  -3 58570.7 879.439   2
   8   5   3 59493.4 844.922   1
   8  -5   3 54072.1 754.305   1
  -9  -5  -3 70.5906 57.8760   2
  -9   5  -3 135.446 102.221   6
  -9  -5  -3 208.376 118.146   6
  -9  -5  -3 125.160 112.023   4
  -9   5  -3 40.5275 110.774   4
 -10  -5  -3 27941.3 716.627   4
 -10   5  -3 28402.6 705.187   6
 -10  -5  -3 28465.8 733.989   6
 -10   5  -3 28184.7 747.846   4
 -11  -5  -3 18773.6 602.468   4
 -11   5  -3 19394.9 594.216   6
 -11  -5  -3 20010.5 625.952   6
 -11   5  -3 19327.5 631.388   4
 -12   5  -3 177.555 145.096   6
 -12  -5  -3 415.815 156.314   6
 -12  -5  -3 368.107 150.913   4
 -12   5  -3 481.339 157.873   4
 -13   5  -3 7034.16 394.092   6
 -13  -5  -3 7056.63 395.471   4
  15  -6  -3 2620.23 258.988   3
  14  -6  -3 4.51589 139.387   3
  14  -6  -3 151.238 135.140   6
  14   6  -3 133.478 148.662   6
  13  -6  -3 2866.89 237.958   3
  13   6  -3 2181.55 232.761   6
  13  -6  -3 2515.16 223.316   6
  12  -6  -3 4092.52 262.670   3
  12  -6  -3 3683.04 245.213   6
  12   6  -3 4022.02 284.658   6
  11  -6  -3 7275.58 314.613   6
  11   6  -3 7251.45 344.677   6
  11  -6  -3 7849.00 343.795   3
  10  -6  -3 26175.1 590.105   6
  10   6  -3 26787.1 644.036   6
  -9  -6   3 3030.25 139.562   1
   9  -6  -3 3120.11 182.275   6
   9   6  -3 3178.78 215.388   6
  -8  -6   3 16669.1 358.521   1
   8  -6  -3 17279.6 418.179   6
   8   6  -3 18054.7 469.818   6
  -7   6   3 32511.8 574.755   6
   7   6  -3 31199.4 635.580   6
   7  -6  -3 30484.2 572.112   6
  -7  -6   3 31385.7 548.198   1
  -6  -6   3 535.114 71.5746   1
   6  -6  -3 458.969 69.7679   6
   6   6  -3 630.586 95.9244   6
  -6   6   3 607.042 71.1658   6
  -6  -6   3 423.559 33.1328   5
  -5   6   3 127593. 1708.70   5
   5  -6  -3 133618. 1708.94   6
   5   6  -3 132752. 1786.44   6
  -5   6   3 132207. 1688.96   6
  -5  -6   3 133157. 1779.11   6
  -4   6   3 10672.9 247.251   5
   4  -6  -3 10798.2 225.305   6
   4   6  -3 11743.8 288.662   6
  -4  -6   3 11643.0 279.906   6
  -4   6   3 11145.1 221.941   6
  -3   6   3 48958.5 720.622   5
   3   6  -3 48718.7 639.162   5
  -3  -6   3 50958.5 754.184   6
  -3   6   3 49430.9 666.945   6
   3  -6  -3 49240.0 669.799   6
   3   6  -3 51234.6 760.723   6
   3  -6  -3 48736.1 759.388   3
  -2   6   3 9929.30 185.170   6
   2  -6  -3 10343.8 247.612   3
   2  -6  -3 10309.0 239.297   5
   2   6  -3 10100.1 246.716   6
   2  -6  -3 10216.4 187.751   6
  -2  -6   3 10336.0 242.512   6
   1  -6  -3 45480.8 679.708   3
  -1   6   3 46084.5 627.255   6
   1  -6  -3 45847.0 692.314   5
  -1   6   3 46597.8 698.933   2
   1   6  -3 46039.3 692.083   6
  -1  -6   3 48057.8 693.812   6
   1  -6  -3 45784.1 624.883   6
   0  -6   3 24948.1 429.151   6
   0  -6  -3 24327.5 386.461   6
   0  -6  -3 24650.7 400.378   3
   0   6   3 24780.6 390.848   6
   0   6   3 24913.9 429.003   2
   0   6  -3 24685.4 429.731   6
  -1   6  -3 342001. 4155.52   6
   1  -6   3 345718. 4155.29   6
  -1  -6  -3 333363. 4116.10   6
   1  -6   3 339175. 4074.66   2
   1   6   3 344209. 4121.16   4
   1   6   3 335571. 4131.68   2
  -2   6  -3 23665.0 434.467   6
   2  -6   3 24250.6 441.002   6
  -2  -6  -3 22944.0 423.149   6
   2   6   3 22790.0 353.160   3
  -2  -6  -3 23492.8 427.567   6
  -2  -6  -3 23127.9 408.175   2
   2  -6   3 23812.7 441.862   4
   2   6   3 22708.7 403.664   2
   2   6   3 23222.2 412.193   4
   2  -6   3 23140.2 339.119   2
   3  -6   3 24261.4 473.899   4
  -3   6  -3 23426.1 455.759   6
  -3   6  -3 23972.5 404.478   3
  -3  -6  -3 24083.9 424.088   2
   3  -6   3 24584.9 470.778   6
  -3  -6  -3 24249.0 470.627   6
   3   6   3 23714.1 418.327   2
  -3   6  -3 24228.9 471.745   4
   3   6   3 24231.5 446.517   4
  -3  -6  -3 24590.5 471.034   6
  -4   6  -3 26415.6 438.818   3
  -4  -6  -3 25639.9 457.178   2
  -4   6  -3 25648.2 505.555   6
  -4  -6  -3 27089.1 534.161   6
   4  -6   3 26602.7 516.650   6
  -4  -6  -3 26300.6 525.090   6
  -4  -6  -3 25877.8 498.173   4
  -4   6  -3 26580.7 533.617   4
  -5  -6  -3 255.009 63.1148   2
  -5   6  -3 207.144 76.8698   6
  -5  -6  -3 252.400 86.4509   6
   5  -6   3 212.447 51.7556   1
  -5  -6  -3 237.447 79.1155   4
  -5   6  -3 228.964 97.3064   4
   6  -6   3 55100.2 792.485   1
  -6   6  -3 55923.4 928.398   6
  -6  -6  -3 54336.0 959.225   6
  -6   6  -3 54079.1 965.478   4
  -6  -6  -3 52035.3 824.116   2
  -6  -6  -3 54633.0 929.339   4
  -7   6  -3 2161.76 162.949   6
   7  -6   3 2207.21 99.2046   1
  -7  -6  -3 2252.16 182.712   6
  -7  -6  -3 2243.24 169.185   4
  -7  -6  -3 1953.10 119.078   2
  -7   6  -3 2157.58 177.767   4
  -8   6  -3 4107.38 231.758   6
  -8  -6  -3 4460.94 260.412   6
  -8  -6  -3 4358.90 242.764   4
  -8   6  -3 3697.32 243.238   4
  -8  -6  -3 4099.33 175.567   2
   8   6   3 4192.75 161.122   1
  -9   6  -3 25872.3 633.651   6
   9   6   3 24438.1 432.251   1
  -9  -6  -3 26543.1 675.446   6
  -9  -6  -3 26058.5 648.011   4
  -9   6  -3 24290.3 664.210   4
  -9  -6  -3 26427.3 514.750   2
 -10  -6  -3 6176.02 320.725   4
 -10   6  -3 6455.60 318.258   6
 -10  -6  -3 6229.78 335.236   6
 -10   6  -3 6338.37 347.504   4
 -11   6  -3 457.073 132.664   6
 -11  -6  -3 195.089 124.844   4
 -11   6  -3 265.666 142.261   4
 -12   6  -3 7008.44 364.553   6
 -12  -6  -3 6829.04 389.403   6
 -12  -6  -3 6494.19 362.186   4
 -12   6  -3 6871.73 386.666   4
 -13   6  -3 2074.90 237.148   6
 -13  -6  -3 2148.47 238.427   4
  15  -7  -3 598.021 172.905   3
 -15   7   3-64.1266 128.088   6
  14  -7  -3 584.302 161.624   3
  14   7  -3 859.410 189.541   6
  14  -7  -3 723.858 161.035   6
  13  -7  -3-65.8032 131.477   3
  13  -7  -3 95.6255 115.297   6
  13   7  -3 218.580 137.803   6
  12  -7  -3 307.315 123.489   3
  12   7  -3 413.044 142.070   6
  12  -7  -3 567.868 131.096   6
  11  -7  -3 62.6800 126.934   3
  11  -7  -3 55.9004 91.1115   6
  11   7  -3 173.615 120.588   6
  10  -7  -3 2376.30 183.951   6
  10   7  -3 2657.18 211.831   6
  10  -7  -3 2775.12 209.388   3
   9  -7  -3 143.953 106.328   3
   9   7  -3 323.630 114.604   6
   9  -7  -3 255.549 82.7026   6
  -9  -7   3 345.116 72.1345   1
  -8  -7   3 415.749 70.8420   1
   8  -7  -3 575.497 96.5577   6
   8   7  -3 819.640 125.358   6
   8  -7  -3 626.168 116.887   3
  -7  -7   3 11.6241 28.8638   5
  -7  -7   3 47.9140 58.0376   1
   7  -7  -3 33.5562 56.9559   6
   7   7  -3 242.619 103.362   6
  -7   7   3 119.578 60.7432   6
  -6  -7   3 1106.54 51.1982   5
   6  -7  -3 1247.44 90.0091   6
   6   7  -3 1357.13 124.553   6
  -6  -7   3 1211.73 99.4531   1
  -6   7   3 1149.58 84.4594   6
   6  -7  -3 1232.03 117.959   3
  -5  -7   3 6639.13 212.154   1
  -5   7   3 6627.05 173.971   6
  -5   7   3 6378.20 198.541   5
   5   7  -3 6685.07 230.214   6
  -5  -7   3 6489.47 221.634   6
   5  -7  -3 6726.52 182.303   6
   5  -7  -3 6472.04 233.699   3
   4  -7  -3 295.933 80.7255   3
  -4  -7   3 452.559 70.7816   1
   4  -7  -3 450.589 47.9317   6
   4   7  -3 461.944 81.1740   6
  -4  -7   3 352.455 69.7508   6
  -4   7   3 425.068 47.1851   6
  -4   7   3 437.284 67.6145   5
   3  -7  -3 10224.5 268.987   3
   3  -7  -3 10243.0 192.278   6
   3   7  -3 10073.1 263.544   6
  -3   7   3 10176.6 244.892   5
  -3  -7   3 10768.2 263.467   6
  -3   7   3 10607.8 192.427   6
   3   7  -3 10524.7 191.745   5
   2  -7  -3 6756.31 202.086   3
  -2   7   3 6659.99 136.254   6
   2  -7  -3 6713.39 195.718   5
   2   7  -3 6631.95 196.173   6
   2  -7  -3 6659.99 135.746   6
  -2  -7   3 6460.47 191.003   6
   1  -7  -3 12376.9 271.122   3
  -1   7   3 12168.5 216.327   6
  -1   7   3 12471.9 283.931   2
   1   7  -3 12345.6 274.711   6
  -1  -7   3 12511.9 274.154   6
   1  -7  -3 12301.5 279.324   5
   1  -7  -3 12229.5 214.705   6
   0  -7   3 1302.74 89.7940   6
   0  -7  -3 1376.34 70.6745   6
   0   7   3 1365.33 92.1074   2
   0   7   3 1477.22 74.0777   6
   0   7  -3 1450.83 96.8794   6
   0   7   3 1323.85 83.8645   3
   1   7   3 7686.26 181.866   3
   1  -7   3 8013.78 214.900   6
  -1  -7  -3 7472.76 190.550   6
  -1  -7  -3 7620.63 194.269   6
   1  -7   3 7803.65 176.729   2
   1   7   3 7788.11 190.228   4
  -1  -7  -3 7454.72 208.615   2
   1  -7   3 7596.67 211.430   4
   1   7   3 7731.38 207.036   2
  -1   7  -3 7793.24 213.915   6
  -2   7  -3 17778.8 362.503   6
   2   7   3 17183.1 301.994   3
   2  -7   3 18284.0 368.342   6
  -2  -7  -3 17902.4 356.099   6
  -2  -7  -3 17568.9 349.245   2
  -2  -7  -3 17234.2 354.568   6
   2   7   3 17186.6 344.588   2
   2   7   3 17946.7 340.035   4
   2  -7   3 18129.2 370.594   4
   2  -7   3 17603.9 286.517   2
  -3   7  -3 3816.36 161.389   6
  -3   7  -3 3915.40 137.897   3
  -3  -7  -3 3741.00 149.780   2
   3  -7   3 3796.92 160.797   6
  -3   7  -3 3709.67 166.290   4
  -3  -7  -3 3858.58 169.734   6
  -3  -7  -3 3810.45 162.962   6
   3   7   3 3854.84 145.454   2
   3   7   3 3855.79 150.416   4
   3  -7   3 4011.48 169.513   4
  -4  -7  -3 1749.61 117.338   4
  -4  -7  -3 2073.08 114.773   2
  -4   7  -3 1808.62 101.058   3
  -4   7  -3 1751.61 124.369   6
   4  -7   3 1851.94 103.091   1
  -4  -7  -3 1919.37 135.082   6
   4  -7   3 2182.95 134.504   6
  -4  -7  -3 1767.95 130.020   6
  -4   7  -3 2160.54 143.177   4
  -5   7  -3 1260.99 112.968   6
  -5  -7  -3 1283.20 123.022   6
  -5  -7  -3 993.358 101.164   4
   5  -7   3 1175.27 84.1169   1
  -5   7  -3 996.939 118.687   4
  -5  -7  -3 1179.74 92.3618   2
  -6  -7  -3 133.356 64.8532   2
  -6   7  -3 222.228 88.5269   6
  -6   7  -3 307.538 103.863   4
  -6  -7  -3 269.641 101.741   6
   6  -7   3 217.148 48.4756   1
  -6  -7  -3 226.061 84.6789   4
  -7  -7  -3 32.5524 58.2061   2
  -7   7  -3 88.4221 82.8445   6
  -7  -7  -3 1.18138 94.3095   6
   7  -7   3 85.9428 41.6177   1
  -7  -7  -3-58.1537 80.8048   4
  -7   7  -3 32.0542 96.2933   4
  -8  -7  -3 553.947 86.0060   2
  -8   7  -3 607.560 114.416   6
  -8  -7  -3 491.296 128.349   6
   8   7   3 554.410 76.9019   1
  -8  -7  -3 384.043 105.566   4
  -8   7  -3 429.423 120.697   4
  -9  -7  -3 119.314 73.6136   2
   9   7   3 108.352 52.0217   1
  -9   7  -3 219.379 113.390   6
  -9  -7  -3 174.736 129.805   6
  -9  -7  -3 280.087 122.331   4
  -9   7  -3 240.065 126.622   4
 -10  -7  -3 183.678 74.3633   2
 -10   7  -3 188.694 104.953   6
 -10  -7  -3 235.914 142.388   6
 -10  -7  -3 33.0236 104.836   4
 -10   7  -3 349.878 149.677   4
 -11   7  -3 288.635 131.169   6
 -11  -7  -3 45.9495 125.279   6
 -11  -7  -3-48.6004 112.049   4
 -11   7  -3-28.0625 125.682   4
 -12   7  -3 237.378 137.136   6
 -12  -7  -3 39.5228 129.421   6
 -12  -7  -3 343.330 148.989   4
 -12   7  -3 43.5291 132.291   4
 -13   7  -3-97.2788 126.252   6
 -13  -7  -3-140.267 142.628   4
  15  -8  -3 1764.95 235.207   3
 -15   8   3 1873.43 221.058   6
  14  -8  -3 140.649 148.517   3
  14   8  -3 87.3561 146.517   6
  13  -8  -3 10468.0 437.982   3
  13  -8  -3 10161.0 410.651   6
  13   8  -3 10148.4 464.148   6
  12  -8  -3 407.670 144.008   3
  12  -8  -3 543.905 131.253   6
  12   8  -3 949.826 179.780   6
  11  -8  -3 2812.97 222.429   3
  11  -8  -3 2967.51 204.060   6
  11   8  -3 3025.08 237.328   6
  10  -8  -3 30945.9 705.421   3
  10  -8  -3 29557.1 643.614   6
  10   8  -3 29851.5 725.174   6
   9  -8  -3 3608.92 219.381   3
   9  -8  -3 3265.83 186.535   6
   9   8  -3 3706.57 230.053   6
  -9  -8   3 3148.62 158.888   1
   8  -8  -3 20369.1 506.616   3
  -8  -8   3 18558.5 412.528   1
   8  -8  -3 20238.8 442.653   6
   8   8  -3 19014.4 503.202   6
  -8   8   3 19161.8 432.124   6
  -8  -8   3 18689.4 329.659   5
   7  -8  -3 33715.9 668.904   3
  -7  -8   3 32990.9 594.492   1
   7  -8  -3 33169.7 590.759   6
  -7  -8   3 32091.5 480.917   5
   7   8  -3 34395.3 678.125   6
  -7   8   3 34100.9 581.200   6
   6  -8  -3 4820.62 215.777   3
  -6  -8   3 4295.26 113.197   5
   6  -8  -3 4563.55 160.428   6
   6   8  -3 5035.65 220.915   6
  -6   8   3 4550.95 154.443   6
  -6  -8   3 4613.69 182.437   1
   5  -8  -3 36875.0 669.285   3
  -5   8   3 35665.0 612.122   5
   5  -8  -3 37012.8 565.694   6
  -5   8   3 36446.2 549.800   6
   5   8  -3 37174.8 659.697   6
  -5  -8   3 37607.2 640.059   1
  -4   8   3 16109.3 346.109   5
   4  -8  -3 16497.5 380.754   3
  -4  -8   3 16664.4 369.377   1
   4  -8  -3 16896.3 288.320   6
   4   8  -3 16140.4 369.157   6
  -4  -8   3 16095.6 361.685   6
  -4   8   3 16734.5 279.561   6
  -3  -8   3 1153.88 92.9167   6
   3  -8  -3 1085.95 106.731   3
  -3  -8   3 1187.19 98.2520   1
   3   8  -3 1154.56 66.4883   5
   3  -8  -3 1091.24 52.4951   6
  -3   8   3 1171.36 54.0973   6
  -3   8   3 1097.49 91.8228   5
   3   8  -3 1338.38 104.334   6
   2  -8  -3 108109. 1455.02   3
  -2   8   3 106260. 1320.76   6
   2  -8  -3 108593. 1447.81   5
   2   8  -3 107777. 1440.68   6
   2  -8  -3 105616. 1319.94   6
  -2   8   3 112829. 1469.25   2
  -2  -8   3 109614. 1441.99   6
   1  -8  -3 5604.92 178.467   3
  -1   8   3 5565.98 126.003   6
   1  -8  -3 5700.25 190.391   5
  -1   8   3 5920.80 191.556   2
   1   8  -3 5573.10 176.127   6
  -1  -8   3 5653.70 175.734   6
   1  -8  -3 5637.50 125.980   6
  -1   8   3 5521.13 174.778   3
   0   8   3 79340.9 1099.40   3
   0  -8   3 80825.4 1116.25   6
   0   8   3 82489.6 1137.57   2
   0  -8  -3 82143.5 1148.08   5
   0  -8  -3 80042.0 1049.92   6
   0  -8   3 82500.7 1102.59   2
   0  -8  -3 81549.0 1058.95   6
   0   8  -3 80686.4 1119.14   6
   1   8   3 159315. 2056.35   3
  -1   8  -3 163945. 2099.82   6
   1  -8   3 167559. 2102.23   6
   1   8   3 165921. 2052.16   4
  -1  -8  -3 163312. 2107.75   2
  -1  -8  -3 161887. 2053.21   6
  -1  -8  -3 161886. 2060.25   6
   1  -8   3 164738. 2095.31   4
   1  -8   3 163716. 2043.67   2
   1   8   3 163555. 2103.68   2
  -2  -8  -3 288.284 66.3645   2
  -2   8  -3 232.348 62.2230   6
   2  -8   3 340.974 46.3095   2
   2  -8   3 211.400 59.0854   6
   2   8   3 236.941 45.8692   3
  -2  -8  -3 356.579 64.0262   6
  -2  -8  -3 248.139 57.2942   6
   2   8   3 315.557 63.9089   2
   2   8   3 253.161 53.5437   4
   2  -8   3 301.148 62.2236   1
   2  -8   3 343.039 65.5644   4
  -3   8  -3 93511.8 1310.18   6
   3  -8   3 92379.6 1298.48   1
  -3  -8  -3 92748.1 1298.46   2
  -3   8  -3 93816.2 1273.94   3
   3  -8   3 95301.4 1322.37   6
  -3  -8  -3 95177.8 1327.64   6
  -3  -8  -3 94757.8 1323.91   6
   3   8   3 91122.5 1283.63   2
   3  -8   3 93663.8 1184.50   2
  -3   8  -3 92475.4 1322.66   4
   3   8   3 93682.4 1284.84   4
   3  -8   3 95642.8 1338.91   4
  -4  -8  -3 43245.8 696.173   2
  -4   8  -3 42561.8 670.619   3
  -4   8  -3 42488.4 715.511   6
  -4  -8  -3 42572.1 743.798   6
   4  -8   3 43368.1 727.949   6
   4   8   3 41172.1 678.534   2
  -4  -8  -3 41309.2 691.068   4
  -4  -8  -3 42776.9 740.434   6
  -4   8  -3 42269.2 741.488   4
   4  -8   3 41872.7 681.196   1
  -5  -8  -3 88.8021 63.8394   2
  -5   8  -3 5.28036 64.6560   6
  -5  -8  -3 14.5628 78.2034   6
  -5   8  -3 29.1674 75.9426   4
  -5  -8  -3 131.048 69.4283   4
   5  -8   3 103.061 48.6727   1
  -5   8  -3 14.0289 52.9736   3
  -6   8  -3 18467.9 441.911   6
   6  -8   3 17600.7 362.262   1
  -6  -8  -3 17353.3 471.071   6
  -6  -8  -3 18133.8 438.950   4
  -6   8  -3 17885.0 474.235   4
  -6  -8  -3 17623.7 399.124   2
   7  -8   3 4762.98 165.530   1
  -7   8  -3 4787.03 229.935   6
  -7  -8  -3 4876.04 254.896   6
  -7  -8  -3 4976.77 236.700   4
  -7   8  -3 5053.35 261.311   4
  -7  -8  -3 4813.50 198.882   2
  -8   8  -3 5589.10 265.078   6
  -8  -8  -3 6325.58 306.901   6
  -8  -8  -3 6180.79 280.711   4
  -8   8  -3 5415.64 289.859   4
  -8  -8  -3 5784.69 225.679   2
   8   8   3 6069.21 213.359   1
  -9   8  -3 30750.0 701.988   6
   9   8   3 29786.1 534.281   1
  -9  -8  -3 29709.3 743.756   6
  -9  -8  -3 30062.9 703.401   4
  -9   8  -3 29328.5 744.131   4
  -9  -8  -3 31114.1 606.527   2
 -10   8  -3 10937.2 449.242   4
 -10   8  -3 11073.8 414.344   6
 -10  -8  -3 11139.0 452.635   6
 -10  -8  -3 10505.8 411.842   4
 -10  -8  -3 11033.4 329.845   2
 -11   8  -3 1276.92 180.399   6
 -11  -8  -3 1455.85 200.603   6
 -11  -8  -3 1164.36 177.611   4
 -11   8  -3 1294.00 207.414   4
 -12   8  -3 6633.77 356.162   6
 -12  -8  -3 7292.26 402.279   6
 -12  -8  -3 6958.75 374.486   4
 -12   8  -3 6734.49 386.036   4
 -13   8  -3 2226.40 241.363   6
 -13  -8  -3 2187.65 240.104   4
  15  -9  -3 3354.42 295.447   3
 -15   9   3 3016.20 263.224   6
  14  -9  -3 8797.34 425.419   3
 -14   9   3 9139.99 399.795   6
  13  -9  -3 31.3151 135.363   3
  13   9  -3 215.536 146.699   6
  12  -9  -3 9022.80 396.516   3
  12  -9  -3 8432.86 351.812   6
  12   9  -3 8648.67 411.868   6
  11  -9  -3 1589.49 185.285   3
  11  -9  -3 1829.65 165.058   6
  11   9  -3 1399.41 178.462   6
  10  -9  -3 825.857 151.841   3
  10  -9  -3 672.949 111.051   6
  10   9  -3 832.744 146.792   6
 -10   9   3 761.060 72.6451   1
 -10  -9   3 759.398 74.2583   5
   9  -9  -3 23971.5 589.290   3
   9  -9  -3 25062.7 533.781   6
   9   9  -3 24555.1 615.889   6
  -9  -9   3 23691.3 412.302   5
  -9  -9   3 23072.2 495.938   1
   8  -9  -3 14249.2 421.803   3
   8   9  -3 15356.7 444.541   6
  -8  -9   3 14460.2 365.081   1
   8  -9  -3 15377.6 372.688   6
  -8  -9   3 14138.5 277.393   5
  -8   9   3 14840.5 362.156   6
   7  -9  -3 5886.04 255.588   3
  -7  -9   3 5781.34 214.828   1
  -7  -9   3 5802.74 148.744   5
   7   9  -3 5869.41 253.125   6
  -7   9   3 5925.53 195.645   6
   7  -9  -3 5970.83 201.862   6
   6  -9  -3 42607.6 768.974   3
   6  -9  -3 42193.2 661.236   6
  -6  -9   3 41784.6 717.066   1
   6   9  -3 41923.7 756.298   6
  -6   9   3 42121.1 643.281   6
   5  -9  -3 3387.32 120.000   6
  -5   9   3 3238.58 155.173   5
  -5  -9   3 3388.42 160.911   1
   5  -9  -3 3298.32 177.199   3
   5   9  -3 3291.64 171.707   6
  -5   9   3 3427.51 113.267   6
   4  -9  -3 11711.9 319.900   3
  -4   9   3 11975.6 296.700   5
   4  -9  -3 12092.7 222.412   6
   4   9  -3 11288.9 305.997   6
  -4  -9   3 11843.2 302.163   6
  -4   9   3 12266.3 216.658   6
  -4  -9   3 12454.0 315.945   1
  -3  -9   3 82048.4 1173.42   1
   3  -9  -3 81044.6 1162.62   3
   3  -9  -3 78187.9 998.056   6
   3   9  -3 81158.9 1055.20   5
  -3   9   3 77423.6 1131.53   5
   3   9  -3 80920.6 1143.92   6
  -3  -9   3 82500.8 1142.64   6
  -3   9   3 79935.3 996.524   6
  -2  -9   3 2748.13 143.985   1
   2  -9  -3 2575.22 134.526   3
  -2   9   3 2502.25 68.0521   6
   2  -9  -3 2661.14 135.752   5
  -2   9   3 2448.70 135.414   2
  -2  -9   3 2641.40 128.472   6
   2  -9  -3 2428.19 66.2593   6
   2   9  -3 2498.80 127.329   6
  -1  -9   3 36471.1 628.667   1
   1  -9  -3 35777.9 595.443   3
  -1   9   3 36998.8 615.015   2
   1  -9  -3 36370.4 612.396   5
   1   9  -3 36123.0 588.012   6
  -1  -9   3 36418.3 587.360   6
   1  -9  -3 35703.3 491.594   6
  -1   9   3 35765.1 593.239   3
   0  -9   3 209526. 2622.50   6
   0   9   3 206693. 2617.80   3
   0   9   3 210179. 2655.87   2
   0  -9  -3 207617. 2542.08   6
   0  -9   3 210584. 2677.48   1
   0  -9   3 210731. 2612.16   2
   0  -9  -3 211210. 2665.32   5
   0  -9  -3 207348. 2549.79   6
   0   9  -3 205510. 2620.41   6
   1   9   3 1173.97 95.8736   2
   1   9   3 1075.08 79.5198   3
   1  -9   3 1296.46 96.8311   6
   1  -9   3 1130.29 98.2012   1
  -1  -9  -3 1285.52 79.9065   6
   1  -9   3 1307.00 84.7066   2
  -1  -9  -3 1351.77 105.096   2
   1  -9   3 1329.86 90.1043   4
   1   9   3 1375.11 78.0238   4
  -1   9  -3 1255.70 94.3308   6
  -1  -9  -3 1311.62 80.6627   6
  -2   9  -3 29918.5 528.078   6
   2  -9   3 30021.5 547.016   1
   2   9   3 30606.2 492.434   3
   2  -9   3 31579.0 538.422   6
  -2  -9  -3 30070.8 518.106   6
  -2  -9  -3 30680.6 542.583   2
  -2  -9  -3 30119.9 519.313   6
   2  -9   3 30511.8 540.067   4
   2   9   3 29417.7 531.573   2
   2   9   3 29804.5 490.564   4
   2  -9   3 29430.4 467.045   2
  -3   9  -3 49719.2 791.240   6
  -3  -9  -3 49487.5 794.791   2
  -3   9  -3 48907.1 800.788   4
  -3   9  -3 50601.5 776.360   3
   3  -9   3 50579.2 803.019   6
  -3  -9  -3 50329.9 807.555   6
   3  -9   3 50251.5 693.129   2
   3   9   3 49990.9 786.706   2
   3   9   3 50584.4 766.892   4
   3  -9   3 51699.0 822.155   4
   3  -9   3 50010.6 792.454   1
  -3  -9  -3 50328.4 803.992   6
  -4  -9  -3 5265.74 208.708   6
  -4  -9  -3 5319.49 197.658   2
  -4   9  -3 5532.80 189.377   3
  -4   9  -3 5418.61 203.377   6
  -4  -9  -3 5303.67 219.663   6
   4   9   3 5084.31 190.259   2
   4  -9   3 5333.53 205.907   6
  -4   9  -3 5149.27 211.393   4
   4  -9   3 5527.66 192.167   1
  -5   9  -3 95915.3 1328.35   3
  -5   9  -3 96111.3 1383.36   6
   5  -9   3 93943.8 1320.52   1
  -5  -9  -3 89995.3 1418.94   6
  -5  -9  -3 93972.6 1358.96   4
  -5   9  -3 96927.1 1431.29   4
  -5  -9  -3 94952.6 1358.29   2
  -6   9  -3 14289.4 384.217   6
   6  -9   3 14767.3 331.871   1
  -6  -9  -3 14442.3 424.377   6
  -6   9  -3 13533.0 232.074   2
  -6   9  -3 14435.8 417.958   4
  -6  -9  -3 14658.0 382.608   4
  -6  -9  -3 14151.1 356.945   2
  -7   9  -3 35044.4 677.866   6
  -7  -9  -3 35050.7 735.439   6
  -7  -9  -3 35389.4 683.465   4
  -7   9  -3 33603.5 726.844   4
  -7  -9  -3 34745.3 631.942   2
   7  -9   3 34084.8 565.316   1
  -8   9  -3 53155.8 1040.85   4
  -8   9  -3 53895.8 979.321   6
  -8  -9  -3 54780.0 1047.88   6
  -8  -9  -3 53419.7 982.641   4
  -8  -9  -3 54652.3 911.085   2
   8   9   3 53636.2 875.819   1
   9   9   3 669.758 81.9356   1
  -9   9  -3 657.091 129.980   6
  -9  -9  -3 682.875 103.659   2
  -9  -9  -3 778.256 165.256   6
  -9  -9  -3 634.988 130.440   4
  -9   9  -3 681.334 148.102   4
 -10   9  -3 9443.22 380.567   6
 -10  -9  -3 9365.61 416.790   6
 -10  -9  -3 8548.60 368.080   4
 -10   9  -3 9496.94 415.486   4
 -10  -9  -3 9314.93 312.603   2
 -11   9  -3 21957.5 631.957   6
 -11  -9  -3 23140.4 691.712   6
 -11  -9  -3 20936.4 627.099   4
 -11   9  -3 22238.4 682.452   4
 -12   9  -3 296.771 144.771   6
 -12  -9  -3 447.410 154.740   6
 -12  -9  -3 246.821 130.700   4
 -12   9  -3 251.963 129.819   4
 -13   9  -3 7030.76 385.110   6
 -13  -9  -3 7164.02 390.395   4
  14 -10  -3 572.534 178.105   3
 -14  10   3 533.873 151.863   6
  13 -10  -3 1953.26 224.340   3
 -13  10   3 2288.81 205.230   6
  13  10  -3 1922.21 234.300   6
  12 -10  -3 102.400 120.671   3
  12 -10  -3 15.3123 100.189   6
  12  10  -3 242.629 143.429   6
  11 -10  -3-140.575 129.820   3
  11 -10  -3 80.4830 89.5999   6
  11  10  -3-112.989 132.014   6
 -10  10   3 1517.00 98.3370   1
  10 -10  -3 1432.08 172.282   3
  10 -10  -3 1456.52 135.977   6
  10  10  -3 1225.58 170.075   6
 -10 -10   3 1408.56 94.7448   5
   9 -10  -3 1856.44 178.171   3
   9  10  -3 1758.85 175.584   6
   9 -10  -3 1809.81 138.519   6
  -9 -10   3 1695.56 133.789   1
  -9 -10   3 1746.58 96.8782   5
  -9  10   3 1589.42 113.649   1
  -8 -10   3 1724.74 129.698   1
  -8  10   3 1706.35 121.952   6
   8 -10  -3 2026.63 170.555   3
   8 -10  -3 1697.58 120.043   6
  -8 -10   3 1721.57 89.2819   5
   8  10  -3 1806.81 168.099   6
  -7 -10   3 781.794 95.2067   1
   7 -10  -3 902.910 122.943   3
   7 -10  -3 831.468 83.3933   6
  -7 -10   3 739.139 60.6031   5
   7  10  -3 1018.46 127.562   6
  -7  10   3 945.792 83.5193   6
   6 -10  -3 5885.54 247.248   3
  -6 -10   3 6077.15 225.472   1
  -6  10   3 5923.36 223.634   5
   6 -10  -3 6134.51 181.117   6
   6  10  -3 6321.40 248.209   6
  -6  10   3 6254.10 173.284   6
   5 -10  -3 15493.4 285.421   6
  -5  10   3 15082.7 359.973   5
   5  10  -3 14739.9 377.586   6
   5 -10  -3 15048.9 390.233   3
  -5  10   3 15270.4 271.538   6
  -5 -10   3 15245.0 371.732   1
   4 -10  -3 34736.2 637.936   3
  -4  10   3 34704.3 608.592   5
   4  10  -3 34481.1 615.615   6
  -4 -10   3 34750.3 631.532   1
  -4  10   3 34389.5 475.150   6
   4 -10  -3 33462.5 481.419   6
  -4 -10   3 35057.5 611.852   6
  -3  10   3 89.4814 19.0788   6
   3 -10  -3 110.885 76.3038   3
  -3 -10   3 167.334 67.4062   1
   3 -10  -3 78.0290 18.6839   6
   3  10  -3 216.458 69.2020   6
  -3  10   3 134.499 73.3577   5
  -3  10   3 140.573 59.7427   2
  -3 -10   3 114.973 64.8908   6
   3  10  -3 149.996 48.7069   5
   2 -10  -3 33143.5 566.556   3
  -2  10   3 33571.6 576.399   2
   2 -10  -3 33242.2 563.487   5
  -2  10   3 32748.2 558.515   5
   2 -10  -3 29398.0 392.194   6
   2  10  -3 32601.5 541.899   6
  -2 -10   3 34128.9 588.455   1
  -2 -10   3 33644.4 541.824   6
  -1  10   3 1252.73 100.126   3
   1 -10  -3 1106.57 107.738   5
  -1  10   3 1275.82 104.617   2
   1 -10  -3 1069.98 49.9615   6
  -1 -10   3 1118.45 95.4009   2
   1  10  -3 998.551 87.0661   6
  -1 -10   3 1087.43 103.635   1
  -1 -10   3 1312.00 93.0554   6
   1 -10  -3 1167.26 50.4425   6
   0 -10   3 2090.03 117.872   6
   0  10   3 1652.10 105.259   3
   0 -10  -3 1995.37 132.804   5
   0 -10  -3 1728.89 75.3684   6
   0 -10  -3 1738.38 77.5278   6
   0 -10   3 1791.31 110.228   2
   0  10  -3 1785.15 108.370   6
   0 -10   3 1875.83 99.5136   4
   0 -10   3 1985.33 128.768   1
   0  10   3 1830.16 119.506   2
   1 -10   3 9388.65 243.754   6
   1  10   3 9137.29 233.372   3
  -1 -10  -3 9230.65 213.358   6
  -1 -10  -3 9058.66 216.904   6
   1  10   3 9315.53 205.819   4
  -1 -10  -3 9690.87 266.228   2
   1 -10   3 9479.47 237.594   4
   1  10   3 9023.23 256.018   2
   1 -10   3 8896.29 264.061   1
  -1  10  -3 9044.64 241.604   6
   1 -10   3 9079.31 224.999   2
   2  10   3 7665.10 207.541   3
   2 -10   3 7934.20 227.962   6
  -2 -10  -3 7591.37 215.422   6
  -2 -10  -3 7685.87 238.166   2
   2  10   3 7353.88 229.284   2
   2  10   3 7467.96 193.781   4
   2 -10   3 7865.80 242.762   1
   2 -10   3 7573.27 225.516   4
  -2 -10  -3 7161.03 211.881   6
   2 -10   3 7230.14 188.143   2
  -2  10  -3 7630.20 223.814   6
   3 -10   3 593.315 77.9819   1
  -3  10  -3 780.519 84.8468   6
  -3 -10  -3 678.742 84.8992   6
  -3  10  -3 683.502 82.6588   3
   3 -10   3 596.970 79.8537   6
  -3 -10  -3 645.644 83.3933   6
  -3 -10  -3 736.664 90.0919   2
   3 -10   3 739.818 61.9820   2
   3  10   3 594.191 79.0294   2
   3 -10   3 676.928 87.7652   4
  -4 -10  -3 2983.25 155.155   2
  -4  10  -3 2771.89 158.058   4
  -4  10  -3 3134.61 156.267   6
  -4  10  -3 3047.58 144.203   3
   4 -10   3 2949.90 145.511   1
   4 -10   3 2824.75 152.904   6
  -4 -10  -3 2858.89 166.647   6
   4  10   3 2989.17 152.591   2
  -4 -10  -3 3015.51 164.164   6
  -5  10  -3 1392.68 111.240   3
  -5  10  -3 1344.27 121.568   6
   5 -10   3 1403.41 105.834   1
  -5  10  -3 1214.85 68.6220   2
  -5 -10  -3 1525.52 140.776   6
  -5 -10  -3 1299.92 106.212   4
  -5  10  -3 1448.52 132.575   4
  -5 -10  -3 1517.38 125.658   2
   6 -10   3 6709.91 220.840   1
  -6  10  -3 7062.51 259.457   6
  -6 -10  -3 6641.26 285.691   6
  -6  10  -3 5789.65 147.973   2
  -6 -10  -3 6880.81 250.040   4
  -6  10  -3 6742.98 280.844   4
  -6 -10  -3 6726.93 243.466   2
  -7  10  -3 10953.2 347.785   6
  -7 -10  -3 11048.8 343.950   4
  -7 -10  -3 11382.8 391.458   6
  -7  10  -3 9453.66 191.564   2
  -7  10  -3 10712.2 377.933   4
   7  10   3 10923.7 320.787   1
   7 -10   3 10566.1 281.629   1
  -7 -10  -3 10881.3 325.331   2
  -8 -10  -3 972.656 118.661   2
  -8  10  -3 931.995 127.401   6
  -8 -10  -3 955.519 152.553   6
   8  10   3 1107.32 112.353   1
  -8 -10  -3 1009.11 137.005   4
  -8  10  -3 883.690 141.057   4
  -9 -10  -3 1189.62 129.832   2
   9  10   3 874.027 93.8927   1
  -9  10  -3 1018.85 136.946   6
  -9 -10  -3 1016.77 159.537   6
  -9 -10  -3 962.816 138.464   4
  -9  10  -3 834.235 148.864   4
 -10 -10  -3 341.909 100.207   2
 -10  10  -3 269.186 119.186   6
 -10 -10  -3 415.570 141.302   6
 -10 -10  -3 399.352 127.389   4
 -10  10  -3 401.412 130.694   4
 -11  10  -3 2345.44 213.371   6
 -11 -10  -3 2431.46 228.984   4
 -11 -10  -3 2665.47 256.345   6
 -11  10  -3 2645.75 248.401   4
 -12  10  -3 4762.72 302.818   6
 -12 -10  -3 4468.65 325.392   6
 -12 -10  -3 4349.72 295.457   4
 -12  10  -3 4510.83 322.023   4
 -13  10  -3-80.1147 130.066   6
 -13 -10  -3 261.599 155.331   4
  14 -11  -3 295.736 146.877   3
 -14 -11   3 640.902 161.717   2
  13 -11  -3 997.981 184.278   3
 -13  11   3 529.582 130.222   6
  13  11  -3 764.039 180.981   6
  12 -11  -3 4086.51 277.855   3
 -12  11   3 3767.81 231.134   6
  12  11  -3 3920.46 294.980   6
  11 -11  -3 2289.14 213.201   3
  11 -11  -3 2466.36 179.639   6
  11  11  -3 2734.71 233.587   6
  10  11  -3 1467.00 185.407   6
  10 -11  -3 1377.58 177.508   3
 -10 -11   3 1044.21 90.3462   5
 -10  11   3 1054.91 94.5132   1
  10 -11  -3 1166.54 124.611   6
   9 -11  -3 7787.40 266.192   6
   9 -11  -3 7747.63 328.517   3
  -9 -11   3 7056.01 200.322   5
   9  11  -3 7980.27 340.072   6
  -9  11   3 7781.68 244.060   1
   8 -11  -3 1492.20 157.983   3
  -8 -11   3 1257.76 83.0488   5
   8  11  -3 1414.51 159.234   6
  -8  11   3 1275.88 104.385   6
   8 -11  -3 1370.37 108.651   6
   7 -11  -3 4059.35 222.711   3
  -7 -11   3 3599.91 127.941   5
   7  11  -3 4103.95 225.258   6
  -7  11   3 3664.90 146.764   6
   7 -11  -3 3860.42 153.964   6
   6  11  -3 20532.2 481.579   6
   6 -11  -3 20638.4 493.261   3
   6 -11  -3 19801.1 363.499   6
  -6  11   3 19601.0 350.785   6
   5 -11  -3 359.894 99.3250   3
   5 -11  -3 489.086 50.6412   6
   5  11  -3 517.492 96.4876   6
  -5  11   3 450.654 44.4153   6
   4 -11  -3 25474.5 523.781   3
   4  11  -3 24945.8 499.462   6
  -4  11   3 24868.8 497.057   5
  -4 -11   3 25674.6 519.047   1
  -4 -11   3 25714.5 493.684   6
  -4  11   3 24395.0 345.710   6
   4 -11  -3 23838.5 350.137   6
  -3  11   3 19001.4 416.848   5
   3 -11  -3 19537.9 435.357   3
  -3  11   3 19627.6 435.159   2
   3  11  -3 19785.9 363.388   5
   3  11  -3 19095.3 408.271   6
  -3 -11   3 19643.8 440.656   1
  -3 -11   3 19789.5 408.438   6
  -2 -11   3 167.206 68.6373   1
  -2  11   3 409.160 77.0414   3
   2 -11  -3 142.665 70.8688   3
  -2 -11   3 106.461 73.9958   2
  -2  11   3 215.349 74.8672   5
   2  11  -3 190.967 69.0301   6
  -2 -11   3 259.974 66.5636   6
  -2  11   3 138.038 65.3873   2
  -1  11   3 8869.86 252.294   3
  -1  11   3 8809.78 263.361   2
  -1 -11   3 8354.54 245.512   2
   1 -11  -3 9420.43 268.241   5
   1 -11  -3 7936.33 151.983   6
  -1 -11   3 9026.09 273.261   1
   1  11  -3 9038.97 238.761   6
  -1 -11   3 8849.81 236.644   6
   1 -11  -3 8439.55 150.387   6
   0 -11   3 141565. 1821.29   6
   0  11   3 139939. 1840.37   3
   0 -11   3 137143. 1826.17   2
   0 -11  -3 135220. 1721.20   6
   0 -11  -3 138611. 1733.68   6
   0 -11  -3 140259. 1878.69   5
   0 -11   3 139503. 1791.98   4
   0 -11   3 141741. 1897.75   1
   0 -11  -3 138656. 1870.17   2
   0  11  -3 138624. 1820.83   6
   0  11   3 142385. 1875.23   2
   1  11   3 1539.99 114.330   2
   1 -11   3 1529.86 101.513   6
   1  11   3 1647.36 104.477   3
  -1 -11  -3 1714.96 89.8966   6
  -1 -11  -3 1646.40 125.584   2
  -1 -11  -3 1490.96 85.6653   6
  -1 -11  -3 1441.64 126.707   5
   1  11   3 1613.60 80.9671   4
   1 -11   3 1576.42 99.7458   2
   1 -11   3 1516.71 95.7572   4
   1 -11   3 1506.80 118.182   1
  -1  11  -3 1500.72 103.263   6
   2  11   3 24520.5 447.591   3
   2 -11   3 23949.4 458.002   6
  -2 -11  -3 24962.7 450.912   6
  -2 -11  -3 23701.0 486.820   2
  -2 -11  -3 23806.2 442.709   6
   2 -11   3 24016.0 489.196   1
   2  11   3 23475.9 407.070   4
   2 -11   3 23935.9 459.887   4
   2  11   3 23806.7 479.798   2
   2 -11   3 23040.9 418.101   2
  -2  11  -3 23641.7 453.981   6
  -3  11  -3 11504.7 294.198   6
  -3 -11  -3 10947.6 311.452   2
  -3  11  -3 11754.9 306.522   3
   3 -11   3 11517.9 300.811   6
  -3 -11  -3 11452.9 304.591   6
   3 -11   3 11622.2 250.458   2
   3  11   3 11131.8 306.140   2
  -3 -11  -3 11587.6 302.690   6
   3 -11   3 11725.7 313.370   1
  -4  11  -3 757.953 91.2753   6
  -4  11  -3 693.818 95.1885   3
   4 -11   3 788.380 92.4676   1
  -4 -11  -3 482.525 82.6101   2
   4 -11   3 799.668 96.7941   6
  -4 -11  -3 741.584 104.153   6
   4  11   3 576.358 89.3497   2
  -4  11  -3 810.865 106.877   4
  -5  11  -3 3885.25 175.237   3
  -5  11  -3 3704.25 180.219   6
   5 -11   3 3650.27 168.080   1
  -5  11  -3 3424.60 122.946   2
  -5 -11  -3 3318.06 196.451   6
  -5 -11  -3 3724.11 165.943   4
  -5  11  -3 3485.94 190.648   4
  -5 -11  -3 3995.51 188.565   2
  -6  11  -3 639.255 104.289   6
  -6 -11  -3 548.958 99.9105   2
  -6 -11  -3 571.620 125.702   6
   6 -11   3 519.951 78.4901   1
  -6 -11  -3 452.621 90.5099   4
  -6  11  -3 598.742 115.846   4
  -6  11  -3 517.007 54.7795   2
  -7  11  -3 7513.47 285.920   6
  -7 -11  -3 7087.24 315.006   6
  -7  11  -3 6573.77 165.100   2
   7  11   3 7416.50 269.470   1
  -7 -11  -3 7644.26 280.303   4
  -7  11  -3 7801.88 322.326   4
   7 -11   3 7172.53 238.381   1
  -7 -11  -3 7721.11 279.585   2
   8  11   3 6079.78 238.303   1
  -8  11  -3 6360.40 278.393   6
  -8 -11  -3 5726.31 301.396   6
  -8 -11  -3 5854.19 265.574   4
  -8  11  -3 6059.48 302.378   4
  -8 -11  -3 5912.74 252.134   2
  -9  11  -3 1888.76 176.252   6
   9  11   3 1831.93 129.031   1
  -9 -11  -3 1853.42 199.371   6
  -9 -11  -3 1858.43 169.880   4
  -9 -11  -3 2094.53 160.593   2
  -9  11  -3 2307.91 213.885   4
 -10  11  -3 5253.68 282.420   6
 -10 -11  -3 5326.94 321.776   6
 -10 -11  -3 5210.88 284.346   4
 -10  11  -3 4849.74 309.039   4
 -10 -11  -3 5061.83 245.565   2
 -11  11  -3 3943.42 268.754   6
 -11 -11  -3 4084.00 293.444   6
 -11 -11  -3 4268.96 280.064   4
 -11  11  -3 4074.95 300.782   4
 -12  11  -3 1727.10 205.845   6
 -12 -11  -3 1986.04 239.659   6
 -12  11  -3 1783.70 227.260   4
 -12 -11  -3 1784.78 212.953   4
 -13 -11  -3 2535.95 244.306   4
  14 -12  -3 312.908 169.093   3
 -14 -12   3-64.1786 139.046   2
  13 -12  -3 11415.8 477.413   3
 -13 -12   3 11034.1 462.395   2
  13  12  -3 11909.5 514.954   6
  12 -12  -3 4393.85 295.272   3
 -12  12   3 4610.99 250.229   6
  12  12  -3 5012.78 333.326   6
  11  12  -3 3278.40 250.932   6
  11 -12  -3 3653.57 260.701   3
 -11  12   3 3511.68 203.738   6
  10 -12  -3 33279.3 766.574   3
 -10  12   3 31706.9 566.117   1
 -10 -12   3 30787.8 540.767   5
  10  12  -3 32661.3 781.932   6
   9 -12  -3 442.633 85.7377   6
   9 -12  -3 483.763 125.527   3
  -9  12   3 530.076 85.8181   1
   9  12  -3 529.392 136.348   6
  -9 -12   3 543.180 72.6259   5
   8 -12  -3 19553.2 523.542   3
   8 -12  -3 20083.8 415.386   6
  -8 -12   3 18284.2 359.002   5
   8  12  -3 18794.3 525.786   6
  -8  12   3 18967.9 398.912   6
   7 -12  -3 34685.5 717.276   3
   7 -12  -3 34346.4 567.971   6
   7  12  -3 34133.8 704.838   6
  -7  12   3 33282.1 552.741   6
   6 -12  -3 3438.88 124.132   6
   6 -12  -3 3432.84 198.663   3
  -6  12   3 3384.40 115.521   6
   6  12  -3 3442.26 195.218   6
   5 -12  -3 81326.2 1044.61   6
   5 -12  -3 83173.2 1268.92   3
   5  12  -3 81593.7 1237.50   6
  -5  12   3 80396.8 1035.06   6
   4 -12  -3 11216.7 325.808   3
   4  12  -3 11040.0 301.479   6
   3  12  -3 1440.13 94.7980   5
   3 -12  -3 1605.29 131.672   3
  -3 -12   3 1571.52 127.068   2
  -3  12   3 1532.37 118.868   5
   3  12  -3 1366.19 113.707   6
  -3 -12   3 1552.61 111.379   6
  -2  12   3 99676.3 1424.16   3
  -2 -12   3 99809.0 1422.47   2
  -2  12   3 99776.5 1424.23   5
   2  12  -3 97965.1 1380.99   6
   2  12  -3 100082. 1359.91   5
  -2 -12   3 101304. 1381.68   6
  -1  12   3 57486.1 876.588   2
  -1  12   3 57293.4 859.269   3
   1 -12  -3 57041.8 873.858   5
  -1 -12   3 55821.4 846.930   2
   1  12  -3 56270.2 819.920   6
   1 -12  -3 51812.1 667.633   6
  -1 -12   3 57722.8 823.567   6
   0  12   3 66935.6 999.896   3
   0 -12  -3 65089.8 870.926   6
   0 -12   3 66182.5 1041.50   1
   0 -12  -3 67013.9 1032.36   5
   0 -12   3 66639.7 968.719   6
   0 -12   3 67447.7 939.716   4
   0 -12  -3 66411.8 880.979   6
   0  12  -3 66594.6 972.366   6
   0  12   3 67655.8 1030.06   2
   0 -12   3 66736.4 986.003   2
   0 -12  -3 66142.2 1023.61   2
  -1 -12  -3 113607. 1610.96   5
   1 -12   3 112073. 1617.45   1
   1 -12   3 115673. 1549.24   6
   1  12   3 115606. 1565.11   3
  -1  12  -3 113986. 1543.33   6
  -1 -12  -3 114567. 1485.45   6
  -1 -12  -3 113771. 1491.24   6
  -1 -12  -3 114909. 1607.55   2
   1  12   3 113250. 1460.84   4
   1  12   3 118973. 1612.83   2
   1 -12   3 114421. 1543.19   2
   1 -12   3 115514. 1531.07   4
   2  12   3 1790.92 114.001   3
   2 -12   3 1974.34 118.323   6
  -2 -12  -3 1952.09 139.827   2
  -2 -12  -3 1961.92 110.879   6
   2  12   3 2040.24 133.059   2
   2 -12   3 1899.28 132.176   1
  -2 -12  -3 1638.28 103.802   6
  -2 -12  -3 2091.06 150.650   5
   2  12   3 1778.73 89.3193   4
   2 -12   3 1951.37 116.149   4
  -2  12  -3 1690.68 110.136   6
   2 -12   3 1944.03 108.022   2
  -3  12  -3 89109.1 1270.23   6
  -3 -12  -3 89457.6 1324.13   2
  -3  12  -3 91116.7 1306.37   3
   3 -12   3 91000.2 1283.80   6
   3 -12   3 88371.4 1208.35   2
  -3 -12  -3 88437.6 1286.24   6
   3 -12   3 88431.4 1311.77   1
  -3 -12  -3 87517.7 1274.95   6
  -4  12  -3 40504.2 695.706   6
  -4 -12  -3 40119.6 730.742   2
  -4  12  -3 40761.9 711.187   3
   4 -12   3 39983.4 715.681   1
  -4 -12  -3 37798.1 718.613   6
  -4  12  -3 40050.9 716.562   4
  -5 -12  -3 25549.1 543.552   2
  -5  12  -3 24971.0 513.396   6
   5 -12   3 25376.6 519.220   1
  -5  12  -3 22248.3 414.299   2
  -5 -12  -3 22285.1 538.027   6
  -5  12  -3 25286.3 548.904   4
  -6  12  -3 46343.8 808.611   6
  -6 -12  -3 43453.5 855.430   6
  -6  12  -3 41772.7 657.526   2
  -6 -12  -3 44649.2 776.069   4
  -6  12  -3 47709.2 867.500   4
   6 -12   3 45322.1 781.669   1
  -6 -12  -3 46821.6 824.067   2
  -7  12  -3 22083.0 522.039   6
  -7 -12  -3 21668.0 578.257   6
  -7 -12  -3 21318.6 502.203   4
  -7  12  -3 22442.8 573.438   4
   7  12   3 22435.4 518.151   1
  -7 -12  -3 21598.5 517.514   2
   8  12   3 2006.75 145.760   1
  -8  12  -3 2223.77 171.364   6
  -8 -12  -3 2278.07 196.863   6
  -8 -12  -3 1993.20 160.613   4
  -8  12  -3 2135.51 193.529   4
  -8 -12  -3 2343.14 170.570   2
  -9  12  -3 9154.49 354.938   6
   9  12   3 9558.10 300.956   1
  -9 -12  -3 9359.78 403.266   6
  -9 -12  -3 9482.70 356.505   4
  -9  12  -3 9226.96 390.548   4
  -9 -12  -3 9445.65 337.890   2
 -10  12  -3 10778.2 403.571   6
 -10 -12  -3 10535.5 445.144   6
 -10 -12  -3 9869.46 389.516   4
 -10  12  -3 11040.6 450.920   4
 -10 -12  -3 10605.7 367.645   2
 -11 -12  -3 3272.17 246.726   4
 -11  12  -3 3320.32 244.571   6
 -11 -12  -3 3567.81 288.870   6
 -11  12  -3 3461.13 274.403   4
 -12  12  -3 12316.0 479.761   6
 -12 -12  -3 11303.5 460.448   4
 -13 -12  -3 2251.35 233.020   4
  14 -13  -3 3767.49 299.334   3
 -14 -13   3 3386.35 282.714   2
  13 -13  -3-193.828 151.384   3
 -13 -13   3 271.068 143.953   2
  13  13  -3 266.648 162.745   6
  12 -13  -3 2886.34 249.822   3
 -12  13   3 2575.50 191.532   6
 -12 -13   3 2530.89 227.719   2
  12  13  -3 2502.03 252.080   6
  11 -13  -3 5064.31 305.166   3
 -11  13   3 5010.17 237.652   6
  11  13  -3 4856.88 307.497   6
 -10  13   3 1618.75 118.352   1
  10 -13  -3 1794.49 192.368   3
 -10  13   3 1612.96 137.324   6
  10  13  -3 1376.41 184.419   6
   9  13  -3 11718.1 427.107   6
   9 -13  -3 11404.4 411.175   3
  -9  13   3 12024.5 320.068   6
  -9 -13   3 11389.0 276.409   5
  -9  13   3 11419.6 325.645   1
   8 -13  -3 7438.40 318.524   3
   8  13  -3 7172.35 310.416   6
  -8  13   3 6576.44 209.354   6
  -8  13   3 6732.86 253.553   1
   7 -13  -3 5836.94 271.577   3
   7  13  -3 5520.43 264.795   6
  -7  13   3 5599.45 168.919   6
   6 -13  -3 20963.7 519.139   3
  -6  13   3 20504.6 346.104   6
   6  13  -3 21043.6 500.643   6
  -6  13   3 20548.6 341.526   6
   5  13  -3 5194.59 226.082   6
   5 -13  -3 5569.33 247.395   3
  -5  13   3 4719.41 109.148   6
  -5  13   3 4944.26 110.399   6
   4 -13  -3 5496.40 234.183   3
  -4 -13   3 6000.77 244.169   2
   4  13  -3 5294.90 214.850   6
  -3 -13   3 45819.3 800.462   2
   3  13  -3 46301.9 719.109   5
   3  13  -3 44456.1 757.078   6
  -3 -13   3 46130.9 758.444   6
   2  13  -3 5657.68 193.826   5
  -2 -13   3 5531.59 217.020   2
   2  13  -3 5511.74 197.945   6
  -2 -13   3 5790.02 200.775   6
  -1  13   3 37305.3 626.451   3
   1 -13  -3 37453.5 640.207   5
  -1 -13   3 36760.1 615.072   2
   1  13  -3 36395.5 581.900   6
  -1 -13   3 37216.4 581.795   6
   0 -13   3 50177.0 777.747   6
   0  13   3 50786.3 820.722   3
   0 -13  -3 49100.6 675.943   6
   0 -13  -3 51277.7 689.323   6
   0 -13  -3 48942.6 835.847   2
   0 -13  -3 49381.1 842.900   5
   0 -13   3 50808.4 745.404   4
   0 -13   3 49809.9 800.291   2
   0  13  -3 49459.6 778.214   6
   1 -13   3 3139.22 142.589   6
   1  13   3 2958.59 151.131   3
  -1 -13  -3 2838.99 113.523   6
  -1 -13  -3 3157.96 171.846   2
  -1 -13  -3 2867.52 171.630   5
  -1 -13  -3 2801.23 113.148   6
   1  13   3 2883.97 101.942   4
   1 -13   3 2971.72 131.277   4
   1 -13   3 2740.38 136.894   2
  -1  13  -3 2808.06 135.809   6
   2 -13   3 23037.0 442.475   2
  -2 -13  -3 23365.5 515.174   5
  -2 -13  -3 23583.0 442.014   6
   2  13   3 24035.4 474.310   3
   2 -13   3 24090.9 464.934   6
  -2 -13  -3 23989.1 514.460   2
  -2 -13  -3 24214.8 448.908   6
   2  13   3 23084.9 397.848   4
   2 -13   3 24078.2 466.978   4
  -2  13  -3 23542.0 459.055   6
  -3 -13  -3 17262.4 426.586   2
   3 -13   3 17949.6 395.308   6
   3 -13   3 17270.3 352.814   2
  -3 -13  -3 17233.0 394.841   6
  -3 -13  -3 17481.8 388.329   6
  -3  13  -3 16679.5 380.417   6
  -4  13  -3 13526.4 339.198   6
  -4 -13  -3 13736.6 379.297   2
  -4 -13  -3 12505.9 356.156   6
  -4  13  -3 13086.4 351.996   4
  -5 -13  -3 67365.1 1068.11   2
  -5  13  -3 66046.2 1014.69   6
  -5  13  -3 58863.4 909.807   2
  -5 -13  -3 60473.5 1054.28   6
  -5  13  -3 67363.1 1062.06   4
  -6  13  -3 6907.51 258.892   6
  -6 -13  -3 6700.73 295.228   6
  -6  13  -3 6108.72 186.872   2
  -6  13  -3 6711.47 282.380   4
   6  13   3 6754.00 276.233   1
   6 -13   3 6111.52 242.894   1
  -6 -13  -3 6586.96 269.177   2
  -7  13  -3 3344.63 193.717   6
  -7 -13  -3 3518.15 234.652   6
  -7 -13  -3 2874.57 173.530   4
  -7  13  -3 3393.00 218.940   4
  -7 -13  -3 3315.51 202.795   2
   7  13   3 3530.17 199.595   1
   8  13   3 7079.17 275.036   1
  -8  13  -3 6768.94 286.594   6
  -8 -13  -3 7045.13 336.057   6
  -8 -13  -3 6568.86 275.985   4
  -8  13  -3 6892.74 323.506   4
  -8 -13  -3 7009.74 290.268   2
  -9 -13  -3 1108.49 133.377   2
  -9  13  -3 1375.49 152.801   6
   9  13   3 1162.39 115.961   1
  -9 -13  -3 1332.73 184.223   6
  -9 -13  -3 1282.78 145.790   4
  -9  13  -3 1059.29 166.492   4
 -10 -13  -3 347.209 105.257   2
 -10  13  -3 396.349 121.606   6
 -10 -13  -3 561.036 155.370   6
 -10  13  -3 367.015 135.909   4
 -10 -13  -3 427.455 116.302   4
 -11  13  -3 6732.93 373.231   4
 -11  13  -3 6701.28 337.989   6
 -11 -13  -3 7572.24 401.236   6
 -11 -13  -3 6459.89 329.933   4
 -12  13  -3 765.115 164.993   6
 -12 -13  -3 509.940 149.612   4
 -14 -14   3 231.890 155.365   2
  13 -14  -3 422.895 157.091   3
  13  14  -3 156.671 153.059   6
 -13 -14   3 272.409 143.909   2
  12 -14  -3 307.341 155.186   3
  12  14  -3-39.6962 143.093   6
 -12 -14   3 490.922 151.580   2
  11 -14  -3 152.859 123.661   3
 -11  14   3 38.4746 81.0017   6
 -11 -14   3 203.486 128.624   2
  11  14  -3 85.1423 131.766   6
  10 -14  -3 19.7956 119.206   3
 -10 -14   3 23.3891 106.680   2
  10  14  -3 211.656 129.388   6
 -10  14   3 2.21518 71.1025   6
   9 -14  -3 284.000 120.485   3
  -9  14   3 67.4429 61.1857   6
  -9 -14   3 260.639 66.6461   5
   9  14  -3 419.501 134.448   6
  -9  14   3 231.265 78.2188   1
   8 -14  -3 7982.72 336.463   3
  -8  14   3 7753.55 223.137   6
   8  14  -3 7717.15 329.072   6
  -8  14   3 7144.29 270.623   1
   7 -14  -3 346.858 113.843   3
  -7 -14   3 490.938 116.236   2
  -7  14   3 428.645 58.5734   6
  -7  14   3 288.810 51.2774   6
   7  14  -3 541.728 121.769   6
   6 -14  -3 2982.60 195.975   3
  -6  14   3 2833.22 96.1506   6
  -6 -14   3 2788.97 193.534   2
  -6  14   3 2987.46 94.4441   6
   6  14  -3 3319.27 195.073   6
   5  14  -3-115.627 75.2632   6
  -5  14   3 24.6148 11.9965   6
   5 -14  -3 62.4879 87.5575   3
  -5 -14   3 92.3367 87.0630   2
   4 -14  -3 1945.65 155.939   3
  -4 -14   3 2146.77 158.341   2
   4  14  -3 2129.82 146.716   6
  -3 -14   3 8529.17 290.132   2
   3  14  -3 8651.56 247.098   5
   3  14  -3 8308.59 264.226   6
  -2 -14   3 50.0615 66.9152   2
   2  14  -3 106.241 64.5316   6
   2  14  -3-11.4465 57.2429   5
  -2 -14   3-44.8371 50.6230   6
   1 -14  -3 7274.21 262.147   5
  -1 -14   3 7112.94 188.872   4
   1  14  -3 7121.65 225.942   6
  -1 -14   3 7010.85 247.258   2
  -1 -14   3 7328.22 225.994   6
   0 -14   3 2577.87 131.810   6
   0 -14  -3 2691.85 88.0953   6
   0 -14  -3 2773.95 169.023   5
   0  14   3 2532.88 150.298   3
   0 -14   3 2574.30 146.956   2
   0 -14  -3 2725.62 164.919   2
   0 -14   3 2577.59 115.985   4
   0 -14  -3 2596.88 87.5399   6
   0  14  -3 2696.38 134.977   6
   1 -14   3 2093.87 119.219   6
   1  14   3 2054.41 83.4153   4
   1  14   3 2127.66 134.825   3
  -1 -14  -3 2097.36 97.2277   6
  -1 -14  -3 1855.02 142.820   2
  -1 -14  -3 2050.91 155.832   5
   1 -14   3 2128.26 112.660   4
   1 -14   3 1893.33 122.100   2
  -1  14  -3 2102.97 120.221   6
  -1 -14  -3 2116.72 97.8539   6
   2 -14   3 2327.40 128.601   2
   2  14   3 2876.00 154.075   3
   2 -14   3 2730.51 139.036   6
  -2 -14  -3 2693.30 167.805   2
  -2 -14  -3 2830.51 132.985   6
  -2 -14  -3 2521.13 169.027   5
  -2 -14  -3 2405.44 123.058   6
   2 -14   3 2859.23 140.216   4
  -2  14  -3 2783.18 139.173   6
  -3  14  -3 912.042 90.9928   6
  -3 -14  -3 892.489 91.3139   6
   3 -14   3 952.310 97.2609   6
   3 -14   3 824.653 86.1596   2
  -3 -14  -3 860.350 93.1906   6
  -3 -14  -3 1019.32 119.999   2
  -3 -14  -3 904.205 121.195   5
  -4  14  -3 344.127 76.9487   6
  -4 -14  -3 376.553 90.4160   2
  -4 -14  -3 370.811 85.9012   6
  -5  14  -3 180.286 80.0283   6
  -5 -14  -3 186.548 99.2506   2
  -5 -14  -3 188.851 91.0145   6
  -5  14  -3 277.006 70.8380   2
  -5  14  -3 229.192 90.4818   4
  -6  14  -3 13390.5 371.981   6
  -6 -14  -3 12884.1 415.537   6
  -6  14  -3 12447.6 297.875   2
  -6  14  -3 14226.0 418.042   4
   6  14   3 13662.2 413.545   1
  -6 -14  -3 13465.4 404.277   2
  -7  14  -3 4936.09 261.579   4
  -7  14  -3 5524.16 245.225   6
  -7 -14  -3 5394.81 283.387   6
  -7 -14  -3 4960.29 220.483   4
  -7 -14  -3 5173.86 251.210   2
   7  14   3 5404.74 254.726   1
  -8  14  -3 1039.79 131.796   6
  -8 -14  -3 1157.13 140.611   2
  -8 -14  -3 1224.53 174.160   6
  -8 -14  -3 1178.45 130.710   4
  -8  14  -3 1351.92 166.606   4
   8  14   3 997.039 125.078   1
  -9  14  -3 48.5640 90.6590   6
  -9 -14  -3 132.707 96.0588   2
   9  14   3 34.6027 69.9813   1
  -9 -14  -3-63.2475 113.811   6
  -9 -14  -3 115.496 80.0713   4
  -9  14  -3 43.0844 111.283   4
 -10  14  -3 127.295 104.744   6
 -10 -14  -3 199.763 106.928   2
 -10 -14  -3 181.163 144.459   6
 -10 -14  -3 233.284 100.809   4
 -10  14  -3 422.866 147.135   4
 -11 -14  -3 161.823 117.230   4
 -11  14  -3 59.7576 120.781   6
 -11 -14  -3 503.703 165.308   6
 -11  14  -3 658.346 163.259   4
 -12  14  -3 217.653 134.156   6
 -12 -14  -3 388.262 146.127   4
  13 -15  -3-72.9444 144.526   3
 -13 -15   3 175.243 155.252   2
  12 -15  -3 3047.54 267.101   3
 -12 -15   3 3061.28 258.016   2
  12  15  -3 3254.46 276.479   6
  11  15  -3 5256.64 331.392   6
  11 -15  -3 6224.20 338.482   3
 -11 -15   3 5746.27 330.311   2
  10 -15  -3 613.174 158.070   3
 -10  15   3 316.187 82.1492   6
  10  15  -3 526.471 148.857   6
 -10 -15   3 234.747 120.699   2
  -9  15   3 7921.32 282.973   1
   9 -15  -3 7799.16 352.667   3
   9  15  -3 8546.21 374.446   6
  -9  15   3 8482.57 251.444   6
  -9 -15   3 8482.29 363.200   2
   8 -15  -3 16392.8 498.780   3
  -8  15   3 15756.5 332.296   6
  -8 -15   3 16186.3 492.686   2
   8  15  -3 15848.7 486.010   6
  -8  15   3 16201.8 431.798   1
   7 -15  -3 39673.6 818.399   3
  -7  15   3 38361.1 576.896   6
  -7 -15   3 39894.2 821.772   2
   7  15  -3 40418.1 809.740   6
  -7  15   3 38164.7 572.185   6
  -7  15   3 38722.4 756.789   1
   6 -15  -3 14421.0 431.853   3
  -6  15   3 12825.8 223.824   6
  -6 -15   3 14440.0 435.251   2
   6  15  -3 14125.3 406.546   6
  -6  15   3 13878.3 226.313   6
   5 -15  -3 3157.45 203.460   3
  -5 -15   3 2854.02 188.938   2
   5  15  -3 2921.67 178.531   6
  -4 -15   3 25294.7 569.071   2
   4  15  -3 24681.2 530.146   6
  -3 -15   3 48371.9 859.923   2
   3  15  -3 48429.3 781.693   5
   3  15  -3 48247.5 807.791   6
   2  15  -3 10002.0 283.556   5
  -2 -15   3 10066.0 313.702   2
   2  15  -3 9835.21 282.275   6
  -2 -15   3 9939.24 277.161   6
   1 -15  -3 43389.6 780.834   5
  -1 -15   3 42440.5 642.204   4
   1  15  -3 42857.8 709.406   6
  -1 -15   3 41934.1 753.879   2
  -1 -15   3 42937.6 707.968   6
   0 -15   3 18286.8 387.618   6
   0 -15  -3 17579.4 291.100   6
   0 -15  -3 19237.8 458.968   5
   0 -15  -3 18764.3 453.913   2
   0 -15  -3 18156.2 294.093   6
   0  15   3 18082.4 298.312   4
   0 -15   3 18829.0 426.622   2
   0 -15   3 18703.2 356.019   4
   0  15  -3 18384.9 390.246   6
   1 -15   3 897.506 99.0778   2
   1 -15   3 967.529 90.7687   6
  -1 -15  -3 990.915 72.0429   6
  -1 -15  -3 800.944 116.521   5
  -1 -15  -3 928.757 67.2195   6
   1  15   3 904.590 54.1582   4
  -1  15  -3 945.850 92.1816   6
  -1 -15  -3 1189.67 126.977   2
   1 -15   3 1037.76 84.3075   4
   2 -15   3 22997.9 464.908   2
   2 -15   3 23132.1 465.484   6
  -2 -15  -3 23651.8 536.722   2
  -2 -15  -3 23808.9 447.115   6
  -2 -15  -3 22666.4 528.779   5
  -2 -15  -3 23352.7 437.747   6
  -2  15  -3 23209.6 462.060   6
  -3 -15  -3 19791.2 495.282   5
  -3 -15  -3 20176.6 496.645   2
   3 -15   3 20854.0 442.383   6
   3 -15   3 20384.9 419.124   2
  -3 -15  -3 19628.4 436.977   6
  -3 -15  -3 20092.7 427.606   6
  -3  15  -3 19813.1 426.277   6
  -4 -15  -3 2441.65 171.608   2
  -4 -15  -3 1896.14 144.617   6
  -4 -15  -3 2222.51 177.883   5
  -4  15  -3 1956.70 130.887   6
  -5  15  -3 46925.2 793.094   6
  -5 -15  -3 46641.4 866.825   2
  -5  15  -3 42568.9 734.084   2
  -5 -15  -3 42922.8 832.511   6
  -5  15  -3 47406.0 833.376   4
   5  15   3 46495.4 885.888   1
  -6 -15  -3 10460.3 361.346   2
  -6  15  -3 10213.6 322.751   6
  -6  15  -3 10678.0 356.128   4
  -6 -15  -3 9794.16 361.687   6
   6  15   3 9953.63 358.626   1
   7  15   3 7032.73 296.482   1
  -7  15  -3 6800.19 274.799   6
  -7 -15  -3 7036.99 319.381   6
  -7  15  -3 6523.77 298.648   4
  -7 -15  -3 6727.18 295.356   2
  -8  15  -3 23150.2 622.717   4
  -8  15  -3 23711.4 570.897   6
   8  15   3 24381.0 578.294   1
  -8 -15  -3 23758.9 646.338   6
  -8 -15  -3 23238.2 545.790   4
  -8 -15  -3 24249.7 599.573   2
  -9  15  -3 1927.15 172.409   6
  -9 -15  -3 1723.41 172.552   2
  -9 -15  -3 1988.10 209.771   6
   9  15   3 1842.69 152.747   1
  -9 -15  -3 1949.33 165.320   4
  -9  15  -3 2137.71 206.880   4
 -10  15  -3 4439.30 259.661   6
 -10 -15  -3 5017.40 322.021   6
 -10 -15  -3 3713.50 232.141   4
 -10  15  -3 4287.51 288.888   4
 -10 -15  -3 4483.71 260.060   2
 -11  15  -3 11114.9 431.995   6
 -11 -15  -3 11341.5 490.714   6
 -11 -15  -3 9824.08 397.779   4
 -11  15  -3 10735.4 477.175   4
 -12  15  -3-92.6990 140.982   6
  13 -16  -3 5166.76 349.008   3
 -13 -16   3 5154.38 337.664   2
  12 -16  -3 3249.91 278.316   3
 -12 -16   3 3733.54 288.685   2
  12  16  -3 3376.49 286.046   6
  11 -16  -3 1262.43 192.867   3
  11  16  -3 1195.08 183.790   6
 -11 -16   3 1239.87 189.262   2
  10 -16  -3 14690.9 514.926   3
 -10 -16   3 14956.4 510.744   2
  10  16  -3 14022.8 504.908   6
  -9  16   3 1339.08 102.693   6
   9 -16  -3 1346.82 178.129   3
  -9 -16   3 1245.96 179.268   2
   9  16  -3 1301.85 177.108   6
  -9  16   3 1223.99 128.466   1
   8 -16  -3 18621.3 539.275   3
  -8  16   3 17430.0 341.029   6
  -8 -16   3 18216.4 539.166   2
   8  16  -3 18216.2 527.108   6
  -8  16   3 17626.1 466.878   1
   7 -16  -3 9206.62 361.742   3
  -7  16   3 8553.97 186.504   6
  -7 -16   3 8798.49 355.418   2
   7  16  -3 8981.54 350.897   6
  -7  16   3 9212.00 330.670   1
  -6 -16   3 265.805 105.389   2
  -6  16   3 167.978 16.8647   6
   6 -16  -3 144.092 96.6590   3
   6  16  -3 190.878 87.8793   6
  -5 -16   3 39881.8 798.411   2
   5  16  -3 39504.8 753.205   6
  -4 -16   3 22815.8 544.199   2
   4  16  -3 22193.6 499.305   6
   3  16  -3 1371.73 115.364   5
  -3 -16   3 1297.00 133.047   2
   3  16  -3 1385.41 121.341   6
   2  16  -3 30057.7 569.839   6
  -2 -16   3 30689.0 625.888   2
  -1 -16   3 7251.98 190.443   4
   1  16  -3 7385.00 233.962   6
  -1 -16   3 7235.34 264.109   2
  -1 -16   3 6912.50 225.531   6
   0 -16   3 6061.33 207.893   6
   0 -16  -3 6230.71 138.052   6
   0 -16  -3 6575.68 263.325   5
   0 -16  -3 6128.88 256.735   2
   0 -16  -3 6195.26 137.981   6
   0  16   3 5996.22 137.196   4
   0 -16   3 6072.43 235.575   2
   0 -16   3 6621.14 188.584   4
   0  16  -3 6315.14 212.399   6
   1 -16   3 48801.1 776.872   6
  -1 -16  -3 48184.3 697.668   6
  -1 -16  -3 48892.2 872.219   2
  -1 -16  -3 47671.3 865.960   5
   1 -16   3 48666.0 810.110   2
  -1 -16  -3 48645.0 698.007   6
   1  16   3 45342.3 644.501   4
   1 -16   3 49005.2 752.062   4
  -1  16  -3 48370.4 773.503   6
  -2 -16  -3 17264.0 359.587   6
   2 -16   3 17623.1 401.569   2
   2 -16   3 18086.7 396.649   6
  -2 -16  -3 17836.0 372.595   6
  -2 -16  -3 17034.9 454.561   2
  -2  16  -3 17284.9 384.582   6
  -2 -16  -3 17251.7 459.797   5
  -3 -16  -3 84976.2 1342.64   2
   3 -16   3 84530.9 1240.00   6
  -3 -16  -3 84180.3 1242.41   6
   3 -16   3 83655.5 1226.46   2
  -3 -16  -3 83158.1 1222.42   6
  -3  16  -3 84295.8 1228.06   6
  -3 -16  -3 85714.4 1344.72   5
  -4 -16  -3 34642.8 714.061   2
  -4 -16  -3 31565.3 647.658   6
  -4 -16  -3 34116.6 712.721   5
  -4  16  -3 34226.4 628.319   6
  -5  16  -3 2811.18 162.931   6
  -5 -16  -3 2844.04 193.922   2
  -5 -16  -3 2506.87 199.977   5
  -5  16  -3 2433.80 144.252   2
  -5 -16  -3 2569.41 181.767   6
  -5  16  -3 2533.83 168.783   4
   5  16   3 2869.16 203.750   1
  -6  16  -3 39816.8 740.583   6
  -6 -16  -3 39724.1 814.664   2
  -6 -16  -3 38819.0 811.124   6
  -6  16  -3 40207.1 792.296   4
   6  16   3 40133.1 826.344   1
  -7 -16  -3 10266.7 379.802   2
  -7  16  -3 11544.9 356.678   6
   7  16   3 10759.4 378.996   1
  -7 -16  -3 11318.0 412.867   6
  -7  16  -3 10893.3 387.038   4
  -8  16  -3 2516.91 181.911   6
   8  16   3 2570.21 183.670   1
  -8 -16  -3 2130.88 207.195   6
  -8  16  -3 2533.01 210.564   4
  -8 -16  -3 2810.90 206.263   2
  -9  16  -3 12715.4 417.943   6
  -9 -16  -3 12902.3 487.032   6
   9  16   3 12508.1 396.976   1
  -9 -16  -3 12370.5 395.042   4
  -9  16  -3 12358.2 463.638   4
  -9 -16  -3 13121.2 443.152   2
 -10 -16  -3 5873.98 302.311   2
 -10  16  -3 6556.08 315.067   6
 -10 -16  -3 6538.46 368.760   6
 -10 -16  -3 5939.47 289.510   4
 -10  16  -3 6429.70 349.065   4
 -11  16  -3 4118.12 273.012   6
 -11 -16  -3 4042.25 307.901   6
 -11  16  -3 4536.02 318.622   4
  12  17  -3 609.875 172.782   6
  12 -17  -3 643.565 180.916   3
 -12 -17   3 314.395 145.786   2
  11 -17  -3 678.951 173.451   3
  11  17  -3 965.083 182.966   6
 -11 -17   3 726.890 164.516   2
  10 -17  -3 36.2411 129.177   3
  10  17  -3 290.223 146.324   6
 -10 -17   3 162.709 124.006   2
  -9  17   3 3650.79 204.146   1
   9 -17  -3 3804.04 268.533   3
  -9 -17   3 3539.68 256.634   2
   9  17  -3 3359.46 246.186   6
  -8  17   3 4447.91 236.381   1
   8  17  -3 4997.91 277.169   6
   8 -17  -3 4692.60 282.944   3
  -8 -17   3 5169.54 290.772   2
  -7  17   3 72.0173 26.3604   6
   7  17  -3 187.115 116.257   6
  -7  17   3 92.8368 92.1004   1
  -7 -17   3 142.821 109.629   2
  -6  17   3 977.044 133.362   1
  -6 -17   3 1210.61 154.118   2
   6  17  -3 1133.09 134.962   6
  -5 -17   3 4297.04 241.192   2
   5  17  -3 4192.09 215.450   6
  -4 -17   3 280.806 100.896   2
   4  17  -3 385.603 87.5259   6
   3  17  -3 5168.74 216.911   6
  -3 -17   3 5292.42 247.226   2
  -2 -17   3 1133.56 75.3974   4
   2  17  -3 1153.54 113.604   6
  -2 -17   3 1333.78 138.701   2
  -1 -17   3 696.992 85.9793   6
   1  17  -3 517.606 76.9387   6
  -1 -17   3 595.476 100.565   2
  -1 -17   3 733.195 63.6988   4
   0 -17   3 5307.56 196.255   6
   0 -17  -3 5074.95 119.324   6
   0 -17  -3 5780.71 255.758   5
   0 -17  -3 5646.60 251.494   2
   0 -17  -3 5180.20 120.221   6
   0  17   3 4813.28 114.182   4
   0  17  -3 5505.50 201.852   6
   0 -17   3 5369.50 226.148   2
   0 -17   3 5508.66 170.704   4
   1 -17   3-19.5857 51.6224   6
   1 -17   3 5.29453 69.7156   2
  -1 -17  -3 38.8752 38.8659   6
  -1 -17  -3 7.86956 38.3966   6
  -1 -17  -3 18.9660 94.6966   5
  -1 -17  -3 61.7784 90.5883   2
  -1  17  -3 13.3134 59.6405   6
   2 -17   3 19958.1 447.912   2
   2 -17   3 19912.8 428.868   6
  -2 -17  -3 20099.3 510.060   5
  -2 -17  -3 19805.1 402.854   6
  -2 -17  -3 20474.2 516.708   2
  -2 -17  -3 19418.0 391.477   6
  -2  17  -3 20965.4 432.587   6
  -3 -17  -3 6813.61 227.758   6
  -3 -17  -3 7081.15 295.913   2
  -3 -17  -3 6694.51 238.327   6
   3 -17   3 7211.25 246.730   2
  -3 -17  -3 7140.80 295.359   5
  -3  17  -3 6724.00 232.929   6
  -4  17  -3 41.1097 68.4103   6
   4  17   3 146.629 100.872   1
  -4 -17  -3 153.152 85.6091   6
  -4 -17  -3 104.629 106.625   2
  -4 -17  -3 216.068 110.078   5
  -5  17  -3 692.802 96.5620   6
  -5 -17  -3 690.994 123.901   2
  -5 -17  -3 766.549 116.504   6
   5  17   3 824.237 131.997   1
  -5 -17  -3 748.857 144.785   5
  -6  17  -3 5973.75 243.994   6
  -6  17  -3 6264.66 272.758   4
  -6 -17  -3 6073.83 293.113   2
  -6 -17  -3 6023.60 286.936   6
  -6 -17  -3 6450.74 307.076   5
   6  17   3 6119.60 298.008   1
  -7  17  -3 962.082 115.625   6
  -7 -17  -3 1081.95 150.338   2
  -7 -17  -3 1090.67 154.882   6
  -7  17  -3 807.855 124.856   4
   7  17   3 908.514 136.827   1
  -8  17  -3 1872.36 161.791   6
   8  17   3 2014.58 172.313   1
  -8 -17  -3 1693.00 178.683   2
  -8 -17  -3 1953.89 196.761   6
  -8  17  -3 2070.50 192.105   4
  -9  17  -3-6.42046 96.3074   6
   9  17   3 142.331 96.6861   1
  -9 -17  -3 130.644 114.934   2
  -9 -17  -3 337.337 141.252   6
  -9  17  -3 177.215 124.859   4
 -10 -17  -3 3566.52 246.810   2
 -10  17  -3 4143.66 254.698   6
 -10 -17  -3 3868.85 291.976   6
 -10  17  -3 3965.52 280.978   4
 -11  17  -3 286.226 124.899   6
 -11 -17  -3 389.070 152.892   6
 -11  17  -3 110.788 134.984   4
  12  18  -3 2864.12 275.201   6
 -12 -18   3 2888.99 263.249   2
  11  18  -3 1382.60 218.369   6
 -11 -18   3 1750.93 210.363   2
 -10 -18   3 5677.66 326.256   2
  10  18  -3 5421.81 332.219   6
  -9  18   3 70.4720 86.7296   1
   9  18  -3 127.273 123.095   6
  -9 -18   3 322.869 155.460   2
  -8  18   3 12915.7 408.925   1
  -8 -18   3 13720.3 476.368   2
   8  18  -3 12989.8 454.253   6
  -7 -18   3 14266.8 470.685   2
   7  18  -3 14645.8 456.450   6
  -7  18   3 13793.6 434.204   1
  -6  18   3 1910.92 176.317   1
  -6 -18   3 1684.32 174.552   2
   6  18  -3 1887.76 161.575   6
  -5 -18   3 11669.5 401.510   2
  -5  18   3 11919.9 402.641   1
   5  18  -3 11486.6 361.883   6
  -4 -18   3 3070.38 207.235   2
   4  18  -3 2872.30 173.568   6
   3  18  -3 39.2359 76.6670   6
  -3 -18   3 160.024 101.117   2
   2  18  -3 45414.7 775.104   6
  -2 -18   3 45896.3 850.670   2
  -2 -18   3 44388.5 654.781   4
  -1 -18   3 10959.2 350.424   2
   1  18  -3 11284.2 308.979   6
  -1 -18   3 10868.9 240.873   4
   0 -18   3 11811.1 305.663   6
   0 -18  -3 10837.9 193.341   6
   0 -18  -3 12093.6 381.609   5
   0 -18  -3 12227.0 385.033   2
   0 -18  -3 10809.7 192.595   6
   0  18  -3 11618.2 307.048   6
   0 -18   3 11635.7 263.712   4
   0 -18   3 12005.8 354.738   2
   1 -18   3 8194.66 252.441   6
  -1 -18  -3 8313.92 199.813   6
  -1 -18  -3 7534.76 304.819   5
  -1 -18  -3 8358.36 319.068   2
  -1 -18  -3 8278.14 197.151   6
  -1  18  -3 8145.07 252.030   6
   1 -18   3 7920.37 279.230   2
   2 -18   3 1243.48 109.035   6
  -2 -18  -3 1489.35 103.307   6
   2 -18   3 1468.44 130.364   2
  -2 -18  -3 1476.05 156.606   5
  -2 -18  -3 1392.73 94.1906   6
  -2 -18  -3 1514.30 157.158   2
  -2  18  -3 1557.96 115.819   6
  -3 -18  -3 30651.9 683.859   2
  -3 -18  -3 30411.2 582.968   6
   3 -18   3 30822.2 601.384   2
  -3 -18  -3 30587.8 677.768   5
  -3 -18  -3 29369.7 560.111   6
   3  18   3 29992.5 712.279   1
  -3  18  -3 30473.8 573.444   6
  -4 -18  -3 26121.2 626.384   2
  -4 -18  -3 24687.0 550.509   6
  -4 -18  -3 25119.0 614.285   5
   4  18   3 25660.8 649.290   1
  -4  18  -3 25961.1 525.086   6
  -5  18  -3 369.128 90.1924   6
  -5 -18  -3 346.483 97.0679   6
  -5 -18  -3 143.229 103.184   2
  -5 -18  -3 309.521 130.296   5
   5  18   3 156.369 111.646   1
   6  18   3 8518.81 357.315   1
  -6 -18  -3 9149.46 361.298   2
  -6 -18  -3 8259.42 337.605   6
  -6 -18  -3 8809.74 363.383   5
  -6  18  -3 8256.78 317.629   4
  -6  18  -3 8568.59 294.873   6
  -7  18  -3 657.604 105.808   6
  -7 -18  -3 511.231 131.498   2
  -7 -18  -3 812.962 143.652   6
  -7 -18  -3 1012.98 154.978   5
  -7  18  -3 485.983 115.838   4
   7  18   3 644.280 124.029   1
  -8  18  -3 56.2248 83.0274   6
   8  18   3-21.2786 88.3714   1
  -8 -18  -3 148.822 112.160   2
  -8 -18  -3 101.869 111.442   6
  -8 -18  -3 51.1066 119.464   5
  -8  18  -3-83.0570 103.577   4
  -9 -18  -3 3375.24 247.492   2
  -9  18  -3 3355.58 216.979   6
  -9 -18  -3 3540.37 269.782   6
   9  18   3 3494.27 224.420   1
  -9 -18  -3 3521.83 263.163   5
  -9  18  -3 3390.68 247.279   4
 -10  18  -3 1696.85 176.333   6
 -10 -18  -3 1858.59 197.589   2
 -10 -18  -3 1798.23 220.200   6
 -10  18  -3 1897.76 216.025   4
 -11 -18  -3 1656.67 218.566   6
 -11  18  -3 1664.07 209.889   4
 -12 -19   3 6332.93 380.810   2
 -11 -19   3 8531.03 420.200   2
  11  19  -3 8687.65 428.915   6
  10  19  -3 234.188 140.406   6
 -10 -19   3 4.54944 130.277   2
  -9  19   3 10298.7 359.139   1
  -9 -19   3 9883.63 425.271   2
   9  19  -3 10542.8 432.204   6
  -8  19   3 16814.5 480.846   1
  -8 -19   3 16141.5 531.929   2
   8  19  -3 16281.5 520.157   6
  -7  19   3 5178.24 266.547   1
  -7 -19   3 4591.94 274.937   2
   7  19  -3 5242.08 282.562   6
   6  19  -3 33858.6 729.321   6
  -6 -19   3 34405.5 777.836   2
  -6  19   3 33747.7 755.024   1
  -5 -19   3 4111.91 251.485   2
   5  19  -3 3918.37 216.715   6
  -5  19   3 4587.71 261.967   1
  -4 -19   3 15782.0 470.597   2
   4  19  -3 15404.1 414.581   6
  -4  19   3 15421.0 479.960   1
  -3 -19   3 42272.3 840.979   2
   3  19  -3 42446.2 766.177   6
  -2 -19   3 46.0560 93.6657   2
  -2 -19   3 70.5632 33.9741   4
  -1 -19   3 23282.6 551.740   2
   1  19  -3 23252.8 484.866   6
  -1 -19   3 22411.1 390.901   4
   0 -19  -3 9261.17 166.689   6
   0 -19   3 10282.0 334.940   2
   0 -19  -3 10537.8 362.486   2
   0  19  -3 10611.0 292.302   6
   1 -19   3 11796.1 315.866   6
  -1 -19  -3 12233.4 252.764   6
  -1 -19  -3 11378.7 388.266   5
  -1 -19  -3 11858.6 396.397   2
  -1 -19  -3 12089.7 248.513   6
  -1  19  -3 12271.2 318.719   6
   1 -19   3 12241.0 362.447   2
   2 -19   3 51355.7 894.905   2
  -2 -19  -3 53272.5 807.925   6
  -2 -19  -3 52637.3 985.047   2
  -2 -19  -3 50472.2 965.376   5
  -2 -19  -3 51793.5 789.498   6
   2  19   3 50847.1 1020.59   1
  -2  19  -3 52002.9 844.879   6
  -3 -19  -3 37452.6 789.326   2
  -3 -19  -3 37218.0 667.985   6
   3 -19   3 37102.8 700.545   2
  -3 -19  -3 37733.2 789.902   5
  -3 -19  -3 36298.9 647.522   6
   3  19   3 35352.9 816.132   1
  -3  19  -3 36961.2 662.674   6
  -4 -19  -3 451.038 92.4618   6
  -4  19  -3 624.300 93.1098   6
   4  19   3 604.992 134.651   1
  -4 -19  -3 793.649 148.551   5
  -4 -19  -3 645.009 131.654   2
  -5 -19  -3 46196.4 929.292   2
  -5 -19  -3 43460.8 848.954   6
  -5 -19  -3 45513.2 918.940   5
  -5  19  -3 45891.8 799.168   6
   5  19   3 44691.8 942.707   1
   6  19   3 5041.10 278.930   1
  -6 -19  -3 5062.79 280.567   2
  -6 -19  -3 4927.46 261.703   6
  -6 -19  -3 4890.55 278.435   5
  -6  19  -3 4958.10 224.082   6
  -7 -19  -3 4738.46 277.523   2
   7  19   3 4644.49 269.963   1
  -7 -19  -3 4850.92 275.242   6
  -7 -19  -3 4674.44 281.312   5
  -7  19  -3 4510.60 251.314   4
  -7  19  -3 5004.65 233.981   6
  -8  19  -3 11953.0 381.101   6
  -8 -19  -3 11143.5 430.468   2
  -8 -19  -3 11953.9 450.313   6
   8  19   3 11901.9 420.751   1
  -8  19  -3 11343.3 419.310   4
  -8 -19  -3 10425.4 431.498   5
  -9  19  -3 1201.46 150.156   6
  -9 -19  -3 1254.03 175.086   2
  -9 -19  -3 865.053 169.364   6
  -9 -19  -3 800.120 167.893   5
  -9  19  -3 1145.36 173.748   4
 -10 -19  -3 12434.8 467.212   2
 -10 -19  -3 12062.3 496.720   6
 -10 -19  -3 11934.6 479.926   5
 -10  19  -3 12440.0 487.368   4
 -11  19  -3 6953.20 385.856   4
 -11 -19  -3 7027.73 383.095   5
 -11 -20   3 1390.29 212.478   2
  11  20  -3 1258.08 203.501   6
  10  20  -3 4770.07 319.272   6
 -10 -20   3 5091.19 324.760   2
  -9  20   3 407.389 110.732   1
   9  20  -3 578.355 148.423   6
  -9 -20   3 342.156 144.958   2
  -8  20   3 5404.29 274.733   1
  -8 -20   3 5359.88 315.678   2
   8  20  -3 5458.35 299.646   6
   7  20  -3 5643.97 290.073   6
  -7  20   3 5386.33 278.877   1
  -7 -20   3 5570.48 306.548   2
   6  20  -3 835.819 131.540   6
  -6  20   3 1112.93 153.991   1
  -6 -20   3 610.274 141.587   2
  -5 -20   3 14474.3 474.300   2
   5  20  -3 14552.9 425.310   6
  -5  20   3 13683.7 459.140   1
   4  20  -3 1395.65 140.974   6
  -4 -20   3 1049.42 148.425   2
  -4  20   3 1385.54 159.206   1
  -3 -20   3 697.912 130.397   2
  -3  20   3 599.029 124.433   1
   3  20  -3 792.261 105.823   6
  -3 -20   3 653.553 53.4122   4
   2  20  -3 18658.7 431.745   6
  -2 -20   3 17987.4 495.569   2
  -2 -20   3 16818.9 304.280   4
  -2  20   3 17027.8 525.004   1
   1  20  -3 5468.19 215.375   6
  -1 -20   3 5143.66 252.596   2
  -1  20   3 5309.83 288.315   1
  -1 -20   3 4824.99 146.810   4
   0 -20  -3 13687.4 424.430   2
   0  20  -3 12781.9 325.420   6
   0  20   3 12266.5 440.185   1
   0 -20   3 12798.7 382.844   2
   1  20   3 21395.6 610.796   1
   1 -20   3 22722.0 536.053   2
  -1 -20  -3 22390.2 380.892   6
  -1 -20  -3 21434.2 566.094   5
  -1 -20  -3 23060.2 585.418   2
  -1 -20  -3 22383.8 377.393   6
  -1  20  -3 22786.5 471.673   6
   2 -20   3 7791.79 288.286   2
  -2 -20  -3 8106.96 231.788   6
  -2 -20  -3 7730.24 334.841   2
  -2 -20  -3 7675.31 329.397   5
  -2 -20  -3 7665.62 220.350   6
  -2  20  -3 8156.93 258.108   6
   2  20   3 7767.11 353.948   1
  -3 -20  -3 5807.62 292.587   2
  -3 -20  -3 5631.73 217.114   6
   3 -20   3 5662.14 245.872   2
  -3 -20  -3 5647.24 286.944   5
  -3  20  -3 6019.73 223.816   6
   3  20   3 5716.83 304.222   1
  -4 -20  -3 6537.01 313.468   2
  -4 -20  -3 6068.50 249.189   6
  -4 -20  -3 6654.93 312.773   5
  -4  20  -3 6353.07 233.611   6
   4  20   3 6511.69 326.530   1
  -5 -20  -3-26.1062 110.226   5
  -5 -20  -3 11.8577 82.6251   6
  -5 -20  -3 92.2282 112.963   2
   5  20   3 120.502 113.933   1
  -5  20  -3 33.9571 70.4840   6
  -6 -20  -3 10697.8 415.760   2
   6  20   3 9680.65 397.656   1
  -6 -20  -3 9581.86 365.891   6
  -6 -20  -3 9891.71 396.340   5
  -6  20  -3 9946.45 320.848   6
  -7 -20  -3 4961.50 294.670   2
   7  20   3 4939.06 281.158   1
  -7 -20  -3 5310.89 287.549   6
  -7 -20  -3 5266.60 302.366   5
  -7  20  -3 5553.23 246.499   6
  -8  20  -3 761.108 118.512   6
  -8 -20  -3 631.965 139.061   2
  -8 -20  -3 610.411 132.999   6
   8  20   3 461.561 120.062   1
  -8 -20  -3 830.559 166.743   5
  -8  20  -3 668.347 131.549   4
  -9 -20  -3 9136.70 401.710   2
  -9 -20  -3 8926.34 418.767   6
  -9 -20  -3 8782.32 408.758   5
  -9  20  -3 9282.37 397.934   4
 -10 -20  -3 567.620 157.727   2
 -10 -20  -3 1269.05 199.946   6
 -10 -20  -3 995.874 189.459   5
 -10  20  -3 771.870 156.592   4
 -11 -20  -3 4260.38 313.761   5
 -12  21   3 222.033 146.395   4
  11  21  -3 161.784 150.964   6
 -11 -21   3-11.4893 140.191   2
  10  21  -3-46.9563 134.174   6
  -9  21   3 1610.99 165.663   1
   9  21  -3 1485.55 194.030   6
  -9 -21   3 1760.44 214.214   2
  -8  21   3 1399.55 164.145   1
   8  21  -3 1531.31 184.592   6
  -8 -21   3 1217.24 186.269   2
   7  21  -3 336.303 120.985   6
  -7 -21   3 51.3204 112.656   2
  -7  21   3 362.665 121.088   1
   6  21  -3 24.6343 94.6980   6
  -6  21   3 220.865 114.670   1
  -6 -21   3-20.1487 108.809   2
  -5  21   3 1517.00 171.666   1
   5  21  -3 1443.52 147.305   6
  -5 -21   3 1862.33 189.289   2
   4  21  -3 5287.61 244.539   6
  -4 -21   3 5777.32 293.137   2
  -4  21   3 5067.69 283.570   1
  -3  21   3 1692.43 173.607   1
   3  21  -3 1734.30 137.215   6
  -3 -21   3 2008.75 185.284   2
  -2  21   3 305.014 119.315   1
   2  21  -3 545.258 94.8583   6
  -2 -21   3 400.793 115.486   2
  -1 -21   3 740.530 126.989   2
  -1  21   3 790.657 150.842   1
   1  21  -3 779.846 99.4709   6
   0 -21   3 1148.55 134.879   2
   0  21   3 823.135 147.101   1
   0  21  -3 1055.12 108.781   6
   0 -21  -3 1229.28 155.746   2
  -1 -21  -3 483.259 57.6894   6
   1 -21   3 498.288 122.838   2
  -1 -21  -3 387.879 136.560   5
   1  21   3 429.671 132.637   1
  -1 -21  -3 571.824 150.982   2
  -1  21  -3 349.172 85.1051   6
   2 -21   3 7804.20 297.373   2
  -2 -21  -3 7877.17 227.369   6
  -2 -21  -3 8057.06 345.562   2
  -2 -21  -3 7184.43 326.697   5
  -2  21  -3 8241.58 262.294   6
   2  21   3 7338.60 352.494   1
  -3 -21  -3 4627.42 270.680   2
  -3 -21  -3 4056.57 185.562   6
  -3 -21  -3 4312.61 261.086   5
   3 -21   3 4554.35 226.612   2
  -3  21  -3 4242.03 190.680   6
   3  21   3 4168.96 269.396   1
  -4 -21  -3 186.886 78.1350   6
  -4 -21  -3 233.098 123.749   5
  -4 -21  -3 413.847 133.006   2
   4  21   3 529.754 145.250   1
  -4  21  -3 104.554 69.0983   6
  -5 -21  -3 679.659 111.843   6
  -5 -21  -3 676.989 142.560   2
  -5 -21  -3 549.212 137.149   5
   5  21   3 659.901 138.648   1
  -5  21  -3 702.267 103.144   6
   6  21   3 353.931 122.318   1
  -6 -21  -3 295.996 97.4492   6
  -6 -21  -3 313.549 127.964   2
  -6 -21  -3 206.280 127.649   5
  -6  21  -3 492.724 100.689   6
  -7  21  -3 1222.78 130.304   6
  -7 -21  -3 990.157 170.554   5
   7  21   3 1257.56 168.523   1
  -7 -21  -3 1232.76 163.290   6
  -7 -21  -3 1109.08 172.994   2
  -8 -21  -3-24.4394 119.362   6
  -8 -21  -3-114.149 145.437   2
   8  21   3 61.3027 110.067   1
  -8 -21  -3 134.038 143.311   5
  -9 -21  -3 13.6652 146.612   5
  -9 -21  -3 255.573 134.092   6
  -9 -21  -3 189.873 132.695   2
  -9  21  -3 453.686 149.348   4
 -10 -21  -3-125.902 141.606   6
 -10 -21  -3-158.943 151.313   2
 -10  21  -3 225.615 138.689   4
 -10 -21  -3 295.795 147.098   5
  11  22  -3 825.696 187.931   6
 -11  22   3 484.974 157.053   4
 -10 -22   3 16770.7 602.082   2
  10  22  -3 15580.8 567.967   6
  -9  22   3 87.5068 101.795   1
  -9 -22   3 149.594 135.496   2
   9  22  -3 399.927 142.892   6
   8  22  -3 9395.01 401.484   6
  -8  22   3 8751.24 363.721   1
  -8 -22   3 9530.24 428.912   2
  -7  22   3 16389.6 519.344   1
   7  22  -3 17273.6 528.097   6
  -7 -22   3 17202.7 566.474   2
   6  22  -3 168.901 104.714   6
  -6 -22   3 13.3219 114.877   2
  -6  22   3-30.2114 91.6131   1
  -5  22   3 16798.5 531.492   1
   5  22  -3 16213.3 469.083   6
  -5 -22   3 16981.0 532.073   2
   4  22  -3 9265.94 325.315   6
  -4 -22   3 9403.96 385.543   2
  -4  22   3 9063.32 384.834   1
   3  22  -3 4277.45 213.568   6
  -3 -22   3 4136.28 261.041   2
  -3  22   3 4143.70 266.102   1
  -2 -22   3 26026.5 644.318   2
  -2  22   3 25622.3 691.492   1
   2  22  -3 26350.3 557.228   6
   1  22  -3 14358.6 373.929   6
  -1 -22   3 13999.8 442.372   2
  -1  22   3 14114.4 494.505   1
   0  22   3 2120.86 212.466   1
   0 -22  -3 2336.47 202.482   2
   0  22  -3 2078.42 143.459   6
   0 -22   3 2338.88 188.220   2
   1 -22   3 77410.2 1277.81   2
  -1 -22  -3 75401.3 1018.14   6
  -1 -22  -3 78979.9 1352.95   2
  -1  22  -3 79465.0 1170.67   6
   1  22   3 76429.8 1400.05   1
   2 -22   3 2290.29 178.942   2
  -2 -22  -3 2257.91 120.190   6
   2  22   3 2235.81 219.536   1
  -2 -22  -3 2250.49 202.063   2
  -2  22  -3 2249.41 143.905   6
  -2 -22  -3 2126.59 203.726   5
   3  22   3 29848.2 767.543   1
  -3 -22  -3 30088.7 580.664   6
  -3 -22  -3 31316.3 745.407   2
  -3 -22  -3 28832.3 712.967   5
   3 -22   3 29828.4 655.295   2
  -3  22  -3 30951.7 592.157   6
   4  22   3 25522.4 700.593   1
  -4 -22  -3 26147.3 675.263   5
  -4 -22  -3 25123.2 671.650   2
  -4 -22  -3 24411.5 551.199   6
  -4  22  -3 26870.6 541.982   6
  -5 -22  -3 207.118 138.579   5
  -5 -22  -3-6.53131 83.3151   6
  -5 -22  -3 49.9077 116.651   2
   5  22   3 124.701 120.402   1
  -5  22  -3-49.5864 70.6195   6
   6  22   3 1691.34 187.454   1
  -6 -22  -3 2098.43 180.954   6
  -6 -22  -3 1748.65 200.533   2
  -6 -22  -3 1722.71 191.491   5
  -6  22  -3 2025.24 148.137   6
  -7 -22  -3 6274.27 340.608   2
  -7 -22  -3 6190.01 311.810   6
   7  22   3 5631.09 315.674   1
  -7 -22  -3 6204.34 343.514   5
  -8 -22  -3 1255.69 178.106   6
  -8 -22  -3 1472.84 201.538   2
   8  22   3 1109.93 167.863   1
  -8 -22  -3 1448.08 209.502   5
  -9 -22  -3 5988.03 347.933   2
  -9 -22  -3 6286.90 351.911   6
  -9 -22  -3 6239.23 358.571   5
 -10 -22  -3 4256.96 314.082   6
 -10 -22  -3 4491.10 315.097   5
  10  23  -3 686.161 186.785   6
 -10 -23   3 233.919 145.273   2
   9  23  -3 6647.87 357.759   6
  -9  23   3 6133.96 303.965   1
  -9 -23   3 6714.19 378.429   2
  -8 -23   3 4844.77 317.433   2
  -8  23   3 4721.67 275.402   1
   8  23  -3 4318.43 280.127   6
  -7  23   3 67.3737 99.3788   1
   7  23  -3 76.1305 104.195   6
  -7 -23   3-152.370 147.313   2
  -6  23   3 10720.1 423.296   1
   6  23  -3 10328.4 391.257   6
  -6 -23   3 10367.4 434.759   2
  -5  23   3 9180.80 391.624   1
   5  23  -3 8829.05 341.568   6
  -5 -23   3 9400.00 405.649   2
  -4  23   3 7339.76 352.807   1
   4  23  -3 7067.07 288.827   6
  -4 -23   3 6944.28 337.862   2
   3  23  -3 11409.6 355.070   6
  -3 -23   3 10937.7 415.011   2
  -3  23   3 10710.5 433.395   1
  -2 -23   3 527.430 125.457   2
  -2  23   3 583.729 152.275   1
   2  23  -3 657.072 101.789   6
   1  23  -3 2719.18 163.878   6
  -1 -23   3 2558.34 205.224   2
  -1  23   3 2654.37 234.984   1
   0 -23   3 43927.9 885.321   2
   0 -23  -3 44601.8 931.738   2
   0  23  -3 45441.7 780.934   6
   0  23   3 41150.4 959.561   1
   1 -23   3 644.832 128.902   2
   1  23   3 1023.94 185.158   1
  -1 -23  -3 724.165 148.465   2
  -1  23  -3 729.767 98.3737   6
   2  23   3 30638.9 793.524   1
   2 -23   3 29723.9 677.427   2
  -2 -23  -3 30545.4 750.998   2
  -2 -23  -3 30780.9 744.068   5
  -2  23  -3 31763.4 600.962   6
   3  23   3 5658.50 324.328   1
  -3 -23  -3 6369.50 228.568   6
  -3 -23  -3 6104.72 322.874   2
  -3 -23  -3 6065.01 317.919   5
   3 -23   3 5771.01 270.389   2
  -3  23  -3 6355.68 234.052   6
   4  23   3 6339.03 344.000   1
  -4 -23  -3 6276.71 333.984   2
  -4 -23  -3 6220.69 252.475   6
  -4 -23  -3 6576.23 336.055   5
  -4  23  -3 6651.21 244.909   6
   5  23   3 15544.9 546.450   1
  -5 -23  -3 16333.5 544.695   2
  -5 -23  -3 16505.3 459.657   6
  -5 -23  -3 16712.3 542.335   5
  -6 -23  -3 3091.90 252.379   2
  -6 -23  -3 2720.00 238.234   5
   6  23   3 3328.74 257.493   1
  -6 -23  -3 3064.19 215.861   6
   7  23   3 1953.92 204.668   1
  -7 -23  -3 2096.22 196.016   6
  -7 -23  -3 2396.93 234.815   5
  -7 -23  -3 2201.70 226.376   2
  -8 -23  -3 22595.9 680.193   2
  -8 -23  -3 22601.0 650.276   6
   8  23   3 21570.5 645.779   1
  -8 -23  -3 22252.6 680.554   5
  -9 -23  -3 1168.18 190.847   6
  -9 -23  -3 700.299 169.738   2
  -9 -23  -3 681.484 176.527   5
 -10 -23  -3 2339.30 254.084   6
  10  24  -3 405.120 166.714   6
   9  24  -3 129.842 142.962   6
  -9 -24   3 0.45117 139.937   2
  -8  24   3 43.7977 107.856   1
   8  24  -3 241.669 133.880   6
  -8 -24   3-80.4002 141.415   2
  -7  24   3 114.160 113.968   1
   7  24  -3 136.839 114.452   6
  -7 -24   3-71.4650 132.168   2
  -6  24   3 61.7173 106.147   1
   6  24  -3-109.288 114.444   6
  -6 -24   3 21.3776 130.937   2
   5  24  -3 730.546 133.866   6
  -5  24   3 600.532 130.370   1
  -5 -24   3 548.675 153.349   2
   4  24  -3 30.7643 88.8219   6
  -4  24   3 253.196 111.577   1
  -4 -24   3 138.035 123.568   2
  -3 -24   3 463.334 136.094   2
   3  24  -3 607.543 108.578   6
  -3  24   3 261.650 116.940   1
  -2  24   3 3325.79 260.969   1
   2  24  -3 3359.89 187.252   6
  -2 -24   3 2997.92 230.082   2
  -1  24   3 7779.05 386.507   1
   1  24  -3 7930.64 277.733   6
  -1 -24   3 8286.29 353.463   2
   0 -24   3 247.664 118.181   2
   0  24   3 165.528 142.226   1
   0  24  -3 9.48963 77.1061   6
   0 -24  -3 94.6104 133.349   2
   1 -24   3 1015.53 140.437   2
   1  24   3 1227.10 188.926   1
  -1 -24  -3 1057.38 165.484   2
  -1  24  -3 1338.53 120.561   6
   2 -24   3 2884.87 208.631   2
  -2 -24  -3 2751.84 233.684   2
  -2  24  -3 2903.90 160.251   6
   2  24   3 2774.97 244.856   1
  -3 -24  -3-168.475 124.375   5
  -3 -24  -3 73.9462 109.867   2
   3 -24   3-258.930 117.116   2
  -3  24  -3 86.1174 74.5859   6
   3  24   3 46.4334 116.418   1
  -4 -24  -3 339.198 143.158   5
  -4 -24  -3 450.129 138.164   2
   4  24   3 399.948 141.665   1
   5  24   3 420.141 141.174   1
  -5 -24  -3 178.778 84.4113   6
  -5 -24  -3 463.197 149.155   5
  -5 -24  -3 288.322 131.070   2
   6  24   3 973.783 175.201   1
  -6 -24  -3 1257.43 152.179   6
  -6 -24  -3 1376.40 196.120   2
  -6 -24  -3 1170.55 184.404   5
  -7 -24  -3 3824.32 290.583   2
  -7 -24  -3 3576.67 246.498   6
  -7 -24  -3 3983.25 289.230   5
   7  24   3 3859.44 282.259   1
  -8 -24  -3 342.709 149.881   2
  -8 -24  -3 229.637 140.684   6
  -8 -24  -3 313.518 152.988   5
   8  24   3 276.520 149.323   1
  -9 -24  -3 46.7088 131.572   6
  -9 -24  -3 11.2356 156.360   5
  -9 -24  -3-67.6346 151.044   2
  10  25  -3 509.719 168.015   6
   9  25  -3 3627.75 286.057   6
  -8 -25   3 2231.10 235.979   2
  -8  25   3 1762.20 195.309   1
   8  25  -3 2019.95 213.453   6
  -7  25   3 1414.29 183.028   1
   7  25  -3 1159.89 170.559   6
  -7 -25   3 1035.35 188.602   2
  -6  25   3 4800.37 300.758   1
   6  25  -3 4630.42 269.999   6
  -6 -25   3 5158.05 327.291   2
   5  25  -3 1029.10 150.632   6
  -5 -25   3 1016.89 179.023   2
  -5  25   3 1252.82 174.187   1
  -4  25   3 3192.34 251.150   1
   4  25  -3 3532.86 214.719   6
  -4 -25   3 3862.81 277.503   2
  -3 -25   3 615.669 145.215   2
   3  25  -3 687.480 109.467   6
  -3  25   3 557.777 145.431   1
   2  25  -3 44.3950 79.5148   6
  -2 -25   3-47.5373 120.540   2
  -2  25   3 20.4997 118.440   1
  -1  25   3 9611.16 439.079   1
   1  25  -3 10968.7 331.450   6
  -1 -25   3 10312.3 406.736   2
   0  25   3 8460.54 411.467   1
   0 -25   3 8614.41 363.428   2
   0  25  -3 9397.00 297.189   6
  -1  25  -3 17.4002 67.5347   6
  -1 -25  -3 245.551 136.359   2
   1  25   3 130.330 140.814   1
   1 -25   3 257.172 111.126   2
   2  25   3 7600.84 393.021   1
   2 -25   3 7742.30 333.765   2
  -2 -25  -3 7195.20 365.999   2
   3  25   3 5735.05 347.209   1
  -3 -25  -3 5864.04 336.893   2
   3 -25   3 6361.66 299.443   2
   4  25   3 1160.41 182.416   1
  -4 -25  -3 1321.66 193.288   2
  -4 -25  -3 1315.57 190.512   5
   5  25   3 7721.82 393.840   1
  -5 -25  -3 7833.64 393.221   2
  -5 -25  -3 8448.98 401.122   5
  -6 -25  -3 1602.14 216.393   2
   6  25   3 1849.71 213.261   1
  -6 -25  -3 1447.87 208.711   5
   7  25   3 1463.27 203.326   1
  -7 -25  -3 1298.40 197.759   2
  -7 -25  -3 1342.65 206.105   5
  -8 -25  -3 11049.9 486.472   2
  -8 -25  -3 12256.7 499.944   5
   8  25   3 11386.2 478.956   1
   9  26  -3 1346.92 204.576   6
   8  26  -3 8858.83 409.366   6
  -8 -26   3 9279.78 463.799   2
  -7  26   3 11017.8 451.297   1
   7  26  -3 11355.6 444.756   6
  -7 -26   3 11198.9 489.651   2
   6  26  -3-1.12585 115.200   6
  -6  26   3 128.330 112.435   1
  -6 -26   3-53.0655 144.994   2
  -5  26   3 22465.0 671.689   1
   5  26  -3 23338.6 608.970   6
  -5 -26   3 23793.0 701.822   2
  -4  26   3 10091.6 442.402   1
  -4 -26   3 10767.0 453.298   2
   4  26  -3 10910.1 378.629   6
  -3  26   3 5809.45 343.080   1
   3  26  -3 6444.19 276.707   6
  -3 -26   3 6562.34 345.329   2
  -2  26   3 31454.6 837.462   1
   2  26  -3 32692.3 671.802   6
  -2 -26   3 33255.3 803.340   2
  -1 -26   3 15741.6 522.470   2
  -1  26   3 15398.4 570.350   1
   1  26  -3 16327.1 419.928   6
   0 -26   3 5545.50 300.315   2
   0  26   3 5432.37 341.862   1
   0  26  -3 5062.25 220.796   6
   1  26   3 18211.4 622.674   1
   1 -26   3 18553.9 551.848   2
  -1 -26  -3 19791.2 612.518   2
   2 -26   3 1940.41 189.413   2
  -2 -26  -3 1563.46 197.198   2
   2  26   3 1324.62 199.715   1
   3  26   3 10076.2 460.638   1
  -3 -26  -3 10751.5 455.401   2
   3 -26   3 10042.9 389.234   2
   4  26   3 11375.5 487.875   1
  -4 -26  -3 10837.9 470.761   2
  -4 -26  -3 11088.1 461.668   5
  -5 -26  -3 11.5179 131.114   2
   5  26   3 264.265 150.589   1
  -5 -26  -3-135.837 142.847   5
  -6 -26  -3 13284.4 529.527   2
  -6 -26  -3 12731.4 509.649   5
   6  26   3 12522.8 514.630   1
  -7 -26  -3 5972.15 363.893   2
  -7 -26  -3 6190.60 366.617   5
   7  26   3 6459.38 366.416   1
   8  26   3 662.924 177.723   1
   9  27  -3 778.424 185.491   6
   8  27  -3 2643.36 245.325   6
  -8  27   3 2219.36 225.555   1
  -7  27   3 1068.13 181.996   1
   7  27  -3 656.562 152.825   6
  -7 -27   3 767.382 183.748   2
  -6  27   3 3656.15 273.698   1
   6  27  -3 4477.78 278.007   6
  -6 -27   3 3734.07 299.452   2
  -5 -27   3 228.338 159.952   2
  -5  27   3 416.368 140.751   1
   5  27  -3 372.778 125.275   6
  -4 -27   3 426.732 161.506   2
  -4  27   3 456.326 136.692   1
   4  27  -3 610.829 123.113   6
  -3  27   3 12665.5 512.884   1
   3  27  -3 13401.4 410.135   6
  -3 -27   3 12745.0 494.037   2
  -2  27   3 154.097 141.437   1
  -2 -27   3 327.416 150.671   2
   2  27  -3 148.216 94.6260   6
  -1 -27   3 3793.71 269.854   2
  -1  27   3 3432.18 287.048   1
   0 -27   3 3425.50 252.772   2
   0  27   3 2903.53 268.829   1
   1  27   3 789.205 170.729   1
   1 -27   3 1031.36 159.528   2
  -1 -27  -3 1035.33 175.545   2
   2  27   3 3354.56 279.750   1
   2 -27   3 3277.93 237.879   2
  -2 -27  -3 3708.67 286.993   2
   3  27   3 2164.59 234.868   1
  -3 -27  -3 1409.88 203.337   2
   3 -27   3 1699.65 185.269   2
   4  27   3 1258.13 192.617   1
  -4 -27  -3 1387.55 203.680   2
  -5 -27  -3 6549.98 382.439   2
   5  27   3 6287.35 372.202   1
  -5 -27  -3 6662.87 376.834   5
   6  27   3 171.359 140.527   1
  -6 -27  -3 249.118 150.602   2
  -6 -27  -3 454.971 158.446   5
  -7 -27  -3 1551.17 232.226   5
   7  27   3 1493.83 201.404   1
   8  28  -3 1421.39 206.805   6
  -8  28   3 1285.46 189.945   1
   7  28  -3 106.403 129.813   6
  -7  28   3 107.153 121.954   1
  -6 -28   3 186.703 154.733   2
  -6  28   3 13.6187 121.906   1
   6  28  -3 96.4003 125.788   6
  -5 -28   3 425.810 153.269   2
   5  28  -3 710.496 134.241   6
  -5  28   3 527.093 139.401   1
  -4 -28   3 45.5027 142.749   2
  -4  28   3-140.339 125.970   1
  -3  28   3 1547.19 211.073   1
  -3 -28   3 1849.40 218.569   2
  -2  28   3 89.5715 126.064   1
  -2 -28   3-127.943 133.267   2
  -1 -28   3 3991.69 280.888   2
  -1  28   3 4176.87 318.794   1
   0  28   3 303.592 153.689   1
   0 -28   3 66.4463 131.021   2
   1  28   3 2721.36 261.317   1
   1 -28   3 2535.05 229.641   2
  -1 -28  -3 3317.92 273.217   2
   2  28   3 254.735 142.089   1
   2 -28   3 401.429 146.814   2
  -2 -28  -3 425.562 152.480   2
   3  28   3 2127.46 233.538   1
  -3 -28  -3 2161.45 236.581   2
   3 -28   3 2140.63 205.230   2
   4  28   3 201.871 136.801   1
  -4 -28  -3 19.6430 131.439   2
  -5 -28  -3 585.857 182.727   2
   5  28   3 478.502 157.941   1
  -6 -28  -3 1780.92 234.410   5
   6  28   3 1876.88 229.849   1
  -7  29   3 568.824 154.774   1
  -6  29   3 9593.04 444.240   1
  -5 -29   3 1385.33 217.352   2
  -5  29   3 1287.08 193.793   1
  -4  29   3 10138.1 465.547   1
  -4 -29   3 10810.3 476.721   2
  -3  29   3 6307.70 377.446   1
  -3 -29   3 6685.90 377.072   2
  -2  29   3 940.906 194.058   1
  -2 -29   3 1429.80 205.944   2
  -1 -29   3 7123.85 373.604   2
  -1  29   3 7160.85 410.727   1
   0 -29   3 7453.18 376.705   2
   0  29   3 7712.96 425.307   1
   1  29   3 423.022 163.987   1
   1 -29   3 863.148 170.495   2
   2 -29   3 10145.6 427.344   2
   2  29   3 10031.7 479.296   1
  -2 -29  -3 10127.4 468.004   2
   3  29   3 8305.31 436.812   1
  -3 -29  -3 7991.27 419.078   2
   4  29   3 1422.64 212.479   1
  -4 -29  -3 1881.35 242.312   2
  -7  30   3 6626.83 381.120   1
  -6  30   3 780.859 165.340   1
  -5  30   3 7369.65 401.494   1
  -4  30   3 3760.08 300.642   1
  -4 -30   3 4412.23 324.604   2
  -3 -30   3 23.8013 141.117   2
  -3  30   3 45.0645 139.556   1
  -2 -30   3 18827.9 634.807   2
  -2  30   3 18911.8 668.295   1
  -1 -30   3 4288.16 303.189   2
  -1  30   3 4357.46 326.521   1
   0  30   3 2081.07 244.462   1
   0 -30   3 2801.96 252.830   2
   1  30   3 5557.80 361.615   1
   1 -30   3 4716.50 311.852   2
   2  30   3 671.423 179.243   1
   2 -30   3 606.183 164.914   2
  -2 -30  -3 241.427 150.206   2
  -2 -31   3 79.5077 158.197   2
  -1 -31   3 922.792 186.378   2
   0 -31   3 73.4705 135.987   2
   1 -31   3-16.4790 145.440   2
   2 -31   3 85.2612 133.253   2
   0 -32   3 168.481 135.428   2
   1 -32   3 8622.91 428.992   2
   2 -32   3 145.828 139.601   2
  15   0  -4 5303.30 361.741   6
  14   0  -4 9682.43 456.758   6
  13   0  -4 207.248 144.016   6
  12   0  -4 19667.7 593.981   6
  11   0  -4 13246.8 451.672   6
  10   0  -4 13478.1 433.355   6
   9   0  -4 21227.2 527.842   6
   8   0  -4 962.567 124.248   6
  -7   0   4 46844.4 639.570   5
   7   0  -4 52708.0 840.554   6
   6   0  -4 10993.2 293.330   6
  -6   0   4 10799.3 281.965   6
   5   0  -4 2673.64 138.518   6
  -5   0   4 2730.25 136.036   6
   4   0  -4 35482.9 585.694   6
  -4   0   4 34836.9 575.060   6
   3   0  -4 165277. 2127.57   6
  -3   0   4 168527. 2125.42   6
   2   0  -4 45282.5 683.312   6
  -2   0   4 45222.8 681.609   6
  -1   0   4 218262. 2709.35   6
   1   0  -4 216906. 2712.76   6
   0   0  -4 49245.3 741.357   6
   0   0   4 49465.4 738.884   6
  -1   0  -4 7553.09 219.131   6
   1   0   4 8220.45 226.726   6
  -2   0  -4 358150. 4444.79   6
   2   0   4 354728. 4293.31   2
   2   0   4 375518. 4465.47   6
   2   0   4 371575. 4467.46   4
  -3   0  -4 130304. 1684.56   6
   3   0   4 136973. 1706.73   6
   3   0   4 133555. 1701.51   4
  -4   0  -4 34721.1 648.932   6
  -5   0  -4 58944.7 993.509   6
  -5   0  -4 60623.5 1011.42   4
  -6   0  -4 1526.76 143.211   6
  -6   0  -4 1339.34 141.474   4
  -7   0  -4 2482.72 187.631   6
  -7   0  -4 2417.99 192.225   4
  -8   0  -4 51558.8 978.650   6
  -8   0  -4 45757.8 962.506   4
  -9   0  -4 2518.36 209.945   6
  -9   0  -4 1976.75 201.841   4
 -10   0  -4 30293.1 772.574   6
 -10   0  -4 30521.5 794.488   4
 -11   0  -4 28872.7 778.595   6
 -11   0  -4 27845.7 783.821   4
 -12   0  -4 24.1445 131.479   6
 -12   0  -4 169.918 152.949   4
  15  -1  -4 1316.32 209.969   6
  14  -1  -4 1417.11 208.662   6
  14   1  -4 1152.26 190.055   6
  13  -1  -4 4214.61 292.272   6
  13   1  -4 4191.04 297.848   6
  12  -1  -4 431.796 136.770   6
  12   1  -4 553.186 140.929   6
  11  -1  -4 8710.80 361.705   6
  11   1  -4 8455.38 360.861   6
 -10  -1   4 6989.85 199.743   1
  10  -1  -4 8170.69 324.442   6
  10   1  -4 7924.98 326.421   6
   9  -1  -4 4028.06 221.978   6
   9   1  -4 3957.73 224.765   6
   8   1  -4 10660.0 344.180   6
   8  -1  -4 10645.3 338.724   6
  -7   1   4 20440.9 334.908   5
   7  -1  -4 22096.8 470.557   6
   7   1  -4 21175.7 472.292   6
  -6   1   4 369.611 36.1401   5
   6  -1  -4 347.456 77.8062   6
   6   1  -4 331.215 77.0371   6
  -6   1   4 291.587 68.5986   6
  -6  -1   4 508.446 79.1863   6
   5   1  -4 60551.2 931.939   6
  -5  -1   4 62897.3 928.483   6
  -5   1   4 62037.4 911.551   6
   5  -1  -4 61058.1 919.697   6
   4  -1  -4 27218.7 478.358   6
   4   1  -4 26563.4 488.858   6
  -4  -1   4 27576.5 486.015   6
  -4   1   4 27361.7 474.924   6
   3  -1  -4 1632.01 73.8377   5
   3   1  -4 2278.95 121.544   6
   3  -1  -4 1943.71 109.601   6
  -3  -1   4 1805.82 107.798   6
  -3   1   4 1718.60 98.9751   6
   2  -1  -4 83702.8 1148.64   6
   2   1  -4 85013.8 1163.49   6
  -2  -1   4 86079.2 1163.58   6
  -2   1   4 85639.3 1148.21   6
  -1  -1   4 53087.8 778.731   6
  -1   1   4 52596.5 769.720   6
   1   1  -4 54147.2 786.206   6
   1  -1  -4 53006.4 773.117   6
   0  -1  -4 78741.8 1101.41   6
   0  -1   4 80882.0 1113.30   6
   0   1   4 80666.9 1106.02   6
   0   1  -4 80939.9 1115.98   6
  -1   1  -4 48468.1 751.553   6
  -1  -1  -4 47436.6 742.285   6
   1  -1   4 49516.8 757.813   6
   1   1   4 50056.7 753.765   6
   2   1   4 1945.62 71.9289   2
  -2   1  -4 1894.35 121.180   6
  -2  -1  -4 2001.69 120.194   6
   2  -1   4 2014.53 122.507   6
   2   1   4 2113.32 127.444   6
   2  -1   4 1674.86 57.2636   2
   2   1   4 2427.29 130.900   4
   2  -1   4 2144.39 128.327   4
  -3   1  -4 14249.3 349.796   6
  -3  -1  -4 13935.7 347.710   6
   3  -1   4 15741.7 365.136   6
   3   1   4 15077.1 358.723   6
   3   1   4 13995.6 230.362   2
   3   1   4 15142.7 357.342   4
   3  -1   4 15267.7 361.915   4
  -4   1  -4 34152.0 638.307   6
  -4  -1  -4 34031.3 642.697   6
  -4   1  -4 34553.7 651.050   4
  -5   1  -4 4990.21 225.359   6
  -5  -1  -4 5092.87 225.272   6
  -5  -1  -4 5239.47 233.958   4
  -5   1  -4 4704.16 224.196   4
  -6   1  -4 19607.5 491.632   6
  -6  -1  -4 19604.7 496.228   6
  -6   1  -4 18992.3 503.890   4
  -6  -1  -4 19463.4 503.098   4
  -7   1  -4 5034.03 253.641   6
  -7  -1  -4 4756.54 248.866   6
  -7  -1  -4 4808.04 257.995   4
  -7   1  -4 4871.88 265.322   4
  -8   1  -4 682.630 140.521   6
  -8  -1  -4 753.896 136.505   6
  -8  -1  -4 564.664 138.957   4
  -8   1  -4 607.386 134.211   4
  -9   1  -4 6977.83 328.632   6
  -9  -1  -4 6919.13 332.488   6
  -9  -1  -4 6722.08 337.072   4
  -9   1  -4 6028.90 322.986   4
 -10   1  -4 3712.52 272.196   6
 -10  -1  -4 3706.31 269.518   6
 -10  -1  -4 4099.00 285.930   4
 -10   1  -4 3953.28 284.891   4
 -11   1  -4 3262.15 272.107   6
 -11  -1  -4 3516.80 276.807   6
 -11  -1  -4 3667.08 292.276   4
 -11   1  -4 3477.78 284.159   4
 -12   1  -4 7186.68 389.165   6
 -12  -1  -4 6862.96 389.547   6
 -12  -1  -4 7432.90 406.594   4
 -12   1  -4 7101.97 403.676   4
  15  -2  -4 78.4464 144.930   6
  14  -2  -4 1145.92 190.689   6
  14   2  -4 1170.05 207.627   6
  13   2  -4 201.743 138.831   6
  13  -2  -4 150.267 135.928   6
  12   2  -4 631.946 146.490   6
  12  -2  -4 223.016 110.319   6
  11  -2  -4 3826.87 242.456   6
  11   2  -4 3825.64 248.191   6
  10   2  -4 332.557 126.778   6
 -10  -2   4 109.277 55.9250   1
  10  -2  -4 367.685 126.706   6
   9  -2  -4 4228.50 220.830   6
   9   2  -4 4227.94 233.499   6
   8   2  -4 355.552 104.844   6
   8  -2  -4 305.345 87.4770   6
  -7   2   4 183.380 46.8987   5
   7  -2  -4 163.193 80.0498   6
   7   2  -4 206.448 91.2184   6
  -6   2   4 8309.09 180.675   5
   6  -2  -4 9020.83 261.166   6
   6   2  -4 9100.56 275.381   6
  -6   2   4 9240.65 252.080   6
   5  -2  -4 4010.00 164.078   6
   5   2  -4 4640.98 188.241   6
  -5  -2   4 4511.27 178.999   6
  -5   2   4 4357.86 163.692   6
   4  -2  -4 83488.5 1161.47   6
   4   2  -4 84256.1 1191.93   6
  -4  -2   4 84940.9 1184.92   6
  -4   2   4 85574.0 1158.52   6
   3  -2  -4 26052.8 405.573   5
   3   2  -4 26136.1 473.718   6
   3  -2  -4 26447.1 447.860   6
  -3  -2   4 26430.1 464.541   6
  -3   2   4 26572.5 445.317   6
  -2  -2   4 475.597 76.9517   6
  -2   2   4 446.188 65.5438   6
   2   2  -4 1023.62 101.807   6
   2  -2  -4 528.776 78.8373   6
   1  -2  -4 52.5058 52.8308   6
  -1  -2   4 56.8832 53.4550   6
  -1   2   4 56.3862 45.9196   6
   1   2  -4 48.5351 61.2437   6
   0  -2  -4 2328.79 114.886   6
   0  -2   4 2604.91 122.141   6
   0   2   4 2390.29 115.615   6
   0   2  -4 2269.26 121.214   6
  -1   2  -4 5339.68 183.534   6
  -1  -2  -4 5300.35 176.407   6
   1  -2   4 5239.32 180.629   6
   1   2   4 5336.80 180.744   6
   1   2   4 5141.33 140.418   2
   2   2   4 17810.5 298.149   2
  -2   2  -4 17525.9 379.987   6
  -2  -2  -4 17580.8 375.652   6
   2  -2   4 17714.1 386.838   6
   2   2   4 17990.9 385.253   6
   2   2   4 18413.5 383.372   4
   2  -2   4 18634.2 391.303   4
  -3   2  -4 259.604 71.4644   6
  -3   2  -4 202.855 23.7793   3
  -3  -2  -4 251.640 79.2888   6
   3  -2   4 149.876 66.0837   6
   3   2   4 387.163 75.2612   6
   3   2   4 251.600 37.9515   2
   3   2   4 422.897 75.8825   4
   3  -2   4 369.528 74.0817   4
  -4   2  -4 4537.41 197.287   6
  -4  -2  -4 4386.78 199.750   6
  -4   2  -4 4566.86 205.711   4
  -5   2  -4 3783.58 195.139   6
  -5  -2  -4 4360.58 211.141   6
  -5  -2  -4 3751.74 196.124   4
  -5   2  -4 3848.23 204.209   4
  -6   2  -4 200.080 91.5003   6
  -6  -2  -4 127.008 89.8196   6
  -6  -2  -4 191.167 96.1221   4
  -6   2  -4 334.601 105.662   4
  -7   2  -4 2280.61 179.257   6
  -7  -2  -4 2841.32 202.729   6
  -7  -2  -4 2337.62 79.9745   2
  -7   2  -4 2345.79 199.395   4
  -7  -2  -4 2672.06 195.437   4
  -8   2  -4 404.503 113.037   6
  -8  -2  -4 470.589 124.443   6
  -8  -2  -4 449.268 123.573   4
  -8   2  -4 388.530 124.021   4
  -9   2  -4 1015.11 155.716   6
  -9  -2  -4 748.802 141.089   6
  -9  -2  -4 826.327 151.662   4
  -9   2  -4 997.735 165.149   4
 -10   2  -4 1275.87 170.764   6
 -10  -2  -4 1464.82 190.423   6
 -10   2  -4 1553.61 197.058   4
 -10  -2  -4 1460.35 192.235   4
 -11   2  -4 1969.58 216.354   6
 -11  -2  -4 2088.48 231.320   6
 -11  -2  -4 1947.06 221.922   4
 -11   2  -4 1721.99 212.014   4
 -12   2  -4 85.3348 136.222   6
 -12  -2  -4 102.583 135.885   6
 -12  -2  -4 281.534 157.161   4
 -12   2  -4-113.462 147.616   4
  15  -3  -4 3024.78 278.878   3
  15  -3  -4 2840.79 274.791   6
  14  -3  -4 1305.72 197.753   6
  14   3  -4 1074.41 199.995   6
  13  -3  -4 16898.9 556.075   6
  13   3  -4 17021.9 589.731   6
  12  -3  -4 491.157 139.281   6
  12   3  -4 1031.13 175.127   6
  11   3  -4 8726.47 374.116   6
  11  -3  -4 8416.33 356.107   6
  10  -3  -4 42195.6 845.068   6
  10   3  -4 44879.5 899.837   6
  -9  -3   4 3471.65 150.393   1
   9  -3  -4 3916.43 215.572   6
   9   3  -4 4134.90 228.997   6
   8  -3  -4 32554.0 641.748   6
   8   3  -4 32847.1 677.439   6
  -7   3   4 24708.3 421.878   5
   7  -3  -4 26481.5 526.952   6
   7   3  -4 26590.0 551.219   6
  -6   3   4 447.964 54.6284   5
   6  -3  -4 759.710 94.5455   6
   6   3  -4 465.232 93.9334   6
  -6   3   4 507.228 76.7179   6
  -5   3   4 99310.2 1324.98   5
   5  -3  -4 104014. 1407.17   6
   5   3  -4 105811. 1453.84   6
  -5  -3   4 107615. 1444.79   6
  -5   3   4 106246. 1400.46   6
   4  -3  -4 107862. 1447.28   6
   4   3  -4 110712. 1498.09   6
  -4  -3   4 109854. 1488.55   6
  -4   3   4 109952. 1446.05   6
   3  -3  -4 21776.8 363.852   5
   3  -3  -4 21660.7 384.503   6
  -3  -3   4 22309.7 415.656   6
  -3   3   4 21886.4 383.257   6
   3   3  -4 21015.0 414.038   6
   2   3  -4 204593. 2588.01   6
   2  -3  -4 205300. 2547.44   6
  -2  -3   4 204655. 2587.24   6
  -2   3   4 205845. 2545.93   6
  -1  -3   4 21710.6 407.592   6
  -1   3   4 22189.6 384.527   6
   1   3  -4 22542.1 414.362   6
   1  -3  -4 21497.8 384.069   6
   0  -3  -4 217241. 2726.90   6
   0  -3   4 220945. 2756.79   6
   0   3   4 221123. 2733.63   6
   0   3  -4 217604. 2759.69   6
  -1   3  -4 222395. 2811.25   6
  -1  -3  -4 222056. 2678.67   3
  -1  -3  -4 218038. 2788.84   6
   1  -3   4 226702. 2818.82   6
   1   3   4 227673. 2801.09   6
   1   3   4 219958. 2735.54   2
   1  -3   4 224786. 2824.50   4
  -2   3  -4-1.27278 62.3945   6
   2   3   4 23.5764 35.4435   2
  -2  -3  -4 3.10078 58.6391   6
   2  -3   4 105.515 59.6391   6
   2   3   4 14.7694 56.5415   6
   2   3   4 60.2111 50.8858   4
   2  -3   4 10.5569 55.7430   4
   3   3   4 89866.1 1188.87   2
  -3   3  -4 92781.5 1154.58   3
  -3   3  -4 91364.1 1321.54   6
  -3  -3  -4 92036.2 1322.44   6
   3  -3   4 94986.5 1342.03   6
  -3  -3  -4 93984.4 1339.89   6
   3   3   4 92864.9 1321.22   4
   3  -3   4 94227.0 1341.25   4
  -4   3  -4 42341.7 748.360   6
  -4  -3  -4 42931.3 759.988   6
  -4   3  -4 43700.9 769.598   4
  -5   3  -4 1963.27 145.533   6
  -5  -3  -4 1743.09 148.074   6
  -5  -3  -4 1898.11 147.463   4
  -5   3  -4 2000.91 156.365   4
  -6   3  -4 48882.2 886.545   6
  -6  -3  -4 48132.0 897.152   6
  -6  -3  -4 48836.4 681.399   2
  -6  -3  -4 49526.4 898.471   4
  -6   3  -4 47736.6 912.060   4
  -7  -3  -4 39350.1 815.520   4
  -7   3  -4 41092.1 810.409   6
  -7  -3  -4 40030.6 818.361   6
  -7  -3  -4 39890.5 580.756   2
  -7   3  -4 37680.6 822.608   4
  -8   3  -4 7185.22 315.340   6
  -8  -3  -4 7454.21 330.952   6
  -8  -3  -4 7175.66 174.592   2
  -8  -3  -4 7289.32 328.206   4
  -8   3  -4 6159.20 315.015   4
  -9   3  -4 23268.4 623.454   6
  -9  -3  -4 24715.2 658.675   6
  -9  -3  -4 24072.8 650.243   4
  -9   3  -4 22133.6 646.905   4
 -10   3  -4 2329.16 224.220   6
 -10  -3  -4 1992.60 208.786   6
 -10  -3  -4 2527.99 232.960   4
 -10   3  -4 2390.88 233.821   4
 -11   3  -4 6914.81 361.737   6
 -11  -3  -4 6833.16 373.871   6
 -11  -3  -4 7046.71 379.428   4
 -11   3  -4 6723.21 374.668   4
 -12   3  -4 10918.8 477.435   6
 -12  -3  -4 11617.3 506.769   6
 -12  -3  -4 11221.6 501.888   4
 -12   3  -4 11185.0 502.796   4
  15  -4  -4 5392.39 348.955   6
  15  -4  -4 5307.84 344.238   3
  14   4  -4 7915.89 417.579   6
  14  -4  -4 7534.97 389.737   6
  14  -4  -4 7816.93 398.012   3
  13  -4  -4 64.7169 125.943   6
  13   4  -4 70.8072 143.214   6
  12  -4  -4 9420.77 385.202   6
  12   4  -4 9475.41 413.516   6
  11  -4  -4 8008.29 340.603   6
  11   4  -4 7720.15 355.743   6
  10  -4  -4 14505.4 435.291   6
  10   4  -4 14482.6 471.911   6
  -9  -4   4 27658.2 519.392   1
   9  -4  -4 29458.9 624.193   6
   9   4  -4 30422.7 668.982   6
   8   4  -4 2968.55 188.696   6
   8  -4  -4 2671.32 166.006   6
  -7   4   4 19065.3 364.414   5
   7  -4  -4 21218.4 447.162   6
   7   4  -4 19459.2 465.527   6
  -7   4   4 19876.6 422.668   6
  -6   4   4 44288.8 670.254   5
   6  -4  -4 47369.1 742.760   6
   6   4  -4 45181.2 786.131   6
  -6   4   4 47495.9 731.073   6
  -5   4   4 1249.89 78.7565   5
   5  -4  -4 1419.07 98.1699   6
   5   4  -4 1386.87 119.223   6
  -5  -4   4 1226.98 107.486   6
  -5   4   4 1401.26 93.3187   6
   4  -4  -4 56854.0 828.253   6
   4   4  -4 57542.6 888.329   6
  -4  -4   4 59020.4 881.710   6
  -4   4   4 58082.6 826.674   6
   3  -4  -4 95171.8 1256.08   5
   3   4  -4 95013.2 1315.07   6
  -3  -4   4 97692.1 1316.27   6
  -3   4   4 95843.0 1257.36   6
   3  -4  -4 94299.9 1257.66   6
  -2   4   4 17431.1 319.979   6
   2  -4  -4 17654.6 332.437   5
   2   4  -4 18010.2 363.698   6
   2  -4  -4 17838.2 325.042   6
  -2  -4   4 18035.6 359.363   6
  -1  -4   4 107170. 1414.81   6
  -1   4   4 103982. 1367.77   6
   1   4  -4 103239. 1411.07   6
   1  -4  -4 105502. 1371.74   6
   0  -4  -4 234363. 2910.44   3
   0  -4  -4 238137. 2955.81   6
   0  -4   4 246697. 2997.12   6
   0   4   4 239653. 2962.50   6
   0   4  -4 239336. 2996.82   6
  -1   4  -4 18857.6 389.503   6
  -1  -4  -4 18624.6 369.626   6
  -1  -4  -4 19240.3 301.703   3
   1  -4   4 19643.2 395.472   6
   1   4   4 19726.4 382.073   6
   1   4   4 18886.1 345.070   2
   1  -4   4 20128.0 402.003   4
  -2   4  -4 101719. 1424.23   6
  -2  -4  -4 98759.6 1406.74   6
   2  -4   4 105486. 1439.22   6
   2   4   4 106176. 1425.71   6
   2   4   4 104149. 1421.33   4
   2  -4   4 106186. 1443.40   4
   2   4   4 100506. 1335.01   2
  -3   4  -4 14175.5 352.046   6
  -3   4  -4 14744.8 253.069   3
  -3  -4  -4 13733.2 346.920   6
   3  -4   4 14391.4 357.316   6
  -3  -4  -4 14760.8 358.644   6
   3   4   4 14176.1 274.387   2
   3   4   4 14137.2 341.760   4
   3  -4   4 14867.2 364.285   4
  -4   4  -4 19347.9 439.077   6
  -4  -4  -4 19109.2 444.778   6
  -4   4  -4 19394.4 453.097   4
  -5  -4  -4 48664.9 859.172   4
  -5   4  -4 48622.5 853.107   6
  -5  -4  -4 48625.4 872.035   6
  -5   4  -4 49899.1 886.058   4
  -5  -4  -4 49337.7 705.415   2
  -6   4  -4 16432.5 441.150   6
  -6  -4  -4 16004.0 453.287   6
  -6  -4  -4 16601.1 312.152   2
  -6  -4  -4 16244.0 446.348   4
  -6   4  -4 16789.9 468.879   4
  -7   4  -4 39498.4 784.826   6
  -7  -4  -4 37890.5 582.842   2
  -7  -4  -4 37195.0 789.083   6
  -7  -4  -4 37640.2 784.475   4
  -7   4  -4 36296.0 800.414   4
  -8   4  -4 25714.1 628.616   6
  -8  -4  -4 25298.1 431.569   2
  -8  -4  -4 24876.4 645.758   6
  -8  -4  -4 25160.4 636.849   4
  -8   4  -4 22516.2 630.003   4
  -9   4  -4 485.704 134.931   6
  -9  -4  -4 486.996 147.118   6
  -9  -4  -4 546.599 144.534   4
  -9   4  -4 476.618 136.082   4
 -10   4  -4 13575.5 484.235   6
 -10  -4  -4 12621.3 489.685   6
 -10   4  -4 13110.1 505.753   4
 -10  -4  -4 12651.3 480.832   4
 -11   4  -4 13959.1 517.500   6
 -11  -4  -4 14230.2 533.998   6
 -11  -4  -4 13827.5 523.101   4
 -11   4  -4 14061.6 547.203   4
 -12   4  -4 365.922 156.629   6
 -12  -4  -4-96.9237 127.331   6
 -12  -4  -4 134.275 142.938   4
 -12   4  -4 97.7127 137.017   4
  15  -5  -4 415.048 167.637   3
  15  -5  -4-24.7039 134.967   6
  14  -5  -4 57.6153 149.224   3
  14  -5  -4 320.747 138.219   6
  14   5  -4 345.910 159.913   6
  13   5  -4 13.3593 130.581   6
  13  -5  -4 24.1458 124.274   6
  12  -5  -4 1156.20 165.356   6
  12   5  -4 806.226 159.513   6
  11  -5  -4 940.957 145.380   6
  11   5  -4 845.280 157.689   6
  10  -5  -4 455.603 110.204   6
  10   5  -4 554.544 140.964   6
  -9  -5   4 40.1983 60.1348   1
   9  -5  -4 229.328 95.2106   6
   9   5  -4 364.945 120.038   6
  -8  -5   4 3679.40 163.314   1
  -8   5   4 3911.65 157.729   5
   8  -5  -4 3758.99 188.021   6
   8   5  -4 3739.18 214.383   6
   7  -5  -4 4995.35 197.469   6
  -7   5   4 4305.39 159.085   5
   7   5  -4 4662.81 221.915   6
  -7   5   4 4893.15 186.657   6
  -6   5   4 2773.99 122.962   5
  -6   5   4 3001.13 135.880   6
   6   5  -4 3070.42 171.502   6
   6  -5  -4 3123.35 143.447   6
   5  -5  -4 4148.72 151.414   6
   5   5  -4 4527.44 187.273   6
  -5  -5   4 4385.05 178.295   6
  -5   5   4 4243.01 149.057   6
  -5   5   4 3750.83 136.132   5
   4  -5  -4 22496.0 397.374   6
   4   5  -4 22654.3 455.068   6
  -4  -5   4 23617.8 451.657   6
  -4   5   4 22466.9 392.594   6
   3  -5  -4 26453.2 452.279   5
   3   5  -4 27171.5 495.647   6
   3  -5  -4 26639.6 434.761   6
  -3  -5   4 27543.4 494.299   6
  -3   5   4 27085.0 435.329   6
   2  -5  -4 1973.85 108.357   5
  -2   5   4 2008.19 90.1524   6
   2   5  -4 1731.78 113.613   6
   2  -5  -4 1833.90 88.6241   6
  -2  -5   4 1958.28 112.670   6
  -1   5   4 13497.8 268.230   6
   1   5  -4 13138.8 303.545   6
   1  -5  -4 13422.7 268.472   6
   1  -5  -4 13534.7 278.025   3
  -1  -5   4 13074.1 301.077   6
   0   5  -4 1152.17 99.1392   6
   0  -5  -4 1091.94 84.9029   6
   0  -5  -4 1045.54 73.6696   3
   0  -5   4 1297.84 100.400   6
   0   5   4 1018.07 77.3934   6
   0   5   4 1089.47 86.2064   2
  -1   5  -4 6627.82 212.228   6
  -1  -5  -4 6323.74 191.720   6
   1  -5   4 7145.55 216.471   6
   1   5   4 6627.05 184.967   2
   1   5   4 6958.33 202.038   6
   1  -5   4 6665.17 210.530   4
  -2   5  -4 1431.08 108.658   6
  -2  -5  -4 1300.27 103.615   6
   2  -5   4 1252.17 105.152   6
   2  -5   4 1283.11 53.0126   2
   2   5   4 1276.37 97.8157   4
   2  -5   4 1410.87 109.366   4
   2   5   4 1408.07 83.5560   2
  -3   5  -4 12.5681 64.1938   6
  -3  -5  -4 50.8600 62.9394   6
  -3   5  -4 3.11953 36.6348   3
   3  -5   4 66.1730 66.4202   6
  -3  -5  -4 76.6024 60.0510   6
   3   5   4 68.1599 45.2149   2
   3   5   4 16.2304 52.0345   4
   3  -5   4 1.34701 62.7097   4
  -4   5  -4 9671.83 204.885   3
  -4   5  -4 9272.01 288.862   6
  -4  -5  -4 9678.21 301.153   6
   4   5   4 9230.76 221.176   2
  -4  -5  -4 9624.02 226.365   2
  -5   5  -4 3483.16 189.042   6
  -5  -5  -4 3171.82 190.169   6
  -5  -5  -4 3457.78 133.365   2
  -5  -5  -4 3583.21 187.421   4
  -5   5  -4 3448.67 199.759   4
  -6   5  -4 2328.11 169.754   6
  -6  -5  -4 2476.40 187.935   6
  -6  -5  -4 2446.49 113.580   2
  -6  -5  -4 2513.80 176.895   4
  -6   5  -4 2337.33 180.479   4
   7  -5   4 3549.26 140.894   1
  -7  -5  -4 3440.61 214.670   4
  -7   5  -4 3548.10 213.268   6
  -7  -5  -4 3735.76 143.888   2
  -7  -5  -4 3640.53 230.215   6
  -7   5  -4 3941.19 245.165   4
  -8   5  -4-10.6935 94.6642   6
  -8  -5  -4 136.061 121.521   6
  -8  -5  -4 104.625 54.5343   2
  -8  -5  -4 226.651 109.717   4
  -8   5  -4 134.867 122.304   4
  -9   5  -4 49.7332 103.571   6
  -9  -5  -4 384.992 129.591   6
  -9  -5  -4 97.7579 105.572   4
  -9   5  -4 206.969 124.383   4
 -10   5  -4 284.113 138.995   6
 -10  -5  -4 267.646 144.220   6
 -10  -5  -4 124.042 122.688   4
 -10   5  -4 289.097 141.429   4
 -11   5  -4 625.666 161.989   6
 -11  -5  -4 646.618 161.328   6
 -11  -5  -4 493.489 150.984   4
 -11   5  -4 657.666 174.250   4
 -12   5  -4 1135.66 182.058   6
 -12  -5  -4 624.690 172.461   6
 -12  -5  -4 660.913 156.363   4
 -12   5  -4 967.111 196.986   4
  15  -6  -4 1316.29 207.000   3
  15  -6  -4 1451.14 203.812   6
  14  -6  -4 2357.62 245.369   3
  14  -6  -4 2718.42 245.828   6
  14   6  -4 2730.05 274.686   6
  13  -6  -4 483.159 157.749   3
  13   6  -4 974.157 189.301   6
  13  -6  -4 543.485 153.964   6
  12  -6  -4 8617.38 365.860   6
  12   6  -4 8791.74 404.940   6
  12  -6  -4 8302.77 379.461   3
  11   6  -4 2981.34 232.178   6
  11  -6  -4 3144.00 212.248   6
  10  -6  -4 4335.24 231.029   6
  10   6  -4 4216.83 261.637   6
   9  -6  -4 19985.0 459.264   6
   9   6  -4 20126.7 514.783   6
  -9  -6   4 19086.7 392.593   1
  -8  -6   4 4671.54 189.606   1
   8   6  -4 5114.64 248.373   6
  -8   6   4 4610.16 181.185   5
   8  -6  -4 4970.42 213.555   6
  -7   6   4 6124.85 197.792   5
   7  -6  -4 6301.79 221.415   6
   7   6  -4 5998.18 252.243   6
  -7   6   4 6200.59 209.241   6
  -6   6   4 31704.8 549.295   5
   6   6  -4 33890.9 640.396   6
   6  -6  -4 33757.5 573.589   6
  -6   6   4 33847.4 559.336   6
  -5   6   4 295.537 63.2810   5
   5  -6  -4 256.667 54.6570   6
   5   6  -4 241.660 82.3400   6
  -5   6   4 319.210 56.6066   6
   4  -6  -4 28800.4 469.411   6
   4   6  -4 29547.1 545.573   6
  -4  -6   4 29253.9 538.039   6
  -4   6   4 29001.1 465.138   6
   3  -6  -4 65429.7 942.927   5
   3  -6  -4 66015.8 901.419   6
   3   6  -4 66975.3 986.742   6
  -3  -6   4 67644.9 984.307   6
  -3   6   4 66886.1 901.891   6
  -2   6   4 1529.05 79.0979   6
   2  -6  -4 1646.78 103.095   5
   2  -6  -4 1713.10 85.8038   6
   2   6  -4 1426.67 104.828   6
  -2  -6   4 1601.06 107.419   6
   2  -6  -4 1525.35 106.302   3
   1  -6  -4 66347.7 932.114   3
  -1   6   4 66232.9 903.650   6
   1   6  -4 64813.9 963.366   6
   1  -6  -4 66133.0 905.040   6
  -1  -6   4 67097.5 965.228   6
   0  -6  -4 159203. 2037.16   6
   0  -6   4 165782. 2096.87   6
   0  -6  -4 161179. 2028.40   3
   0   6   4 160016. 2044.24   6
   0   6   4 160942. 2075.50   2
   0   6  -4 162063. 2096.10   6
  -1   6  -4 79.7149 64.3216   6
   1  -6   4 87.7555 53.7847   6
  -1  -6  -4 95.0936 56.9262   6
   1   6   4 112.351 55.3779   6
   1   6   4 180.834 53.1623   2
   1  -6   4 98.3956 54.3088   4
  -2   6  -4 4711.21 184.004   6
  -2  -6  -4 4543.06 174.275   6
   2  -6   4 4945.87 189.126   6
  -2  -6  -4 4707.33 179.266   6
   2  -6   4 4791.66 112.950   2
   2   6   4 4684.67 174.287   4
   2  -6   4 5050.01 192.846   4
   2   6   4 4583.29 157.500   2
  -3   6  -4 13137.0 336.918   6
  -3   6  -4 13951.0 275.445   3
  -3  -6  -4 13535.4 342.659   6
  -3  -6  -4 13800.7 344.974   6
   3   6   4 13109.7 288.029   2
   3   6   4 13872.8 334.869   4
  -4   6  -4 8626.41 204.762   3
  -4   6  -4 8313.00 271.548   6
  -4  -6  -4 8530.79 283.603   6
   4   6   4 8381.88 220.384   2
  -4  -6  -4 8521.27 223.540   2
  -5   6  -4 16098.0 416.194   6
  -5  -6  -4 16293.1 436.315   6
  -5  -6  -4 16141.8 336.664   2
  -5   6  -4 16517.7 440.632   4
  -6   6  -4 1156.49 131.538   6
  -6  -6  -4 1151.03 92.1586   2
   6  -6   4 1016.05 86.5820   1
  -6  -6  -4 1369.39 153.162   6
  -6  -6  -4 1237.66 136.996   4
  -6   6  -4 1576.32 160.930   4
  -7   6  -4 2396.96 184.545   6
  -7  -6  -4 2221.82 122.968   2
  -7  -6  -4 2335.73 200.954   6
  -7  -6  -4 2126.29 181.953   4
   7  -6   4 2081.81 112.725   1
  -7   6  -4 2153.31 192.600   4
  -8  -6  -4 14360.1 333.423   2
  -8   6  -4 15287.7 461.274   6
  -8  -6  -4 16005.9 500.999   6
  -8  -6  -4 14701.1 462.404   4
  -8   6  -4 14050.5 481.573   4
  -9   6  -4 2452.23 210.307   6
  -9  -6  -4 2404.12 216.151   6
  -9  -6  -4 2052.31 196.313   4
  -9   6  -4 2022.97 214.990   4
 -10   6  -4 11413.9 442.344   6
 -10  -6  -4 11868.2 472.348   6
 -10  -6  -4 11947.7 460.763   4
 -10   6  -4 11490.2 474.393   4
 -11   6  -4 6405.20 349.889   6
 -11  -6  -4 6144.05 362.295   6
 -11  -6  -4 6616.82 360.203   4
 -11   6  -4 5902.86 355.658   4
 -12   6  -4 199.333 129.135   6
 -12  -6  -4 164.838 131.365   6
 -12  -6  -4-0.65603 131.985   4
 -12   6  -4 293.346 179.358   4
  15  -7  -4 659.709 192.912   3
  15  -7  -4 229.773 146.910   6
  14  -7  -4 343.487 158.289   3
  14  -7  -4 353.402 142.295   6
  14   7  -4 377.749 166.208   6
  13  -7  -4 16091.5 562.049   3
  13  -7  -4 16455.6 532.920   6
  13   7  -4 16963.6 604.042   6
  12  -7  -4 1447.53 167.830   6
  12   7  -4 1168.55 193.227   6
  12  -7  -4 1142.17 167.310   3
  11  -7  -4 10329.8 377.008   6
  11   7  -4 11028.1 434.613   6
  11  -7  -4 10952.1 414.710   3
  10  -7  -4 22021.6 541.683   6
  10   7  -4 22577.5 604.977   6
   9  -7  -4 141.947 89.4204   6
   9   7  -4 128.309 118.936   6
  -9  -7   4 168.913 72.2708   1
  -9  -7   4 42.8838 17.0145   5
  -8   7   4 28266.3 543.743   5
   8  -7  -4 29772.6 582.479   6
   8   7  -4 29682.2 651.560   6
  -8  -7   4 29270.9 562.029   1
  -7  -7   4 59819.8 941.786   1
  -7   7   4 57459.5 901.890   5
   7  -7  -4 61273.7 931.888   6
  -7   7   4 60447.8 905.824   6
   7   7  -4 59714.6 1008.56   6
  -6   7   4 3323.59 148.464   5
   6  -7  -4 3395.08 146.851   6
   6   7  -4 3660.20 189.899   6
  -6   7   4 3582.61 141.433   6
  -5   7   4 62366.3 926.769   5
   5  -7  -4 64240.0 905.748   6
   5   7  -4 63333.3 1000.68   6
  -5   7   4 64994.0 897.775   6
   4   7  -4 27430.6 394.529   5
  -4   7   4 29171.1 504.676   5
   4   7  -4 31198.8 560.811   6
   4  -7  -4 29729.7 466.021   6
  -4  -7   4 30957.6 553.783   6
  -4   7   4 31181.3 466.663   6
   4  -7  -4 29836.3 557.172   3
   3  -7  -4 5773.51 189.495   5
   3  -7  -4 5696.18 149.284   6
   3   7  -4 5846.78 205.470   6
  -3  -7   4 5867.54 199.294   6
  -3   7   4 5797.36 149.489   6
   3  -7  -4 5817.52 205.144   3
   2  -7  -4 150612. 1987.44   3
  -2   7   4 153982. 1906.43   6
   2  -7  -4 155555. 1988.45   5
   2   7  -4 151350. 2002.29   6
   2  -7  -4 151280. 1904.52   6
  -2  -7   4 154425. 2004.65   6
   1  -7  -4 14831.2 329.905   5
   1  -7  -4 14759.4 312.683   3
  -1   7   4 14973.8 281.698   6
  -1   7   4 14642.9 332.673   2
   1   7  -4 14527.5 331.759   6
   1  -7  -4 14715.0 279.981   6
  -1  -7   4 14987.8 331.020   6
   0  -7   4 137150. 1804.68   6
   0  -7  -4 134100. 1739.68   6
   0  -7  -4 136887. 1748.23   3
   0   7   4 136665. 1751.11   6
   0   7   4 137242. 1794.68   2
   0   7  -4 135559. 1806.15   6
   1   7   4 190179. 2449.37   2
   1  -7   4 194952. 2485.61   6
   1  -7   4 193633. 2383.74   2
   1   7   4 193717. 2443.70   6
   1  -7   4 193064. 2483.57   4
  -1   7  -4 190995. 2483.18   6
  -2   7  -4 15957.1 364.490   6
   2  -7   4 15873.8 265.798   2
   2  -7   4 15680.5 364.762   6
  -2  -7  -4 15546.9 346.884   6
  -2  -7  -4 15715.7 354.194   6
   2   7   4 15478.5 341.671   4
   2  -7   4 16351.6 375.639   4
   2   7   4 15546.3 331.406   2
  -3   7  -4 63538.3 965.455   6
  -3  -7  -4 63655.8 964.496   6
   3  -7   4 57648.4 765.154   2
  -3  -7  -4 63303.8 963.797   6
   3   7   4 62671.6 898.799   2
  -3  -7  -4 63797.4 905.452   2
   3   7   4 64974.7 948.644   4
   3   7   4 61063.5 800.068   3
   4   7   4 58797.0 799.861   3
  -4   7  -4 65063.7 895.053   3
  -4   7  -4 64233.5 1003.61   6
  -4  -7  -4 64455.3 1017.27   6
   4   7   4 63388.5 918.810   2
  -4  -7  -4 65245.5 930.304   2
   4   7   4 64186.7 991.897   4
  -5   7  -4 490.247 93.3555   6
   5   7   4 311.366 28.2332   3
  -5  -7  -4 360.523 100.264   6
  -5  -7  -4 499.919 70.2811   2
  -5   7  -4 175.058 93.3816   4
  -6   7  -4 78270.6 1191.99   6
  -6  -7  -4 75541.1 1060.51   2
  -6  -7  -4 77137.9 1232.91   6
  -6  -7  -4 77882.9 1184.78   4
  -6   7  -4 78347.8 1241.21   4
   6  -7   4 75171.0 1057.36   1
  -7  -7  -4 61015.7 900.265   2
  -7   7  -4 65306.4 1058.45   6
   7  -7   4 64016.3 880.260   1
  -7  -7  -4 63957.9 1104.93   6
  -7  -7  -4 65031.8 1059.17   4
  -7   7  -4 66531.2 1125.27   4
  -8   7  -4 1088.48 144.742   6
  -8  -7  -4 1192.48 164.272   6
  -8  -7  -4 1080.64 101.954   2
  -8  -7  -4 1091.40 146.278   4
  -8   7  -4 1216.08 163.824   4
  -9   7  -4 33715.8 838.360   4
  -9   7  -4 36263.1 809.661   6
  -9  -7  -4 37679.5 865.458   6
  -9  -7  -4 36454.0 820.233   4
 -10   7  -4 3714.87 256.403   6
 -10  -7  -4 4329.84 292.746   6
 -10  -7  -4 4418.21 279.388   4
 -10   7  -4 4380.95 300.563   4
 -11   7  -4 7381.17 367.008   6
 -11  -7  -4 7571.68 398.353   6
 -11  -7  -4 6681.84 363.839   4
 -11   7  -4 7666.94 406.137   4
 -12   7  -4 10360.9 454.026   6
 -12  -7  -4 10692.6 467.491   4
  15  -8  -4 1718.27 214.478   6
  14  -8  -4 1868.95 233.353   3
  14  -8  -4 1650.89 204.134   6
  14   8  -4 1658.86 216.493   6
  13  -8  -4 235.090 144.592   3
  13  -8  -4 187.085 124.155   6
  13   8  -4 314.164 163.327   6
  12   8  -4 753.950 161.946   6
  12  -8  -4 628.900 160.085   3
  12  -8  -4 447.024 115.059   6
  11  -8  -4 2876.53 231.811   3
  11  -8  -4 3003.87 205.623   6
  11   8  -4 3012.08 237.470   6
  10  -8  -4 4784.73 236.640   6
  10   8  -4 4641.59 279.233   6
  10  -8  -4 4672.75 270.968   3
  -9  -8   4 10586.7 309.287   1
   9   8  -4 11601.3 404.256   6
   9  -8  -4 11212.9 340.758   6
   9  -8  -4 10697.2 386.367   3
  -8   8   4 2829.59 156.307   5
   8  -8  -4 2994.51 162.623   6
   8   8  -4 3212.41 204.222   6
  -8   8   4 2743.93 148.908   6
  -8  -8   4 2988.76 161.800   1
   8  -8  -4 3294.78 209.202   3
  -7   8   4 7123.73 234.282   5
   7  -8  -4 7103.77 228.289   6
   7   8  -4 7123.80 279.386   6
  -7   8   4 7080.34 216.440   6
  -7  -8   4 7077.15 247.707   1
   7  -8  -4 7356.92 289.773   3
   6  -8  -4 30500.4 524.697   6
  -6  -8   4 30893.3 585.313   1
  -6   8   4 29597.7 542.864   5
   6   8  -4 30496.4 612.999   6
  -6   8   4 29972.7 505.129   6
   6  -8  -4 30392.0 619.737   3
   5  -8  -4 185.779 86.5655   3
  -5   8   4 295.546 68.5121   5
   5  -8  -4 277.973 51.8553   6
   5   8  -4 516.673 95.8714   6
  -5   8   4 425.682 56.6027   6
   4  -8  -4 20274.5 439.856   3
   4   8  -4 19137.6 301.032   5
  -4   8   4 19603.2 396.255   5
   4  -8  -4 19977.5 341.189   6
   4   8  -4 19660.5 431.974   6
  -4   8   4 20348.5 340.099   6
  -3   8   4 23459.2 368.165   6
   3  -8  -4 22310.4 459.744   3
   3  -8  -4 23192.6 446.378   5
   3  -8  -4 22883.5 366.949   6
   3   8  -4 22781.3 462.222   6
  -3  -8   4 23164.7 457.287   6
   2  -8  -4 6567.66 212.476   3
  -2   8   4 6648.41 158.389   6
   2  -8  -4 6672.21 214.431   5
   2   8  -4 6419.27 213.106   6
   2  -8  -4 6726.05 159.119   6
  -2  -8   4 6722.69 215.169   6
   1  -8  -4 9570.27 246.437   3
  -1   8   4 9456.62 207.542   6
  -1   8   4 9719.63 266.467   2
   1  -8  -4 9017.50 258.124   5
   1   8  -4 9776.68 262.326   6
   1  -8  -4 9593.80 206.729   6
  -1  -8   4 10054.4 261.851   6
   0  -8   4 3656.31 153.559   6
   0  -8  -4 3424.48 124.556   6
   0   8   4 3774.57 157.704   2
   0   8   4 3516.44 128.944   6
   0   8  -4 3846.19 161.379   6
   1  -8   4 7813.48 235.513   6
  -1  -8  -4 7497.67 206.608   6
  -1  -8  -4 7369.49 209.737   6
   1  -8   4 7582.13 186.345   2
   1   8   4 7358.45 209.386   4
   1  -8   4 7690.92 232.865   4
  -1   8  -4 7586.69 233.696   6
   1   8   4 7347.98 220.080   2
   2   8   4 24820.6 409.353   3
  -2   8  -4 25491.0 499.781   6
   2  -8   4 25795.0 504.748   6
  -2  -8  -4 24970.6 475.740   6
  -2  -8  -4 24929.7 481.234   6
   2  -8   4 25893.6 400.084   2
   2   8   4 25645.9 471.344   4
   2  -8   4 26589.4 510.200   4
   2   8   4 25839.7 477.341   2
   3   8   4 6199.88 152.908   3
  -3   8  -4 6454.81 229.798   6
  -3  -8  -4 6149.87 223.314   6
   3  -8   4 6095.71 130.979   2
   3   8   4 6403.42 203.840   2
  -3  -8  -4 6341.68 206.131   2
  -3  -8  -4 6483.55 229.815   6
   3   8   4 6148.69 209.572   4
   4   8   4 1530.12 69.1886   3
  -4   8  -4 1528.68 99.0998   3
  -4   8  -4 1455.81 123.992   6
  -4  -8  -4 1608.77 135.423   6
  -4  -8  -4 1514.15 108.231   2
   4   8   4 1385.36 103.679   2
   4   8   4 1485.02 118.548   4
   5  -8   4 41712.8 697.074   1
  -5   8  -4 41015.9 754.614   6
   5   8   4 39219.8 566.682   3
  -5  -8  -4 41363.1 786.540   6
  -5  -8  -4 42071.7 694.815   2
  -5   8  -4 42462.4 794.151   4
  -5   8  -4 42311.6 661.008   3
  -6   8  -4 4001.16 210.991   6
   6   8   4 3575.48 102.614   3
  -6  -8  -4 3900.10 174.019   2
  -6  -8  -4 4461.91 238.102   6
  -6  -8  -4 3977.92 209.999   4
  -6   8  -4 3841.22 229.834   4
   6  -8   4 3940.25 166.877   1
  -7  -8  -4 5796.27 218.128   2
  -7   8  -4 6836.83 290.089   6
  -7  -8  -4 6348.66 301.214   6
   7  -8   4 6453.60 209.788   1
  -7  -8  -4 6325.69 275.975   4
  -7   8  -4 6310.45 306.837   4
  -8  -8  -4 8210.17 264.984   2
  -8   8  -4 8674.10 344.666   6
  -8  -8  -4 8513.14 365.099   6
  -8  -8  -4 8230.06 338.178   4
  -8   8  -4 8548.83 373.800   4
  -9   8  -4 719.726 136.066   6
  -9  -8  -4 298.002 139.131   6
  -9  -8  -4 484.469 87.8951   2
  -9  -8  -4 366.953 115.424   4
  -9   8  -4 564.078 149.396   4
 -10   8  -4 5071.94 294.392   6
 -10  -8  -4 5394.32 325.711   6
 -10  -8  -4 4776.39 292.887   4
 -10   8  -4 4956.00 322.465   4
 -11   8  -4 4816.51 304.690   6
 -11  -8  -4 5513.91 347.626   6
 -11  -8  -4 5480.44 322.076   4
 -11   8  -4 5371.32 349.127   4
 -12   8  -4 168.541 125.242   6
 -12  -8  -4 245.615 134.132   4
  14  -9  -4 1233.96 175.946   6
  13  -9  -4 2407.53 246.293   3
  13  -9  -4 2239.74 204.534   6
  13   9  -4 2394.92 251.265   6
  12  -9  -4 260.956 142.029   3
  12  -9  -4 193.883 110.135   6
  12   9  -4 141.517 143.711   6
  11  -9  -4 2238.98 215.120   3
  11  -9  -4 2037.11 168.997   6
  11   9  -4 2370.10 224.804   6
  10  -9  -4 614.875 142.068   3
  10  -9  -4 647.673 113.374   6
  10   9  -4 736.557 142.949   6
   9   9  -4 457.866 138.430   6
   9  -9  -4 465.383 132.732   3
   9  -9  -4 314.795 98.1364   6
   8  -9  -4 5614.38 269.391   3
   8  -9  -4 5744.90 217.932   6
   8   9  -4 5824.02 269.818   6
  -8   9   4 5255.41 199.895   6
   7  -9  -4 11453.9 369.034   3
  -7   9   4 10860.8 308.460   5
   7  -9  -4 11894.1 297.753   6
   7   9  -4 12118.0 370.097   6
  -7   9   4 11195.6 276.185   6
   6  -9  -4 2321.33 162.880   3
  -6   9   4 2306.25 136.629   5
   6  -9  -4 2230.20 114.387   6
   6   9  -4 2306.72 163.647   6
  -6   9   4 2251.51 107.154   6
   5  -9  -4 3216.71 179.834   3
  -5  -9   4 2777.75 159.026   1
   5  -9  -4 3009.26 116.322   6
  -5   9   4 2941.08 145.338   5
   5   9  -4 3201.99 173.139   6
  -5   9   4 3097.85 113.828   6
   4  -9  -4 422.112 90.7156   3
   4   9  -4 352.799 45.2885   5
  -4   9   4 457.457 81.4582   5
   4  -9  -4 289.865 40.2608   6
   4   9  -4 237.438 76.6810   6
  -4   9   4 343.600 44.6139   6
  -3   9   4 5573.62 137.425   6
   3  -9  -4 5421.18 210.940   3
   3  -9  -4 5823.46 208.248   5
   3  -9  -4 5766.42 138.489   6
   3   9  -4 5529.50 206.430   6
  -3  -9   4 5406.83 201.751   6
   2  -9  -4 52100.2 821.920   3
  -2   9   4 55358.0 852.199   2
  -2   9   4 51547.2 709.665   6
   2  -9  -4 52302.5 826.365   5
   2   9  -4 51421.6 819.157   6
   2  -9  -4 51394.1 708.449   6
  -2  -9   4 54303.6 828.734   6
   1  -9  -4 13988.4 323.741   3
  -1   9   4 14786.1 273.847   6
  -1   9   4 14782.4 350.151   2
   1  -9  -4 14348.1 345.238   5
   1   9  -4 14897.4 342.781   6
   1  -9  -4 14953.3 273.013   6
  -1  -9   4 15110.6 341.770   6
   0  -9   4 26443.8 498.037   6
   0  -9  -4 26755.0 437.794   6
   0   9   4 27535.8 511.076   2
   0  -9   4 26351.2 466.519   2
   0   9  -4 26301.8 499.958   6
   1  -9   4 62692.2 950.301   6
  -1  -9  -4 61070.5 894.196   6
  -1  -9  -4 63550.2 909.301   6
   1  -9   4 63357.0 879.763   2
   1   9   4 62010.5 902.933   4
   1  -9   4 64487.8 951.849   4
   1   9   4 62586.2 943.219   2
  -1   9  -4 61803.8 950.533   6
   1   9   4 60250.3 882.280   3
  -2   9  -4 3303.94 161.862   6
   2   9   4 3429.16 125.777   3
   2  -9   4 3420.82 163.253   6
  -2  -9  -4 3480.75 153.253   6
  -2  -9  -4 3640.50 156.608   6
   2   9   4 3562.66 147.172   4
   2   9   4 3347.82 156.340   2
   2  -9   4 3359.04 117.044   2
   2  -9   4 3552.27 166.882   4
  -2  -9  -4 3427.66 158.390   2
  -3   9  -4 11820.5 323.090   6
   3   9   4 11931.2 247.703   3
  -3  -9  -4 12311.5 326.805   6
   3  -9   4 12125.8 221.976   2
   3  -9   4 12211.6 320.430   1
  -3  -9  -4 12369.9 327.504   6
  -3  -9  -4 12509.6 313.804   2
   3   9   4 11655.0 300.861   2
   3   9   4 12223.4 305.885   4
   4   9   4 1103.83 70.1449   3
   4  -9   4 1351.50 107.664   1
  -4   9  -4 1162.18 114.991   6
  -4   9  -4 1132.27 91.8112   3
  -4  -9  -4 1359.97 126.845   6
   4   9   4 995.475 95.4402   2
  -4  -9  -4 1298.91 104.007   2
  -5   9  -4-3.29502 73.9543   6
  -5   9  -4 138.776 62.5993   3
   5   9   4 112.448 37.9419   3
  -5  -9  -4 319.857 101.059   6
  -5  -9  -4 174.176 67.2155   2
   5  -9   4 95.8484 53.8776   1
  -5   9  -4 80.8232 95.3625   4
  -6   9  -4 13748.2 396.897   6
   6   9   4 13350.1 256.776   3
  -6  -9  -4 13528.0 352.194   2
  -6  -9  -4 13333.1 420.161   6
   6  -9   4 14500.4 345.274   1
  -6   9  -4 14276.5 433.814   4
  -7   9  -4 2176.22 177.984   6
  -7  -9  -4 1685.39 127.169   2
  -7  -9  -4 2355.55 198.881   6
  -7  -9  -4 1973.16 162.723   4
  -7   9  -4 2177.80 191.882   4
  -8   9  -4 1334.80 162.156   6
  -8  -9  -4 1168.95 169.022   6
  -8  -9  -4 1025.44 113.556   2
  -8  -9  -4 1060.44 148.803   4
  -8   9  -4 965.853 161.410   4
  -9   9  -4 949.806 142.191   6
  -9  -9  -4 619.412 144.577   6
  -9  -9  -4 839.146 103.304   2
  -9  -9  -4 927.849 141.933   4
  -9   9  -4 673.987 147.360   4
 -10   9  -4 1874.45 196.878   6
 -10  -9  -4 1990.64 227.006   6
 -10  -9  -4 1624.45 187.676   4
 -10   9  -4 1619.36 204.760   4
 -11   9  -4-8.77624 120.352   6
 -11  -9  -4 192.060 137.983   6
 -11  -9  -4 247.810 126.261   4
 -11   9  -4 80.1374 130.602   4
 -12   9  -4 1831.44 212.967   6
 -12  -9  -4 1405.77 196.998   4
  14 -10  -4 5439.66 352.067   3
  13 -10  -4 730.278 188.763   3
  13 -10  -4 551.521 134.798   6
  13  10  -4 410.353 164.826   6
  12 -10  -4 14500.5 521.642   3
  12 -10  -4 14059.5 451.719   6
  12  10  -4 14120.2 530.622   6
  11 -10  -4 5082.05 301.808   3
  11 -10  -4 5268.97 256.580   6
  11  10  -4 4923.44 308.493   6
  10 -10  -4 6222.65 318.196   3
  10 -10  -4 6111.94 259.376   6
  10  10  -4 5821.19 309.683   6
   9 -10  -4 33830.4 757.391   3
   9  10  -4 34245.5 770.011   6
   9 -10  -4 33990.3 655.155   6
   8 -10  -4 10259.4 364.444   3
   8 -10  -4 10141.6 291.570   6
   8  10  -4 10708.0 369.481   6
  -8  10   4 9773.17 271.185   6
   7 -10  -4 37413.3 750.996   3
   7 -10  -4 38010.2 632.018   6
   7  10  -4 37251.1 745.643   6
  -7  10   4 36641.4 605.045   6
   6 -10  -4 26257.6 582.204   3
  -6  10   4 25088.5 515.897   5
   6 -10  -4 26282.6 459.718   6
  -6  10   4 26465.8 442.988   6
   6  10  -4 26956.6 575.544   6
   5 -10  -4 5469.13 236.590   3
  -5  10   4 5221.99 207.295   5
   5 -10  -4 5537.92 156.428   6
   5  10  -4 5880.75 233.302   6
  -5  10   4 5456.03 148.587   6
   4 -10  -4 27081.0 554.254   3
   4  10  -4 27199.7 544.022   6
   4  10  -4 26980.6 425.801   5
  -4  10   4 26061.0 517.569   5
   4 -10  -4 27512.5 415.671   6
  -4  10   4 27806.0 412.976   6
   3 -10  -4 130602. 1801.15   3
  -3  10   4 132148. 1626.73   6
   3 -10  -4 130659. 1625.40   6
   3  10  -4 131232. 1787.33   6
  -3 -10   4 132089. 1784.50   6
   2 -10  -4 11694.3 308.512   3
  -2  10   4 11664.7 216.443   6
   2 -10  -4 11848.5 315.725   5
  -2  10   4 12033.8 322.434   2
   2  10  -4 11800.8 303.929   6
   2 -10  -4 11700.8 213.933   6
  -2 -10   4 11853.1 303.948   6
   1 -10  -4 112121. 1531.87   3
  -1  10   4 114690. 1563.79   2
  -1  10   4 109910. 1422.83   6
   1 -10  -4 111791. 1556.38   5
   1  10  -4 110332. 1536.07   6
   1 -10  -4 112542. 1420.80   6
  -1 -10   4 112559. 1535.91   6
   0 -10   4 74395.9 1069.27   6
   0  10   4 73106.8 1082.05   2
   0 -10  -4 71866.3 978.328   6
   0 -10  -4 72423.8 990.919   6
   0 -10   4 72730.1 1032.86   2
   0 -10  -4 73012.6 1096.87   5
   0  10  -4 71120.8 1060.58   6
   0  10   4 69728.1 1034.10   3
   1  10   4 5266.81 175.106   3
   1 -10   4 5704.07 205.135   6
   1 -10   4 5794.26 175.086   2
  -1 -10  -4 5692.10 176.450   6
   1 -10   4 5333.37 216.215   1
  -1 -10  -4 5740.10 179.844   6
   1  10   4 5459.48 174.179   4
   1 -10   4 5794.82 200.881   4
   1  10   4 5871.57 209.292   2
  -1  10  -4 5151.62 196.765   6
   2  10   4 116808. 1564.82   3
   2 -10   4 120490. 1654.44   6
  -2 -10  -4 120031. 1614.00   6
   2 -10   4 119834. 1672.10   1
  -2 -10  -4 120774. 1625.71   6
  -2 -10  -4 118600. 1646.43   2
   2  10   4 119302. 1641.90   2
   2  10   4 119645. 1595.29   4
   2 -10   4 121776. 1659.41   4
   2 -10   4 118258. 1540.76   2
  -2  10  -4 118990. 1649.18   6
  -3  10  -4 494.986 88.0745   6
   3  10   4 574.618 63.4884   3
  -3 -10  -4 643.528 89.7989   6
  -3 -10  -4 651.920 88.0006   6
   3 -10   4 640.779 56.7186   2
   3 -10   4 616.870 84.5364   1
   3  10   4 709.569 87.2801   2
  -3 -10  -4 689.382 94.4554   2
   3  10   4 634.575 77.5178   4
  -4  10  -4 19846.1 456.066   6
  -4  10  -4 20020.9 416.380   3
   4  10   4 19553.4 360.176   3
  -4 -10  -4 20649.9 477.352   6
  -4 -10  -4 19535.7 438.785   2
   4  10   4 19568.9 430.211   2
   4 -10   4 19823.7 442.035   1
  -5  10  -4 38210.6 657.155   3
  -5  10  -4 38556.6 723.829   6
   5  10   4 37200.8 580.635   3
  -5 -10  -4 38283.6 693.235   2
  -5 -10  -4 38184.0 756.300   6
   5 -10   4 39095.6 688.655   1
  -5  10  -4 38863.6 755.580   4
  -6  10  -4 2337.60 173.027   6
  -6 -10  -4 2056.55 141.964   2
  -6 -10  -4 2689.29 197.884   6
   6 -10   4 2469.92 143.485   1
  -6  10  -4 2522.76 186.248   4
  -7 -10  -4 1558.89 132.000   2
  -7  10  -4 1536.98 147.408   6
  -7 -10  -4 1514.08 170.948   6
  -7 -10  -4 1523.00 147.711   4
  -7  10  -4 1525.53 162.775   4
  -8 -10  -4 29734.3 616.786   2
  -8  10  -4 31211.9 704.765   6
  -8 -10  -4 30493.6 692.919   4
  -8 -10  -4 31085.0 759.349   6
  -8  10  -4 30666.2 753.693   4
   8  10   4 31309.1 631.907   1
  -9  10  -4 687.462 134.876   6
  -9 -10  -4 514.353 142.993   6
  -9 -10  -4 434.059 97.2009   2
  -9 -10  -4 701.117 135.126   4
  -9  10  -4 701.461 150.475   4
 -10  10  -4 5629.18 309.471   6
 -10 -10  -4 5636.52 342.570   6
 -10 -10  -4 4944.85 290.528   4
 -10  10  -4 5070.62 321.119   4
 -11  10  -4 15175.6 534.219   6
 -11 -10  -4 14278.5 517.294   4
 -11 -10  -4 16638.6 599.611   6
 -11  10  -4 15964.7 585.127   4
 -12  10  -4 130.661 126.549   6
 -12 -10  -4 40.7119 121.820   4
  14 -11  -4 1731.53 230.060   3
  13 -11  -4 8580.62 418.959   3
  13 -11  -4 8101.65 352.174   6
  13  11  -4 7802.02 423.375   6
  12 -11  -4 201.243 141.669   3
  12 -11  -4 564.853 118.512   6
  11 -11  -4 5270.10 307.540   3
  11 -11  -4 4726.85 241.024   6
  11  11  -4 4992.90 308.677   6
  10 -11  -4 16032.2 512.659   3
  10  11  -4 15410.9 508.798   6
  10 -11  -4 15665.1 419.278   6
   9 -11  -4 80.6923 119.668   3
   9  11  -4 287.497 126.962   6
   9 -11  -4 173.364 71.7957   6
   8  11  -4 17843.0 496.708   6
   8 -11  -4 16769.7 487.927   3
   8 -11  -4 17361.7 391.720   6
  -8  11   4 16564.3 366.733   6
   7 -11  -4 2634.02 194.139   3
   7 -11  -4 2679.88 131.731   6
   7  11  -4 2827.04 190.556   6
  -7  11   4 2645.15 122.651   6
   6 -11  -4 273.427 108.414   3
   6 -11  -4 337.666 54.5762   6
   6  11  -4 246.897 85.7700   6
  -6  11   4 245.148 45.8955   6
   5  11  -4 123062. 1750.75   6
   5 -11  -4 121782. 1766.58   3
   5 -11  -4 122464. 1568.00   6
  -5  11   4 124637. 1556.81   6
  -4  11   4 52504.4 700.849   6
   4 -11  -4 52835.0 891.824   3
   4  11  -4 53365.5 750.389   5
  -4  11   4 52392.5 856.887   5
   4 -11  -4 52125.1 705.329   6
   4  11  -4 54138.3 879.808   6
  -3  11   4 415.361 36.8290   6
   3 -11  -4 464.667 91.2688   3
   3 -11  -4 366.725 34.0221   6
   3  11  -4 364.932 58.2766   5
   3  11  -4 349.044 79.8441   6
   2 -11  -4 71473.8 1070.32   3
  -2  11   4 69809.2 906.516   6
   2 -11  -4 72605.6 1081.47   5
   2  11  -4 70923.3 1057.91   6
   2 -11  -4 68770.4 901.942   6
  -2 -11   4 73060.9 1060.01   6
   1 -11  -4 149.943 37.9687   6
  -1 -11   4 112.910 59.7445   6
   1 -11  -4 154.419 36.6451   6
  -1 -11   4 249.683 71.7267   2
   1 -11  -4 165.861 83.4941   5
   1  11  -4 88.4525 58.4448   6
   0  11   4 38494.1 676.452   2
   0 -11   4 37952.5 649.406   6
   0 -11  -4 36895.9 562.763   6
   0 -11  -4 37231.0 573.146   6
   0 -11   4 37528.9 625.699   2
   0 -11  -4 37198.8 677.562   5
   0 -11   4 38550.1 634.120   4
   0  11  -4 37442.7 648.354   6
   0  11   4 37272.4 632.702   3
   1  11   4 89870.3 1266.03   3
   1 -11   4 93419.2 1312.38   6
  -1 -11  -4 90292.5 1236.13   6
  -1 -11  -4 91479.4 1253.22   6
   1 -11   4 87985.4 1247.02   2
   1  11   4 92755.4 1243.43   4
   1 -11   4 93300.8 1300.76   4
   1  11   4 92618.2 1327.26   2
  -1  11  -4 91212.0 1307.67   6
   2  11   4 1810.18 107.301   3
  -2 -11  -4 1836.30 116.447   6
  -2 -11  -4 1770.11 115.190   6
  -2 -11  -4 1547.67 124.105   2
   2  11   4 1799.46 125.726   2
   2  11   4 1767.82 107.001   4
   2 -11   4 1923.99 128.951   4
   2 -11   4 2009.02 103.598   2
  -2  11  -4 1849.16 127.996   6
  -3  11  -4 91884.1 1339.22   6
   3  11   4 89908.3 1249.41   3
   3 -11   4 91715.1 1206.45   2
  -3 -11  -4 91080.3 1328.50   6
  -3 -11  -4 94923.3 1353.10   2
  -3 -11  -4 91603.9 1336.95   6
   3  11   4 90189.5 1327.49   2
   3  11   4 91072.9 1288.02   4
  -4  11  -4 63352.8 1009.69   6
  -4  11  -4 63639.4 971.474   3
   4  11   4 60572.4 900.259   3
  -4 -11  -4 62186.7 1027.25   6
  -4 -11  -4 64030.5 1008.25   2
  -5  11  -4 683.739 109.447   6
  -5  11  -4 933.118 99.7992   3
   5  11   4 923.708 78.8953   3
  -5 -11  -4 931.585 130.189   6
   5 -11   4 887.701 102.238   1
  -5 -11  -4 1022.76 112.429   2
  -6  11  -4 37784.5 738.271   6
  -6 -11  -4 35515.4 696.070   2
  -6 -11  -4 35918.3 772.601   6
   6 -11   4 37172.4 680.852   1
  -6  11  -4 38681.5 785.624   4
  -7  11  -4 5234.49 253.737   6
  -7 -11  -4 4586.28 217.109   2
  -7 -11  -4 5279.83 284.417   6
  -7  11  -4 5437.44 280.967   4
  -8  11  -4 979.184 135.873   6
  -8 -11  -4 767.257 156.076   6
   8  11   4 904.671 116.461   1
  -8 -11  -4 659.042 104.953   2
  -8 -11  -4 658.677 119.407   4
  -8  11  -4 1097.96 156.495   4
  -9 -11  -4 21881.5 520.854   2
  -9  11  -4 21456.4 590.159   6
  -9 -11  -4 21787.4 648.514   6
  -9 -11  -4 21301.5 580.619   4
  -9  11  -4 21700.0 639.117   4
 -10  11  -4 6299.42 329.499   6
 -10  11  -4 5706.07 345.010   4
 -10 -11  -4 5885.59 342.829   6
 -10 -11  -4 5906.46 310.109   4
 -11  11  -4 6424.52 346.450   6
 -11 -11  -4 7266.16 397.816   6
 -11 -11  -4 6144.39 337.287   4
 -11  11  -4 6870.62 388.373   4
 -12  11  -4 7093.12 378.817   6
 -12 -11  -4 6487.48 359.662   4
  13 -12  -4 117.587 142.033   3
  13  12  -4 218.281 153.787   6
  12 -12  -4 79.2370 154.866   3
  12 -12  -4-42.7785 91.5910   6
  12  12  -4 358.610 147.442   6
  11 -12  -4 64.7008 132.174   3
  11 -12  -4-37.1204 80.8651   6
  11  12  -4-19.3122 129.608   6
  10 -12  -4 1139.97 177.852   3
  10 -12  -4 1211.75 123.695   6
  10  12  -4 1447.90 184.282   6
   9 -12  -4 6716.74 319.488   3
   9 -12  -4 6818.51 242.098   6
   9  12  -4 7608.11 339.777   6
   8 -12  -4 1302.67 159.648   3
   8 -12  -4 1181.39 101.791   6
  -8  12   4 1246.98 98.9105   6
   8  12  -4 1403.75 156.054   6
   7 -12  -4 63.5085 100.958   3
   7 -12  -4 34.2126 50.4290   6
   7  12  -4 45.6810 94.4905   6
  -7  12   4 23.4710 45.7683   6
   6 -12  -4 132.030 97.4190   3
   6 -12  -4 24.2612 42.6319   6
   6  12  -4-105.244 87.1230   6
  -6  12   4 22.8062 37.5882   6
   5 -12  -4 1373.20 146.074   3
   5 -12  -4 1214.30 67.8294   6
   5  12  -4 1299.49 141.927   6
  -5  12   4 1351.62 65.6477   6
  -4  12   4 490.784 37.3452   6
   4 -12  -4 650.542 113.134   3
   4 -12  -4 556.481 39.6275   6
   4  12  -4 643.207 72.2278   5
   4  12  -4 575.476 95.6110   6
   3 -12  -4 9486.34 294.937   3
   3  12  -4 9236.40 227.514   5
   3  12  -4 9500.75 282.682   6
   2 -12  -4 67.2033 71.7253   3
  -2 -12   4 147.303 74.7932   2
   2 -12  -4 24.8422 21.8467   6
   2 -12  -4 142.104 83.6655   5
   2  12  -4 157.214 77.4421   6
   2 -12  -4 49.3055 21.9044   6
  -1 -12   4 5467.36 203.720   2
   1 -12  -4 5327.74 135.359   6
   1 -12  -4 5208.56 216.421   5
   1  12  -4 5432.52 201.786   6
   1 -12  -4 5389.26 133.087   6
  -1  12   4 5034.85 199.339   3
  -1 -12   4 5782.62 207.317   6
   0  12   4 2078.46 126.100   3
   0 -12   4 1903.18 122.352   6
   0 -12  -4 2072.90 92.3713   6
   0 -12  -4 1965.26 93.6581   6
   0 -12   4 1975.15 123.477   2
   0 -12  -4 1980.54 149.254   5
   0 -12   4 2176.29 120.128   4
   0  12  -4 1957.31 126.846   6
   1 -12   4 478.663 85.2058   6
   1  12   4 417.979 71.2218   3
  -1 -12  -4 408.866 61.0096   6
  -1 -12  -4 413.306 60.9000   6
  -1 -12  -4 318.039 94.6281   5
   1 -12   4 553.897 76.0702   2
   1  12   4 349.868 59.7650   4
   1 -12   4 526.524 77.4996   4
  -1  12  -4 495.358 81.5876   6
   2  12   4 2591.68 130.573   3
  -2 -12  -4 2433.25 129.548   6
  -2 -12  -4 2754.65 139.824   6
  -2 -12  -4 2364.54 156.200   2
   2  12   4 2523.59 121.871   4
   2 -12   4 2659.11 147.163   4
   2 -12   4 2427.33 116.842   2
  -2  12  -4 2489.96 146.738   6
  -3  12  -4 60.8156 75.2460   6
   3  12   4 155.154 62.1475   3
  -3 -12  -4 260.051 82.9556   6
  -3 -12  -4 202.732 69.4767   6
   3 -12   4 273.013 61.4938   2
  -3 -12  -4 167.855 89.9090   2
   3  12   4 66.3022 55.5465   4
  -4  12  -4 5467.65 225.632   6
  -4  12  -4 5349.89 214.051   3
   4  12   4 4942.84 177.556   3
  -4 -12  -4 5245.30 232.494   6
  -4 -12  -4 5208.76 226.723   2
  -5  12  -4 17.1725 75.2698   6
   5  12   4 2.28685 51.9345   3
  -5 -12  -4 107.069 87.0679   6
  -5 -12  -4-20.3920 76.7209   2
  -6  12  -4 780.688 116.357   6
  -6 -12  -4 814.369 144.495   6
  -6 -12  -4 722.922 117.785   2
  -6  12  -4 587.041 116.144   4
  -7  12  -4 1182.38 138.405   6
  -7 -12  -4 1109.86 155.711   6
  -7 -12  -4 1100.49 124.261   2
  -7  12  -4 1124.41 145.547   4
  -8  12  -4 304.724 106.692   6
  -8 -12  -4 232.294 118.191   6
  -8 -12  -4 205.138 89.6843   2
   8  12   4 194.589 82.8890   1
  -8  12  -4 151.479 109.976   4
  -9  12  -4 71.1888 103.529   6
  -9 -12  -4 182.125 136.829   6
  -9 -12  -4 99.1639 88.2994   2
  -9 -12  -4-21.1810 90.3637   4
  -9  12  -4 26.7848 118.785   4
 -10  12  -4 622.826 140.521   6
 -10 -12  -4 470.090 170.376   6
 -10 -12  -4 606.451 144.622   4
 -10  12  -4 984.778 178.156   4
 -11  12  -4-18.8314 134.227   6
 -11 -12  -4 254.418 156.524   6
 -11 -12  -4 25.6117 120.264   4
 -11  12  -4 149.477 130.983   4
 -12  12  -4 188.802 138.783   6
 -12 -12  -4-124.227 126.185   4
  13 -13  -4 2085.66 236.359   3
  13  13  -4 2290.52 262.254   6
  12 -13  -4 1579.44 203.737   3
  12  13  -4 1614.86 212.994   6
  11 -13  -4 5137.27 314.031   3
  11  13  -4 5376.36 325.411   6
  10 -13  -4 14975.8 505.538   3
  10 -13  -4 14551.9 387.236   6
  10  13  -4 14285.0 502.951   6
 -10  13   4 13614.6 380.210   1
   9 -13  -4 882.391 146.625   3
   9 -13  -4 1066.16 105.743   6
   9  13  -4 1097.04 169.525   6
   8 -13  -4 12509.1 427.854   3
   8 -13  -4 12650.3 304.729   6
   8  13  -4 12791.4 425.096   6
  -8  13   4 11411.4 279.596   6
   7 -13  -4 13993.8 433.790   3
   7 -13  -4 14589.2 303.168   6
  -7  13   4 13991.4 287.006   6
   7  13  -4 14311.8 428.614   6
   6 -13  -4 223.797 112.397   3
   6 -13  -4 135.683 39.7521   6
   6  13  -4 143.805 92.7957   6
  -6  13   4 98.0370 38.2029   6
   5 -13  -4 52035.1 912.293   3
   5 -13  -4 48981.9 664.116   6
   5  13  -4 51907.4 884.556   6
  -5  13   4 49752.9 656.732   6
   4 -13  -4 46026.7 761.747   3
   4  13  -4 45326.0 615.159   5
   4  13  -4 45002.5 729.685   6
   3 -13  -4 1609.13 140.533   3
  -3 -13   4 1667.02 141.654   2
   3  13  -4 1670.85 108.561   5
   3  13  -4 1626.34 129.696   6
  -2 -13   4 84148.0 1146.74   2
   2 -13  -4 82355.4 1154.23   5
   2  13  -4 81301.9 1114.90   6
  -1 -13   4 6790.31 236.245   2
   1 -13  -4 6557.79 151.149   6
   1 -13  -4 6957.84 256.574   5
   1  13  -4 6474.47 226.664   6
   1 -13  -4 6911.71 148.959   6
   0  13   4 30066.1 578.240   3
   0 -13   4 31333.4 576.791   6
   0 -13  -4 30904.3 479.595   6
   0 -13  -4 31521.0 494.770   6
   0 -13  -4 30982.0 619.904   5
   0 -13   4 30387.0 567.132   2
   0 -13   4 31072.5 552.429   4
   0  13  -4 30922.1 577.955   6
   1  13   4 25850.9 507.285   3
  -1 -13  -4 25284.7 445.425   6
  -1 -13  -4 25475.4 457.126   6
  -1 -13  -4 25670.3 554.432   5
   1 -13   4 25233.1 485.409   2
   1  13   4 25464.3 444.520   4
   1 -13   4 25914.6 500.824   4
  -1  13  -4 26071.1 512.712   6
   2  13   4 1469.72 110.992   3
  -2 -13  -4 1612.27 110.352   6
  -2 -13  -4 1450.06 104.829   6
  -2 -13  -4 1650.10 139.512   2
   2  13   4 1523.32 97.5006   4
   2 -13   4 1489.94 119.334   4
   2 -13   4 1353.35 96.1890   2
  -2  13  -4 1485.24 119.434   6
   3  13   4 75118.8 1117.93   3
   3 -13   4 76479.9 1070.22   2
  -3 -13  -4 78298.3 1164.17   6
  -3 -13  -4 78196.1 1211.42   2
  -3 -13  -4 75878.7 1157.61   6
   3  13   4 76494.9 1109.39   4
  -3  13  -4 77066.7 1172.61   6
  -4  13  -4 22663.2 499.685   6
   4  13   4 21026.9 437.302   3
  -4 -13  -4 21971.9 510.650   6
  -4 -13  -4 23147.6 524.731   2
  -5  13  -4 3081.88 181.716   6
   5  13   4 2974.90 144.702   3
  -5 -13  -4 3041.65 187.036   2
  -5 -13  -4 3151.84 201.375   6
  -6  13  -4 12847.3 384.025   6
  -6 -13  -4 12035.5 377.480   2
  -6 -13  -4 12367.7 417.431   6
  -6  13  -4 13164.4 415.119   4
  -7  13  -4 16381.6 461.593   6
  -7 -13  -4 15440.8 442.954   2
  -7 -13  -4 16440.8 511.791   6
  -7  13  -4 17113.4 509.223   4
  -8  13  -4 1646.94 167.896   6
  -8 -13  -4 1474.10 179.095   6
  -8 -13  -4 1658.34 159.262   2
   8  13   4 1818.77 157.457   1
  -8  13  -4 1728.96 186.424   4
  -9  13  -4 13120.6 449.117   6
  -9 -13  -4 12615.3 405.077   2
  -9 -13  -4 13524.9 505.857   6
  -9  13  -4 13103.4 487.964   4
 -10  13  -4 6757.94 334.805   6
 -10 -13  -4 6889.36 381.501   6
 -10  13  -4 6807.31 371.486   4
 -11  13  -4 5633.63 322.322   6
 -11 -13  -4 6087.59 375.511   6
 -11  13  -4 5689.17 356.396   4
 -12  13  -4 3149.63 262.290   6
  13 -14  -4 9.68179 146.479   3
 -13 -14   4 326.380 155.005   2
  12 -14  -4 11888.2 489.482   3
  12  14  -4 11335.0 493.562   6
  11 -14  -4 9996.27 434.351   3
  11  14  -4 10081.6 444.526   6
  10 -14  -4 4537.73 284.105   3
  10  14  -4 3759.61 274.560   6
 -10  14   4 3894.33 205.669   1
   9 -14  -4 23689.3 639.984   3
   9  14  -4 24130.8 646.636   6
   8 -14  -4 2660.52 210.245   3
   8 -14  -4 2842.81 133.623   6
   8  14  -4 3043.40 213.798   6
   7 -14  -4 12635.6 418.442   3
   7 -14  -4 12900.5 266.923   6
  -7  14   4 12300.5 255.088   6
   7  14  -4 12311.6 401.616   6
   6 -14  -4 23121.4 570.428   3
   6 -14  -4 23541.6 363.276   6
   6  14  -4 22589.3 550.174   6
  -6  14   4 22457.4 354.879   6
   5 -14  -4 8862.18 317.217   3
   5  14  -4 8847.76 298.542   6
   4 -14  -4 28194.7 612.025   3
  -4 -14   4 28813.0 614.691   2
   4  14  -4 28552.2 504.770   5
   4  14  -4 28433.1 587.084   6
  -3 -14   4 68927.8 1108.57   2
   3  14  -4 68235.1 1005.64   5
   3  14  -4 67716.4 1071.05   6
  -2 -14   4 927.037 111.029   2
   2 -14  -4 972.938 124.730   5
   2  14  -4 1186.17 115.317   6
  -1 -14   4 24291.0 511.931   2
   1 -14  -4 24201.1 368.781   6
   1 -14  -4 25278.6 545.063   5
   1  14  -4 24572.8 500.428   6
   1 -14  -4 24514.9 362.200   6
   0 -14  -4 47501.7 679.821   6
   0 -14  -4 48349.6 856.575   5
   0 -14  -4 48870.9 695.430   6
   0 -14   4 47897.6 799.892   2
   0 -14   4 47894.5 765.481   4
   0  14  -4 47611.9 797.931   6
   1  14   4 22904.2 488.523   3
  -1 -14  -4 23974.9 540.345   5
  -1 -14  -4 23429.9 419.888   6
  -1 -14  -4 23519.6 433.155   6
   1  14   4 23660.7 417.030   4
   1 -14   4 23803.9 474.421   2
   1 -14   4 24007.8 475.945   4
  -1  14  -4 23624.1 487.270   6
   2  14   4 51382.6 845.201   3
  -2 -14  -4 51495.2 922.904   5
  -2 -14  -4 52680.1 816.528   6
  -2 -14  -4 51551.1 821.205   6
  -2 -14  -4 53593.4 916.719   2
   2  14   4 50963.8 777.816   4
  -2  14  -4 52273.6 858.389   6
   2 -14   4 51883.9 810.379   2
   3  14   4 28658.7 548.978   3
   3 -14   4 28655.1 506.415   2
  -3 -14  -4 29240.2 567.861   6
  -3 -14  -4 28994.2 617.638   2
  -3 -14  -4 28298.3 562.387   6
  -3  14  -4 27691.1 568.444   6
   4  14   4 9782.39 281.390   3
  -4 -14  -4 10276.7 329.805   6
  -4 -14  -4 9829.81 334.658   2
  -4  14  -4 9866.56 312.820   6
  -5  14  -4 48949.9 855.384   6
   5  14   4 45647.0 774.002   3
  -5 -14  -4 48652.8 886.064   2
  -5 -14  -4 46897.5 887.681   6
  -6  14  -4 10819.5 349.203   6
  -6 -14  -4 10659.0 361.333   2
  -6 -14  -4 9710.10 370.368   6
  -7  14  -4 7719.48 308.776   6
  -7 -14  -4 7793.44 315.916   2
  -7 -14  -4 7741.41 353.426   6
  -7  14  -4 8231.15 345.080   4
   7  14   4 8246.06 328.159   1
  -8  14  -4 17675.6 504.490   6
  -8 -14  -4 17641.2 495.947   2
  -8 -14  -4 18436.8 573.638   6
  -8  14  -4 18296.5 555.336   4
   8  14   4 17672.4 490.661   1
  -9  14  -4 1106.33 153.267   6
  -9 -14  -4 1212.73 189.818   6
  -9 -14  -4 1207.04 150.877   2
  -9  14  -4 1040.29 172.786   4
 -10  14  -4 10065.5 409.756   6
 -10  14  -4 9929.94 442.875   4
 -10 -14  -4 9222.91 442.123   6
 -11  14  -4 8348.05 392.540   6
 -11 -14  -4 10102.4 472.737   6
 -11  14  -4 9281.45 450.669   4
 -12  14  -4-163.377 142.610   6
  13 -15  -4 2401.49 255.660   3
 -13 -15   4 2561.66 256.832   2
  12 -15  -4 159.524 152.875   3
 -12 -15   4 327.580 150.664   2
  12  15  -4 96.0038 144.954   6
  11  15  -4 774.488 172.104   6
  11 -15  -4 1279.53 191.684   3
 -11 -15   4 1117.19 177.152   2
  10 -15  -4 3799.16 273.804   3
  10  15  -4 3852.88 273.490   6
 -10  15   4 3038.46 189.988   1
   9 -15  -4 1078.74 170.199   3
  -9  15   4 626.691 81.0249   6
   9  15  -4 1058.55 165.471   6
  -9  15   4 663.312 111.007   1
   8 -15  -4 3697.98 245.401   3
  -8  15   4 3409.34 133.202   6
   8  15  -4 3396.73 229.144   6
   7 -15  -4 170.540 107.256   3
  -7  15   4 319.546 44.3346   6
   7  15  -4 402.183 121.392   6
   6 -15  -4-83.0519 104.614   3
  -6  15   4 142.409 24.0911   6
   6  15  -4 171.669 93.3294   6
   5  15  -4 9974.70 336.679   6
   5 -15  -4 10093.9 355.270   3
  -5 -15   4 10545.0 362.530   2
   4 -15  -4 6423.85 275.830   3
  -4 -15   4 6559.17 275.389   2
   4  15  -4 6240.62 206.948   5
   4  15  -4 6361.00 251.314   6
  -3 -15   4 10590.5 339.553   2
   3  15  -4 10371.1 284.216   5
   3  15  -4 10578.4 321.025   6
  -2 -15   4 21912.9 502.602   2
   2  15  -4 21937.0 475.247   6
   1 -15  -4 1793.90 153.470   5
   1 -15  -4 1625.26 61.5023   6
  -1 -15   4 1607.34 104.428   4
  -1 -15   4 1544.66 128.584   2
   1  15  -4 1828.64 131.121   6
   1 -15  -4 1664.72 59.6801   6
   0 -15  -4 14644.3 269.240   6
   0 -15  -4 14138.4 403.642   5
   0 -15  -4 14456.9 277.354   6
   0 -15   4 14059.7 364.586   2
   0 -15   4 14635.0 335.559   4
   0  15  -4 14456.3 360.912   6
  -1 -15  -4 29096.7 490.474   6
  -1 -15  -4 29674.6 630.127   5
  -1 -15  -4 29511.5 504.136   6
   1  15   4 28102.5 479.437   4
   1 -15   4 29804.7 555.314   4
   1 -15   4 29313.7 561.560   2
  -1 -15  -4 30305.7 629.809   2
  -1  15  -4 29984.4 573.428   6
   2  15   4 6327.16 234.719   3
  -2 -15  -4 6527.54 211.614   6
  -2 -15  -4 6428.28 212.822   6
  -2 -15  -4 6277.70 274.674   5
  -2 -15  -4 6748.03 274.290   2
   2  15   4 6127.49 186.506   4
  -2  15  -4 6707.22 240.534   6
   2 -15   4 6257.33 218.087   2
  -3  15  -4 1186.34 116.152   6
   3  15   4 1034.57 107.453   3
  -3 -15  -4 907.921 104.628   6
   3 -15   4 1150.61 96.3563   2
  -3 -15  -4 984.710 140.460   5
  -3 -15  -4 1101.80 108.240   6
  -3 -15  -4 932.799 126.045   2
  -4  15  -4 382.463 87.0634   6
   4  15   4 497.510 88.2856   3
  -4 -15  -4 424.442 97.6722   6
  -4 -15  -4 526.483 109.723   2
  -5  15  -4 1104.36 125.478   6
   5  15   4 1016.83 111.049   3
  -5 -15  -4 889.065 131.352   6
  -5 -15  -4 939.485 135.077   2
  -6  15  -4 10150.9 338.493   6
  -6 -15  -4 9559.69 351.506   2
  -6 -15  -4 8964.39 356.467   6
  -7  15  -4 5325.92 255.298   6
  -7 -15  -4 5211.00 266.732   2
  -7 -15  -4 5176.73 292.535   6
  -7  15  -4 4956.69 273.736   4
   7  15   4 5197.48 268.214   1
   8  15   4 1998.08 179.902   1
  -8  15  -4 1872.76 178.116   6
  -8 -15  -4 2265.29 220.834   6
  -8 -15  -4 1778.95 172.156   2
  -8  15  -4 1886.01 195.196   4
  -9  15  -4 7559.63 337.647   6
  -9 -15  -4 7680.67 329.763   2
  -9 -15  -4 7434.77 382.787   6
  -9  15  -4 7971.12 382.274   4
 -10  15  -4 360.016 147.058   6
 -10 -15  -4 549.053 167.606   6
 -10  15  -4 608.989 159.184   4
 -11  15  -4 2702.38 246.579   6
  12 -16  -4 723.498 188.749   3
 -12 -16   4 993.385 187.330   2
  12  16  -4 808.536 180.942   6
  11 -16  -4 1452.38 207.032   3
 -11 -16   4 1427.83 196.525   2
  11  16  -4 1573.86 211.155   6
  10 -16  -4 50.6821 136.413   3
 -10 -16   4 317.916 157.761   2
  10  16  -4 145.280 136.719   6
 -10  16   4 162.568 98.1668   1
   9 -16  -4 3460.55 252.298   3
  -9 -16   4 3472.37 250.521   2
   9  16  -4 3388.73 253.148   6
  -9  16   4 3323.48 208.353   1
   8 -16  -4 1178.65 167.003   3
  -8 -16   4 1263.76 165.990   2
   8  16  -4 1386.67 164.727   6
   7 -16  -4 17405.2 505.085   3
  -7 -16   4 16305.3 493.046   2
   7  16  -4 16795.2 484.230   6
   6 -16  -4 6311.66 294.155   3
  -6 -16   4 6443.51 303.852   2
   6  16  -4 6601.79 286.066   6
   5 -16  -4 152.253 98.9127   3
  -5 -16   4 165.796 102.345   2
   5  16  -4 238.611 92.1212   6
  -4 -16   4 1068.36 141.916   2
   4  16  -4 1126.32 105.841   5
   4  16  -4 1189.84 128.190   6
  -3 -16   4 15742.9 434.696   2
   3  16  -4 15499.2 372.548   5
   3  16  -4 16035.2 411.508   6
  -2 -16   4 2711.70 176.560   2
   2  16  -4 2487.05 158.258   6
   1 -16  -4 303.750 103.624   5
   1 -16  -4 355.036 26.7839   6
  -1 -16   4 329.525 87.9118   2
   1  16  -4 435.292 84.2389   6
  -1 -16   4 493.611 68.6823   4
   1 -16  -4 351.951 25.3425   6
   0 -16  -4 683.840 54.2098   6
   0  16   4 698.605 62.3053   4
   0 -16  -4 695.971 116.173   5
   0 -16  -4 755.018 57.0317   6
   0  16  -4 677.245 94.7212   6
   0 -16   4 673.857 98.9665   2
   0 -16   4 702.717 81.8008   4
  -1 -16  -4 5586.36 170.940   6
  -1 -16  -4 5888.15 267.561   5
  -1 -16  -4 5838.60 181.472   6
  -1 -16  -4 5644.30 257.313   2
   1  16   4 5874.34 166.429   4
   1 -16   4 5481.59 206.392   4
   1 -16   4 5518.04 222.460   2
  -1  16  -4 5688.76 221.810   6
   2 -16   4 6930.00 238.144   2
  -2 -16  -4 7388.16 225.933   6
  -2 -16  -4 7179.00 296.835   5
  -2 -16  -4 7459.14 297.727   2
   2  16   4 6908.62 197.163   4
  -2 -16  -4 7173.89 228.420   6
  -2  16  -4 6800.71 246.679   6
  -3 -16  -4 22301.8 479.821   6
   3 -16   4 22080.8 452.026   2
  -3 -16  -4 22043.6 547.598   2
  -3 -16  -4 21499.7 551.274   5
  -3  16  -4 22463.0 493.589   6
  -4 -16  -4 5999.14 252.358   6
  -4 -16  -4 6348.11 281.822   2
  -4 -16  -4 5736.47 283.929   5
  -4  16  -4 6029.36 243.812   6
  -5 -16  -4 5140.72 260.456   2
  -5 -16  -4 4772.42 245.784   6
  -5  16  -4 4716.98 224.812   6
  -6  16  -4 399.414 93.8579   6
  -6 -16  -4 747.121 139.819   6
  -6 -16  -4 281.111 109.838   2
   6  16   4 410.885 115.471   1
  -7  16  -4 1102.16 136.572   6
   7  16   4 1212.08 148.004   1
  -7 -16  -4 1232.10 167.469   6
  -7 -16  -4 1119.96 145.767   2
  -8  16  -4 2846.07 204.975   6
   8  16   4 2587.14 201.305   1
  -8 -16  -4 3112.58 219.805   2
  -8 -16  -4 2524.99 223.435   6
  -8  16  -4 2758.39 225.869   4
  -9  16  -4 2864.35 219.020   6
  -9 -16  -4 2824.81 212.088   2
  -9 -16  -4 2692.89 247.551   6
  -9  16  -4 2426.40 233.284   4
 -10  16  -4 5530.02 310.929   6
 -10 -16  -4 6695.97 380.773   6
 -10  16  -4 5249.97 329.674   4
 -11  16  -4 1741.93 209.112   6
  12 -17  -4 975.905 201.202   3
  12  17  -4 1000.01 193.342   6
 -12 -17   4 812.214 179.713   2
  11 -17  -4 1687.81 225.940   3
 -11 -17   4 2286.41 236.272   2
  11  17  -4 1758.93 221.927   6
  10 -17  -4 22746.4 671.610   3
 -10 -17   4 23321.5 675.776   2
  10  17  -4 21590.6 661.371   6
   9 -17  -4-106.766 132.533   3
  -9  17   4-183.016 97.1130   1
  -9 -17   4-72.5076 120.166   2
   9  17  -4-41.9160 115.792   6
   8 -17  -4 19103.3 571.407   3
  -8 -17   4 18474.8 565.435   2
   8  17  -4 18275.3 545.907   6
   7 -17  -4 36720.6 814.777   3
  -7 -17   4 36608.5 815.962   2
   7  17  -4 34681.1 767.817   6
   6 -17  -4 854.576 145.346   3
  -6 -17   4 955.102 148.583   2
   6  17  -4 807.533 127.844   6
  -5 -17   4 29454.7 670.853   2
   5  17  -4 27704.2 624.090   6
  -4 -17   4 24162.1 586.166   2
   4  17  -4 24088.0 493.204   5
   4  17  -4 23936.6 544.452   6
  -3 -17   4 28397.3 629.950   2
   3  17  -4 27882.8 588.530   6
   2  17  -4 100041. 1460.99   6
  -2 -17   4 98888.4 1509.37   2
   1 -17  -4 11794.7 380.165   5
  -1 -17   4 11217.1 347.978   2
  -1 -17   4 11387.8 282.496   4
   1  17  -4 11649.5 330.112   6
   0 -17   4 31964.0 632.336   2
   0 -17  -4 31328.3 465.329   6
   0 -17  -4 31579.8 675.973   5
   0 -17  -4 31189.0 470.672   6
   0  17   4 30395.7 486.156   4
   0 -17   4 30550.9 556.743   4
   0  17  -4 32111.4 610.626   6
  -1 -17  -4 29464.9 488.682   6
  -1 -17  -4 29694.1 657.405   5
  -1 -17  -4 29949.9 653.732   2
  -1 -17  -4 29656.7 496.661   6
   1  17   4 28190.9 467.382   4
   1 -17   4 28677.9 553.001   4
  -1  17  -4 30207.7 587.511   6
   1 -17   4 29844.2 590.420   2
   2 -17   4 11024.2 312.162   2
  -2 -17  -4 10891.4 281.499   6
  -2 -17  -4 10702.7 373.790   5
  -2 -17  -4 10925.6 371.072   2
  -2 -17  -4 10562.3 280.380   6
  -2  17  -4 10953.8 319.371   6
  -3 -17  -4 44604.1 774.321   6
   3 -17   4 45018.6 759.935   2
  -3 -17  -4 45567.4 886.234   2
  -3 -17  -4 43269.0 873.381   5
  -3  17  -4 45345.2 797.160   6
  -4 -17  -4 29447.3 620.054   6
  -4 -17  -4 29900.5 682.821   2
  -4 -17  -4 28902.5 683.937   5
  -4  17  -4 29502.7 609.517   6
  -5 -17  -4 3774.96 223.489   6
  -5 -17  -4 3767.78 236.059   2
  -5 -17  -4 3881.36 250.833   5
  -5  17  -4 3888.90 207.488   6
  -6  17  -4 18601.4 481.987   6
  -6 -17  -4 18603.3 529.252   2
  -6 -17  -4 17409.0 514.739   6
   6  17   4 17756.7 533.458   1
  -7  17  -4 13038.4 406.670   6
  -7 -17  -4 12514.2 432.112   2
  -7 -17  -4 12082.9 443.184   6
   7  17   4 12720.6 443.336   1
  -8  17  -4 390.065 107.716   6
  -8 -17  -4 649.008 157.558   6
  -8 -17  -4 601.061 135.496   2
   8  17   4 814.909 131.468   1
  -9  17  -4 18618.0 546.347   6
  -9 -17  -4 19005.0 556.759   2
  -9 -17  -4 18894.7 618.010   6
  -9  17  -4 18242.6 586.102   4
 -10  17  -4 5205.61 299.609   6
 -10 -17  -4 4923.17 333.215   6
 -10  17  -4 5509.20 334.479   4
 -11  17  -4 8697.25 397.968   6
  12 -18  -4 8146.07 433.043   3
 -12 -18   4 7488.44 408.081   2
  12  18  -4 7647.02 426.007   6
  11 -18  -4 5584.21 351.233   3
 -11 -18   4 5284.03 339.224   2
  11  18  -4 4857.24 329.146   6
  10 -18  -4 1980.27 235.926   3
 -10 -18   4 2165.63 228.727   2
  10  18  -4 2143.12 229.561   6
   9 -18  -4 8865.68 401.677   3
  -9 -18   4 9664.28 416.793   2
   9  18  -4 8964.38 400.134   6
  -9  18   4 8858.31 348.003   1
   8 -18  -4 16513.5 537.979   3
  -8 -18   4 15831.3 525.617   2
   8  18  -4 16134.9 520.138   6
  -8  18   4 15764.9 485.468   1
  -7 -18   4 10790.0 416.585   2
   7  18  -4 9739.02 378.996   6
  -6 -18   4 4793.40 273.076   2
   6  18  -4 4952.75 254.351   6
  -5 -18   4 262.138 116.400   2
   5  18  -4 216.244 94.4785   6
  -4 -18   4 9669.90 359.534   2
   4  18  -4 9599.08 327.543   6
  -3 -18   4 3461.51 215.575   2
   3  18  -4 3830.97 202.655   6
  -2 -18   4 2869.59 192.439   2
  -2 -18   4 2788.08 131.701   4
   2  18  -4 3044.84 177.959   6
   1 -18  -4 29234.4 657.739   5
  -1 -18   4 28605.5 619.679   2
  -1 -18   4 28383.4 512.375   4
   1  18  -4 28844.9 582.040   6
   0 -18  -4 49477.9 670.125   6
   0 -18  -4 50089.7 928.639   5
   0 -18  -4 47381.2 671.907   6
   0  18   4 48080.8 691.001   4
   0 -18   4 51024.3 882.276   2
   0 -18   4 49872.8 787.747   4
   0  18  -4 50231.1 843.189   6
  -1 -18  -4 1853.89 173.481   5
   1 -18   4 1633.98 136.801   2
  -1 -18  -4 1907.91 97.1081   6
  -1 -18  -4 1849.87 98.4010   6
  -1 -18  -4 1703.24 163.002   2
   1  18   4 1746.53 84.4726   4
   1 -18   4 1729.64 119.649   4
  -1  18  -4 1763.16 133.137   6
   2 -18   4 12376.8 345.699   2
  -2 -18  -4 12343.5 302.708   6
  -2 -18  -4 12000.1 409.246   5
  -2 -18  -4 11542.4 296.978   6
  -2  18  -4 12441.2 347.067   6
  -2 -18  -4 13138.4 417.883   2
  -3 -18  -4 23861.2 505.460   6
   3 -18   4 24344.5 509.495   2
  -3 -18  -4 24238.7 607.142   2
  -3 -18  -4 23762.6 602.763   5
  -3  18  -4 24330.5 527.928   6
  -4 -18  -4 4781.36 229.620   6
  -4 -18  -4 4729.22 260.308   2
  -4 -18  -4 4640.21 262.282   5
  -4  18  -4 4859.14 220.154   6
  -5 -18  -4 22213.2 560.981   6
  -5 -18  -4 22955.0 606.060   2
   5  18   4 23306.0 630.574   1
  -5 -18  -4 23139.7 620.868   5
  -5  18  -4 23040.7 536.983   6
  -6  18  -4 419.495 104.660   6
  -6 -18  -4 399.689 117.124   6
  -6 -18  -4 588.267 133.328   2
  -6 -18  -4 704.295 149.331   5
   6  18   4 395.276 121.070   1
   7  18   4 5704.59 303.601   1
  -7  18  -4 5891.61 273.676   6
  -7 -18  -4 5936.27 306.900   2
  -7 -18  -4 5389.65 303.064   6
  -7 -18  -4 5656.43 316.016   5
  -8  18  -4 15528.3 471.016   6
   8  18   4 15794.8 501.387   1
  -8 -18  -4 16693.4 523.951   2
  -8 -18  -4 15536.1 539.975   6
  -9  18  -4 80.0752 108.305   6
  -9 -18  -4 249.241 156.844   6
 -10  18  -4 5402.38 301.249   6
 -10 -18  -4 5514.52 349.245   6
  11  19  -4-129.644 153.241   6
 -11 -19   4-20.9442 134.267   2
  10  19  -4 342.503 136.854   6
 -10 -19   4 448.993 147.405   2
  -9  19   4 1081.23 149.400   1
   9  19  -4 883.369 166.924   6
  -9 -19   4 689.995 167.830   2
  -8  19   4 20.3913 98.5619   1
  -8 -19   4 362.066 136.288   2
   8  19  -4 288.953 122.141   6
   7  19  -4 1369.28 163.138   6
  -7 -19   4 1225.71 167.629   2
  -7  19   4 945.700 149.038   1
  -6 -19   4 9925.35 394.432   2
   6  19  -4 9174.35 351.318   6
  -5 -19   4 565.108 136.884   2
   5  19  -4 525.360 110.457   6
  -4 -19   4 3281.04 221.493   2
   4  19  -4 3182.91 190.992   6
   3  19  -4 122.217 88.9384   6
  -3 -19   4 39.2360 96.7456   2
   2  19  -4 198.814 81.0338   6
  -2 -19   4 306.491 103.503   2
  -2 -19   4 140.339 52.8657   4
   1  19  -4 137.252 82.5536   6
  -1 -19   4 27.0862 52.7806   4
  -1 -19   4-40.5024 85.0231   2
   0 -19   4 620.306 110.096   2
   0 -19  -4 571.726 43.6271   6
   0 -19  -4 624.405 139.275   5
   0 -19  -4 392.031 40.1956   6
   0  19  -4 629.323 102.697   6
   0  19   4 449.234 47.7897   4
   0 -19   4 379.378 67.1523   4
   1 -19   4 419.289 93.9594   2
  -1 -19  -4 423.001 54.3719   6
  -1 -19  -4 361.891 113.701   5
  -1 -19  -4 479.978 57.6238   6
  -1 -19  -4 258.122 100.761   2
  -1  19  -4 405.797 85.3012   6
   1 -19   4 383.813 78.4462   4
  -2 -19  -4 1975.03 187.626   5
  -2 -19  -4 1687.02 111.157   6
   2 -19   4 1553.60 134.603   2
  -2 -19  -4 1794.95 115.035   6
  -2 -19  -4 1769.21 177.976   2
  -2  19  -4 1733.05 138.913   6
  -3 -19  -4 936.340 105.205   6
  -3 -19  -4 1191.65 164.737   5
   3 -19   4 1085.34 120.280   2
  -3 -19  -4 910.553 151.946   2
  -3  19  -4 936.973 110.995   6
  -4 -19  -4 2064.97 158.582   6
  -4 -19  -4 1856.51 191.659   5
  -4 -19  -4 1909.78 183.817   2
  -4  19  -4 2274.23 158.854   6
  -5  19  -4 36.5832 75.3430   6
  -5 -19  -4-63.5799 83.8448   6
   5  19   4-80.0887 110.487   1
  -5 -19  -4 62.4451 118.489   5
  -5 -19  -4-11.1239 106.467   2
  -6  19  -4 343.522 95.6820   6
  -6 -19  -4 368.829 109.276   6
   6  19   4 277.535 114.737   1
  -6 -19  -4 267.276 127.898   2
  -6 -19  -4 208.372 125.573   5
  -7  19  -4 308.742 104.485   6
  -7 -19  -4 176.230 123.237   2
  -7 -19  -4 90.4678 105.239   6
  -7 -19  -4 193.525 142.782   5
   7  19   4 178.628 110.121   1
  -8  19  -4 2270.92 189.639   6
   8  19   4 2192.45 207.058   1
  -8 -19  -4 2320.33 225.143   6
  -8 -19  -4 2422.23 226.005   2
  -8 -19  -4 1990.91 219.360   5
  -9  19  -4 41.6798 104.808   6
  -9 -19  -4 7.62057 130.008   6
  -9 -19  -4-132.972 140.436   2
  -9 -19  -4 83.3852 139.020   5
 -10 -19  -4 139.391 143.830   6
 -10 -19  -4 253.041 143.903   5
  11  20  -4 1996.17 233.823   6
 -11 -20   4 1646.81 223.849   2
  10  20  -4 1750.48 218.069   6
 -10 -20   4 1410.86 214.708   2
  -9  20   4 12024.0 428.546   1
  -9 -20   4 13386.6 510.574   2
   9  20  -4 13258.2 501.406   6
  -8  20   4 698.854 136.895   1
   8  20  -4 892.518 155.707   6
  -8 -20   4 468.953 138.924   2
   7  20  -4 8279.80 356.512   6
  -7 -20   4 8999.35 395.854   2
  -7  20   4 8857.20 376.382   1
  -6 -20   4 3052.19 234.592   2
   6  20  -4 2872.49 204.809   6
  -6  20   4 2987.62 227.998   1
  -5 -20   4 2997.95 229.378   2
   5  20  -4 2717.91 197.682   6
  -4 -20   4 6020.58 297.932   2
   4  20  -4 5524.26 256.050   6
  -3 -20   4 15757.4 474.602   2
   3  20  -4 15740.5 430.328   6
   2  20  -4 948.833 125.498   6
  -2 -20   4 692.928 132.508   2
   1  20  -4 55000.7 919.126   6
  -1 -20   4 54342.6 982.792   2
  -1 -20   4 51585.0 809.265   4
   0 -20  -4 38311.0 540.022   6
   0 -20  -4 42869.1 858.721   5
   0  20  -4 44475.0 763.903   6
   0 -20   4 42377.9 687.224   4
   0 -20   4 43769.0 810.780   2
  -1 -20  -4 442.085 56.9253   6
   1 -20   4 134.948 88.9526   2
  -1 -20  -4 465.710 132.259   5
  -1 -20  -4 420.746 128.790   2
  -1  20  -4 243.579 80.4767   6
  -2 -20  -4 24923.9 635.875   2
   2 -20   4 24946.2 555.905   2
  -2 -20  -4 25442.1 475.710   6
  -2 -20  -4 23947.7 625.137   5
  -2  20  -4 24926.1 540.579   6
  -3 -20  -4 1005.58 107.244   6
  -3 -20  -4 562.572 133.257   5
   3 -20   4 883.871 114.100   2
  -3 -20  -4 860.980 148.471   2
  -3  20  -4 857.270 105.371   6
  -4 -20  -4 1072.26 124.253   6
   4  20   4 1234.55 175.296   1
  -4 -20  -4 1388.68 181.524   5
  -4 -20  -4 1193.50 161.321   2
  -4  20  -4 1302.54 128.264   6
  -5 -20  -4 9382.01 345.096   6
  -5 -20  -4 10166.7 406.931   2
  -5 -20  -4 9620.58 398.164   5
   5  20   4 9445.45 407.089   1
  -5  20  -4 10461.5 340.371   6
  -6  20  -4 361.426 98.7720   6
  -6 -20  -4 168.513 105.674   6
  -6 -20  -4 256.901 139.394   5
  -6 -20  -4 202.423 128.602   2
   6  20   4 299.120 122.847   1
   7  20   4 2568.70 223.485   1
  -7 -20  -4 2715.73 219.127   6
  -7 -20  -4 2990.04 254.351   5
  -7 -20  -4 2389.92 214.458   2
  -7  20  -4 3319.34 207.099   6
   8  20   4 19398.3 587.843   1
  -8 -20  -4 20703.0 617.596   2
  -8 -20  -4 19597.1 610.976   6
  -8 -20  -4 19729.7 625.248   5
  -8  20  -4 19651.6 540.345   6
  -9 -20  -4 211.837 144.203   6
  -9 -20  -4 51.9426 126.505   2
  -9 -20  -4 201.348 155.035   5
 -10 -20  -4 2544.86 256.314   6
 -10 -20  -4 1946.95 237.108   5
  11  21  -4 5778.35 372.718   6
 -10 -21   4 8399.43 427.121   2
  10  21  -4 8405.14 417.529   6
   9  21  -4 656.930 162.761   6
  -9 -21   4 870.720 185.941   2
  -9  21   4 355.461 118.242   1
  -8  21   4 7313.12 347.814   1
  -8 -21   4 7715.72 382.273   2
   8  21  -4 8064.20 373.836   6
  -7 -21   4 14813.5 517.800   2
   7  21  -4 14249.2 481.249   6
  -7  21   4 13314.6 480.541   1
  -6  21   4 580.413 136.511   1
   6  21  -4 448.862 114.049   6
  -6 -21   4 401.305 137.913   2
  -5 -21   4 34940.1 805.950   2
   5  21  -4 34661.8 747.509   6
  -5  21   4 33618.9 814.185   1
  -4 -21   4 5513.55 292.947   2
   4  21  -4 4703.97 241.511   6
  -3 -21   4 11604.1 408.906   2
   3  21  -4 10866.2 354.789   6
   2  21  -4 70509.7 1140.43   6
  -2 -21   4 68502.2 1211.99   2
   1  21  -4 12700.8 370.458   6
  -1 -21   4 12158.2 406.852   2
   0  21  -4 14873.2 396.864   6
   0 -21   4 14412.1 432.059   2
   1 -21   4 52106.5 945.922   2
  -1 -21  -4 51793.6 744.856   6
  -1 -21  -4 51091.7 1013.52   5
  -1  21  -4 53836.9 903.012   6
  -2 -21  -4 270.937 62.5188   6
   2 -21   4 314.702 100.366   2
  -2 -21  -4 477.476 130.663   2
  -2  21  -4 211.304 79.8648   6
  -2 -21  -4 203.562 124.598   5
  -3 -21  -4 16143.1 392.991   6
   3 -21   4 16331.1 433.681   2
  -3 -21  -4 15395.3 504.371   5
  -3 -21  -4 16296.0 515.912   2
  -3  21  -4 16342.8 425.080   6
   3  21   4 15745.3 540.274   1
  -4 -21  -4 6893.71 270.072   6
  -4 -21  -4 6963.16 343.362   2
  -4 -21  -4 6572.00 336.334   5
  -4  21  -4 6993.17 269.840   6
   4  21   4 6544.64 344.230   1
  -5 -21  -4 800.806 120.621   6
   5  21   4 651.435 147.356   1
  -5 -21  -4 443.372 141.164   5
  -5 -21  -4 702.394 147.589   2
  -5  21  -4 573.085 109.452   6
   6  21   4 21838.8 649.626   1
  -6 -21  -4 21758.1 588.206   6
  -6 -21  -4 22203.1 644.704   2
  -6 -21  -4 21832.4 645.171   5
  -6  21  -4 22349.9 543.324   6
   7  21   4 8161.73 385.793   1
  -7 -21  -4 8373.60 367.924   6
  -7 -21  -4 7796.99 379.653   2
  -7 -21  -4 8261.87 393.444   5
  -7  21  -4 8122.15 322.306   6
   8  21   4 5124.70 306.217   1
  -8 -21  -4 5116.46 313.110   6
  -8 -21  -4 4906.69 317.494   2
  -8 -21  -4 4915.52 323.319   5
  -9 -21  -4 7998.10 407.531   6
  -9 -21  -4 8785.50 410.778   2
  -9 -21  -4 8902.46 429.883   5
 -10 -21  -4 2812.71 268.606   6
  10  22  -4 156.712 131.303   6
 -10 -22   4 422.312 160.447   2
  -9  22   4 1012.24 156.604   1
   9  22  -4 1240.74 195.699   6
  -9 -22   4 1030.69 180.268   2
   8  22  -4 694.362 162.822   6
  -8 -22   4 574.284 162.858   2
  -8  22   4 578.898 143.432   1
   7  22  -4 2859.69 231.172   6
  -7  22   4 2318.76 212.099   1
  -7 -22   4 2787.31 249.633   2
   6  22  -4 2598.41 200.916   6
  -6 -22   4 2545.81 233.381   2
  -6  22   4 2609.15 228.591   1
  -5  22   4 552.413 129.212   1
   5  22  -4 357.220 111.629   6
  -5 -22   4 820.967 170.065   2
  -4  22   4 1445.32 174.394   1
   4  22  -4 1551.86 153.105   6
  -4 -22   4 1626.58 183.440   2
   3  22  -4 6168.34 268.166   6
  -3 -22   4 6050.01 305.313   2
   2  22  -4 631.745 109.998   6
  -2 -22   4 389.168 128.947   2
  -1 -22   4 12.2657 99.3706   2
   1  22  -4 75.4635 78.5098   6
   0 -22   4 2089.53 177.855   2
   0  22  -4 1969.91 148.962   6
   1 -22   4 6587.66 289.306   2
  -1 -22  -4 6043.87 316.115   5
  -1  22  -4 6676.21 258.949   6
   1  22   4 6245.93 349.417   1
  -2 -22  -4 16839.6 534.065   2
  -2 -22  -4 16651.3 354.000   6
   2 -22   4 16494.4 457.147   2
  -2 -22  -4 15846.4 516.976   5
  -2  22  -4 17110.8 432.383   6
   2  22   4 15735.3 553.329   1
  -3 -22  -4 1884.55 130.438   6
   3  22   4 1808.27 202.785   1
  -3 -22  -4 1891.47 203.998   5
   3 -22   4 1869.52 159.564   2
  -3 -22  -4 2064.11 197.575   2
  -3  22  -4 1749.84 145.909   6
  -4 -22  -4 1063.28 116.394   6
   4  22   4 885.876 164.199   1
  -4 -22  -4 1007.79 174.845   5
  -4 -22  -4 1180.60 168.399   2
  -4  22  -4 975.635 114.963   6
  -5 -22  -4 2416.01 183.191   6
  -5 -22  -4 2539.56 233.707   5
   5  22   4 2474.40 233.049   1
  -5 -22  -4 2623.92 237.712   2
  -5  22  -4 2703.95 180.854   6
  -6 -22  -4 1906.81 179.707   6
  -6 -22  -4 1778.91 205.157   5
  -6 -22  -4 2052.65 218.358   2
   6  22   4 1969.33 218.647   1
  -6  22  -4 1691.72 157.025   6
   7  22   4 2284.14 222.550   1
  -7 -22  -4 2045.59 207.551   6
  -7 -22  -4 2443.26 249.333   5
  -7 -22  -4 2537.55 242.563   2
   8  22   4 2034.52 218.622   1
  -8 -22  -4 2416.76 228.668   6
  -8 -22  -4 1996.19 228.486   2
  -8 -22  -4 1568.16 210.556   5
  -9 -22  -4 483.829 151.827   6
  -9 -22  -4 510.115 162.259   5
  -9 -22  -4 443.756 161.881   2
  10  23  -4 879.837 173.657   6
  -9  23   4 135.301 120.160   1
   9  23  -4 309.188 139.229   6
  -9 -23   4 447.450 158.592   2
  -8 -23   4 2700.45 255.466   2
   8  23  -4 2525.82 238.108   6
   7  23  -4 1910.66 198.308   6
  -7  23   4 2048.12 207.396   1
  -7 -23   4 2412.30 234.789   2
   6  23  -4 565.896 134.378   6
  -6  23   4 661.439 152.698   1
  -6 -23   4 579.631 159.007   2
  -5  23   4 1105.89 164.728   1
   5  23  -4 763.382 126.300   6
  -5 -23   4 1039.67 162.595   2
  -4  23   4 240.061 110.295   1
   4  23  -4 136.157 98.7213   6
  -4 -23   4 369.981 122.970   2
  -3  23   4 1158.29 175.743   1
   3  23  -4 1111.98 134.461   6
  -3 -23   4 898.487 158.689   2
   2  23  -4 17150.1 458.964   6
  -2 -23   4 18526.2 539.188   2
  -2  23   4 16536.6 571.552   1
   1  23  -4 4839.27 229.103   6
  -1  23   4 4387.25 294.522   1
  -1 -23   4 4577.81 264.838   2
   0  23  -4 3213.53 187.668   6
   0  23   4 3352.13 266.661   1
   0 -23   4 3228.51 220.548   2
   1 -23   4 14431.1 443.737   2
  -1 -23  -4 14059.6 489.160   5
  -1  23  -4 15603.9 414.320   6
   1  23   4 15015.9 540.236   1
   2  23   4 1125.62 177.078   1
  -2 -23  -4 1209.42 181.433   5
  -2 -23  -4 1210.30 178.569   2
  -2  23  -4 1307.78 130.800   6
   2 -23   4 1444.05 154.147   2
   3  23   4 1108.13 179.091   1
  -3 -23  -4 924.166 169.385   5
   3 -23   4 1376.09 149.925   2
  -3 -23  -4 1340.44 188.080   2
  -3  23  -4 992.191 118.337   6
  -4 -23  -4 4003.94 279.527   5
  -4 -23  -4 3646.57 264.543   2
  -4  23  -4 3824.91 208.671   6
   4  23   4 3204.72 264.532   1
  -5 -23  -4 106.005 90.8550   6
  -5 -23  -4 39.6732 131.656   2
   5  23   4 120.428 138.424   1
  -5 -23  -4 135.776 135.039   5
  -5  23  -4 145.988 91.6519   6
  -6 -23  -4 856.555 137.279   6
  -6 -23  -4 799.543 177.640   2
  -6 -23  -4 554.872 171.401   5
   6  23   4 1016.20 185.950   1
   7  23   4 1221.58 188.559   1
  -7 -23  -4 1316.32 167.888   6
  -7 -23  -4 1282.47 209.206   5
  -7 -23  -4 1231.29 194.261   2
   8  23   4 215.908 139.271   1
  -8 -23  -4 67.7620 121.374   6
  -8 -23  -4 367.136 172.189   5
  -8 -23  -4 430.328 159.135   2
  -9 -23  -4 9974.38 448.473   6
  -9 -23  -4 9992.31 461.319   2
  10  24  -4 3456.01 305.978   6
  -9  24   4 5147.74 303.941   1
   9  24  -4 4726.48 320.162   6
  -9 -24   4 4617.42 337.864   2
   8  24  -4 2098.36 224.850   6
  -8 -24   4 2282.81 239.865   2
  -7  24   4 2747.47 244.530   1
   7  24  -4 2327.23 216.104   6
  -7 -24   4 2058.03 234.462   2
  -6  24   4 22359.8 671.676   1
   6  24  -4 22724.0 616.525   6
  -6 -24   4 22442.1 672.805   2
   5  24  -4 143.014 101.728   6
  -5  24   4 153.825 110.853   1
  -5 -24   4 96.2122 126.684   2
   4  24  -4 10988.4 386.548   6
  -4 -24   4 11003.0 446.852   2
  -4  24   4 11017.9 462.569   1
   3  24  -4 15202.5 443.606   6
  -3 -24   4 15247.9 511.556   2
  -3  24   4 14042.8 537.209   1
  -2 -24   4 715.457 147.930   2
  -2  24   4 576.195 159.350   1
   2  24  -4 612.462 114.215   6
   1  24  -4 23331.3 546.687   6
  -1  24   4 22785.2 697.669   1
  -1 -24   4 22966.8 614.315   2
   0  24  -4 16133.9 430.088   6
   0  24   4 14597.0 545.619   1
   0 -24   4 15625.9 485.259   2
   1 -24   4 6353.19 300.598   2
  -1  24  -4 6467.37 259.964   6
   1  24   4 6088.38 355.513   1
   2 -24   4 32893.8 730.543   2
  -2 -24  -4 32694.7 807.905   5
  -2 -24  -4 34840.4 837.114   2
  -2  24  -4 34535.2 683.002   6
   2  24   4 32306.0 857.018   1
  -3 -24  -4 4164.06 288.344   5
   3 -24   4 4181.33 236.712   2
  -3 -24  -4 3683.92 269.690   2
  -3  24  -4 3933.74 206.703   6
   3  24   4 4118.75 294.050   1
  -4 -24  -4 1565.69 210.087   5
  -4 -24  -4 1737.32 205.158   2
   4  24   4 1755.89 219.237   1
  -4  24  -4 1657.55 145.413   6
   5  24   4 15664.7 573.235   1
  -5 -24  -4 16376.5 569.782   2
  -5 -24  -4 17303.9 583.938   5
   6  24   4 3278.10 273.380   1
  -6 -24  -4 3844.62 287.710   2
  -6 -24  -4 3338.52 285.887   5
   7  24   4 4311.37 304.034   1
  -7 -24  -4 4763.34 319.495   2
  -7 -24  -4 4846.24 331.242   5
  -8 -24  -4 10286.7 467.928   2
   9  25  -4 461.470 158.213   6
  -8  25   4 2837.66 251.036   1
   8  25  -4 2491.30 239.031   6
  -8 -25   4 2408.24 252.732   2
  -7  25   4 4448.34 300.758   1
   7  25  -4 3879.49 273.439   6
  -7 -25   4 4188.49 313.702   2
   6  25  -4 528.881 133.573   6
  -6  25   4 911.279 171.855   1
  -6 -25   4 390.698 151.696   2
  -5  25   4 19149.7 630.763   1
   5  25  -4 18832.5 546.621   6
  -5 -25   4 19447.7 618.355   2
   4  25  -4 3918.09 236.513   6
  -4 -25   4 4027.92 280.323   2
  -4  25   4 3462.31 280.067   1
  -3 -25   4 1191.61 172.267   2
   3  25  -4 1279.38 148.340   6
  -3  25   4 1272.88 188.599   1
   2  25  -4 16501.8 459.146   6
  -2 -25   4 16425.8 528.941   2
  -2  25   4 15384.6 570.542   1
  -1  25   4 2731.02 259.462   1
   1  25  -4 3314.60 201.395   6
  -1 -25   4 3272.79 239.691   2
   0 -25   4 4729.63 274.990   2
   0  25  -4 4830.44 230.873   6
   0  25   4 4673.53 325.387   1
   1 -25   4 5508.83 285.684   2
  -1  25  -4 5441.27 242.863   6
   1  25   4 5707.75 356.731   1
   2  25   4 356.325 161.380   1
   2 -25   4 683.498 136.171   2
  -2 -25  -4 388.296 136.520   2
  -2  25  -4 544.519 107.076   6
   3  25   4 11053.9 487.634   1
  -3 -25  -4 11345.5 465.967   5
   3 -25   4 11959.0 409.538   2
  -3 -25  -4 12259.7 488.381   2
   4  25   4 7680.71 406.616   1
  -4 -25  -4 8758.82 416.267   5
  -4 -25  -4 8176.42 406.330   2
  -5 -25  -4 1564.86 210.541   5
  -5 -25  -4 2170.76 234.907   2
   5  25   4 1337.84 203.490   1
   6  25   4 7950.12 413.890   1
  -6 -25  -4 7497.26 402.181   2
  -6 -25  -4 7968.94 415.074   5
   7  25   4 3224.77 274.552   1
  -7 -25  -4 3224.23 284.433   5
  -7 -25  -4 2999.38 272.705   2
   8  25   4 737.634 181.050   1
  -8 -25  -4 686.208 180.884   2
   9  26  -4 91.3029 139.911   6
  -8  26   4 452.662 150.324   1
   8  26  -4 538.095 161.271   6
  -7  26   4 451.091 153.374   1
   7  26  -4 96.3506 126.395   6
  -7 -26   4 374.506 152.892   2
   6  26  -4-55.3371 117.508   6
  -6  26   4 28.3776 113.473   1
  -6 -26   4 25.7556 144.211   2
   5  26  -4 2256.99 204.024   6
  -5  26   4 2041.98 230.271   1
  -5 -26   4 1909.51 229.782   2
   4  26  -4 47.5751 96.4193   6
  -4  26   4 37.7724 111.340   1
  -4 -26   4 285.961 161.753   2
  -3 -26   4-123.583 141.877   2
   3  26  -4-26.7824 89.4431   6
  -3  26   4-72.8111 153.219   1
  -2 -26   4-34.8096 122.988   2
  -2  26   4 245.175 148.717   1
   2  26  -4 116.257 95.5121   6
  -1 -26   4 115.087 123.382   2
  -1  26   4 237.346 150.514   1
   1  26  -4-7.20320 86.6744   6
   0 -26   4 1040.63 155.245   2
   0  26   4 1074.91 198.162   1
   0  26  -4 931.891 125.073   6
   1 -26   4 0.80320 109.474   2
   1  26   4-116.584 133.247   1
   2 -26   4 513.620 131.056   2
   2  26   4 655.573 171.826   1
  -2 -26  -4 431.109 154.286   2
  -3 -26  -4-62.0116 142.648   5
   3 -26   4 153.282 102.241   2
  -3 -26  -4 138.096 144.651   2
   3  26   4 3.44162 130.640   1
  -4 -26  -4 155.629 165.681   5
  -4 -26  -4 250.671 152.124   2
   4  26   4 117.171 155.918   1
   5  26   4 1215.71 201.832   1
  -5 -26  -4 819.427 183.574   5
  -5 -26  -4 1203.14 200.557   2
   6  26   4 2051.22 231.221   1
  -6 -26  -4 2485.17 253.802   5
  -6 -26  -4 2712.94 261.888   2
   7  26   4 823.357 170.741   1
  -7 -26  -4 994.021 204.420   2
   9  27  -4 119.134 144.512   6
   8  27  -4 5045.81 329.541   6
  -7  27   4 10165.4 459.050   1
   7  27  -4 10841.9 452.813   6
  -6  27   4 3277.56 274.290   1
  -6 -27   4 3669.06 298.095   2
   6  27  -4 3828.60 269.192   6
  -5  27   4 14335.0 563.783   1
   5  27  -4 15556.9 499.080   6
  -5 -27   4 15322.6 569.244   2
  -4  27   4 10518.8 479.718   1
   4  27  -4 11205.6 407.019   6
  -4 -27   4 11982.8 487.108   2
  -3 -27   4 1221.54 187.289   2
   3  27  -4 1308.08 149.992   6
  -3  27   4 1687.78 228.176   1
  -2  27   4 10060.3 479.720   1
   2  27  -4 10408.7 366.358   6
  -2 -27   4 10571.2 440.054   2
  -1 -27   4 5909.70 333.035   2
  -1  27   4 5930.56 375.498   1
   1  27  -4 6197.30 272.320   6
   0  27   4 4217.66 320.251   1
   0 -27   4 4383.85 280.789   2
   1  27   4 9987.74 473.760   1
   1 -27   4 9989.23 404.737   2
   2 -27   4 21.0916 114.000   2
   2  27   4 213.924 155.030   1
  -3 -27  -4 14724.6 553.895   2
   3 -27   4 13608.6 466.546   2
   4  27   4 10172.0 482.762   1
  -4 -27  -4 10027.3 458.298   5
  -4 -27  -4 11589.8 496.762   2
   5  27   4 1192.14 198.191   1
  -5 -27  -4 1373.33 208.374   5
  -5 -27  -4 1195.14 205.985   2
   6  27   4 6795.95 393.672   1
  -6 -27  -4 6903.45 400.328   2
  -8  28   4 1335.21 198.921   1
   8  28  -4 1220.63 198.629   6
  -7  28   4 6844.79 384.686   1
   7  28  -4 6480.58 361.612   6
  -6  28   4 11101.0 492.364   1
   6  28  -4 11286.1 447.498   6
  -6 -28   4 11679.8 518.831   2
  -5 -28   4 2547.63 263.257   2
   5  28  -4 3163.05 240.185   6
  -5  28   4 2208.46 238.759   1
  -4  28   4 7749.77 418.236   1
   4  28  -4 8248.89 350.080   6
  -4 -28   4 8601.90 426.190   2
  -3  28   4 10614.6 494.094   1
  -3 -28   4 10457.7 458.595   2
  -2 -28   4 738.003 166.206   2
  -2  28   4 371.417 164.107   1
  -1 -28   4 7771.01 384.307   2
  -1  28   4 7489.00 424.621   1
   0  28   4 6328.36 385.086   1
   0 -28   4 6775.92 350.751   2
   1 -28   4 2260.99 215.636   2
   1  28   4 2406.16 250.815   1
   2  28   4 15716.7 613.673   1
   2 -28   4 16532.4 534.064   2
   3  28   4 4178.69 321.941   1
   3 -28   4 3584.35 254.240   2
  -3 -28  -4 4350.36 321.168   2
   4  28   4 11003.0 503.810   1
  -4 -28  -4 11042.8 497.721   2
   5  28   4 16726.9 632.586   1
  -7  29   4 427.430 146.539   1
  -6  29   4 237.817 134.003   1
  -5  29   4 318.588 130.351   1
  -4  29   4 117.109 142.380   1
  -4 -29   4 177.700 149.312   2
  -3 -29   4 598.867 168.765   2
  -3  29   4 527.622 157.314   1
  -2 -29   4 1678.35 211.457   2
  -2  29   4 1361.82 205.709   1
  -1 -29   4 138.610 138.575   2
  -1  29   4-100.652 152.765   1
   0 -29   4 89.0289 126.405   2
   0  29   4 179.863 145.759   1
   1 -29   4 529.013 148.990   2
   1  29   4 287.874 141.796   1
   2  29   4 2285.59 264.678   1
   2 -29   4 2250.61 222.995   2
   3  29   4 492.762 178.121   1
  -3 -29  -4 818.035 194.010   2
  -3  30   4 929.877 199.320   1
  -3 -30   4 1183.71 200.444   2
  -2  30   4 2201.99 258.606   1
  -2 -30   4 2260.77 244.473   2
  -1  30   4 1257.98 228.342   1
  -1 -30   4 1196.51 194.842   2
   0 -30   4 1085.37 190.173   2
   1 -30   4 1010.77 182.830   2
   2 -30   4 3765.14 277.955   2
  -2 -31   4 13811.3 548.766   2
  -1 -31   4 5249.08 346.282   2
   0 -31   4 6994.87 380.364   2
   1 -31   4 6621.99 366.792   2
   2 -31   4 280.084 155.032   2
   1 -32   4 320.497 151.772   2
  14   0  -5-22.5874 135.953   6
  13   0  -5 112.765 137.729   6
  12   0  -5 23.1000 107.771   6
  11   0  -5-183.260 116.032   6
  10   0  -5-10.2549 101.506   6
   9   0  -5 73.8429 89.0218   6
   8   0  -5 109.729 82.2960   6
   7   0  -5 57.4428 83.2546   6
   6   0  -5 360.528 96.2176   6
   5   0  -5 121.855 71.7624   6
  -5   0   5 38.3933 51.3915   6
   4   0  -5 49.2071 36.1310   5
   4   0  -5 278.858 78.4613   6
  -4   0   5 168.847 62.7946   6
  -3   0   5 153.449 70.7534   6
   3   0  -5 388.755 87.3994   6
  -2   0   5 112.156 57.6703   6
   2   0  -5 28.2683 63.6430   6
  -1   0   5 152.215 63.2203   6
   1   0  -5 73.1171 61.8622   6
   0   0  -5 14.7067 61.7881   6
   0   0   5 29.3019 56.7579   6
  -1   0  -5-57.8903 63.3772   6
   1   0   5 2.27436 59.2913   6
  -2   0  -5-12.0596 66.1737   6
   2   0   5 27.6560 31.0117   2
  -3   0  -5 73.4633 71.6016   6
   3   0   5 17.1082 20.5724   2
  -4   0  -5-11.3315 76.7791   6
  -5   0  -5 22.9522 82.2270   6
  -6   0  -5-78.1283 98.4886   6
  -7   0  -5 95.7283 102.740   6
  -7   0  -5-1.51583 99.2668   4
  -8   0  -5-8.53050 105.540   6
  -8   0  -5-52.8209 118.539   4
  -9   0  -5-133.181 117.661   6
  -9   0  -5-110.517 136.459   4
 -10   0  -5 70.5496 128.916   6
 -10   0  -5 123.417 142.749   4
 -11   0  -5 150.070 135.330   6
 -11   0  -5-112.096 137.669   4
  15  -1  -5 12006.3 526.974   6
  14  -1  -5 8394.36 417.369   6
  14   1  -5 8605.44 432.689   6
  13  -1  -5 44.7186 126.980   6
  13   1  -5 244.099 151.367   6
  12   1  -5 1345.70 175.339   6
  12  -1  -5 976.674 154.001   6
  11  -1  -5 2390.19 198.928   6
  11   1  -5 2299.37 206.860   6
  10  -1  -5 16794.0 488.969   6
  10   1  -5 16519.6 496.385   6
  -9   1   5 7918.20 177.434   5
   9  -1  -5 9327.48 335.774   6
   9   1  -5 9079.80 333.024   6
   8  -1  -5 3759.11 202.273   6
   8   1  -5 3701.54 204.453   6
   7  -1  -5 33047.6 640.087   6
   7   1  -5 33371.5 650.285   6
   6  -1  -5 65516.1 1019.17   6
   6   1  -5 66646.5 1036.21   6
   5  -1  -5 19488.3 417.024   6
   5   1  -5 20254.1 432.254   6
  -5  -1   5 19750.3 419.779   6
  -5   1   5 19989.0 412.461   6
   4  -1  -5 38692.9 550.306   5
   4   1  -5 37631.4 519.753   5
   4  -1  -5 39093.3 647.120   6
   4   1  -5 39444.5 659.964   6
  -4  -1   5 39628.1 656.262   6
  -4   1   5 40937.8 648.155   6
   3   1  -5 153854. 2029.27   6
   3  -1  -5 153796. 2014.85   6
  -3  -1   5 155136. 2024.99   6
  -3   1   5 155959. 2011.93   6
  -2   1   5 39452.9 638.409   6
   2   1  -5 39972.4 656.073   6
   2  -1  -5 38857.9 640.478   6
  -2  -1   5 40390.7 653.328   6
  -1  -1   5 39212.0 643.093   6
  -1   1   5 39810.7 636.939   6
   1   1  -5 37412.8 641.763   6
   1  -1  -5 38403.3 635.843   6
   0  -1  -5 18461.0 389.006   6
   0  -1   5 19294.2 397.535   6
   0   1   5 19193.1 394.660   6
   0   1  -5 18947.8 397.942   6
  -1   1  -5 9191.32 266.282   6
  -1  -1  -5 9208.89 262.617   6
   1  -1   5 9551.76 269.907   6
   1   1   5 9104.19 268.126   6
  -2   1  -5 40651.3 703.991   6
  -2  -1  -5 39853.7 695.979   6
   2   1   5 40541.6 576.259   2
   2  -1   5 40350.1 553.983   2
  -3   1  -5 13361.5 353.294   6
  -3  -1  -5 13985.4 357.288   6
   3   1   5 13890.0 227.569   2
  -4   1  -5 9400.51 307.960   6
  -4  -1  -5 9265.07 308.834   6
  -5   1  -5 28015.4 611.057   6
  -5  -1  -5 27837.4 613.307   6
  -6   1  -5 924.090 128.068   6
  -6  -1  -5 960.655 140.363   6
  -7   1  -5 10292.2 384.491   6
  -7  -1  -5 10891.8 393.295   6
  -7  -1  -5 10789.7 399.928   4
  -7   1  -5 10028.5 393.002   4
  -8   1  -5 11513.3 424.520   6
  -8  -1  -5 11805.5 434.481   6
  -8  -1  -5 10934.8 425.834   4
  -8   1  -5 10949.3 429.773   4
  -9   1  -5 439.892 131.987   6
  -9  -1  -5 646.491 145.110   6
  -9  -1  -5 381.341 141.736   4
  -9   1  -5 395.508 130.716   4
 -10   1  -5 20018.3 626.501   6
 -10  -1  -5 20177.2 627.323   6
 -10  -1  -5 19392.8 633.558   4
 -10   1  -5 18796.7 631.321   4
 -11   1  -5 6567.21 374.604   6
 -11  -1  -5 6294.28 372.170   6
 -11   1  -5 6700.86 388.689   4
 -11  -1  -5 6415.73 380.410   4
  15  -2  -5 3683.82 314.993   6
  14   2  -5 2392.92 254.380   6
  14  -2  -5 1880.02 228.494   6
  13  -2  -5 17672.1 578.666   6
  13   2  -5 17243.3 586.524   6
  12  -2  -5 107.060 108.340   6
  12   2  -5 383.303 146.078   6
  11  -2  -5 5957.35 300.170   6
  11   2  -5 5949.27 310.438   6
  10  -2  -5 21079.7 555.332   6
  10   2  -5 21539.0 576.006   6
   9  -2  -5 155.384 91.7205   6
  -9   2   5 89.7343 43.2458   5
   9   2  -5 226.255 105.533   6
  -8   2   5 30221.8 470.300   5
   8  -2  -5 32169.4 640.539   6
   8   2  -5 33666.1 670.458   6
   7   2  -5 21476.9 493.812   6
   7  -2  -5 21293.9 476.042   6
   6  -2  -5 2413.82 147.728   6
   6   2  -5 2488.67 158.641   6
  -6   2   5 2348.53 137.884   6
   5  -2  -5 43548.2 712.684   6
   5   2  -5 42611.0 733.447   6
  -5   2   5 42964.4 701.145   6
   4  -2  -5 88693.9 1136.19   5
   4   2  -5 82456.7 1069.57   5
   4  -2  -5 90146.8 1224.08   6
   4   2  -5 90093.1 1254.45   6
  -4  -2   5 92033.0 1253.58   6
  -4   2   5 91291.7 1224.92   6
   3   2  -5 11057.0 287.358   6
   3  -2  -5 10979.1 272.379   6
  -3  -2   5 10783.2 283.380   6
  -3   2   5 11063.4 268.039   6
  -2   2   5 98268.7 1320.92   6
   2   2  -5 97504.0 1349.77   6
   2  -2  -5 94984.2 1320.84   6
  -2  -2   5 96948.7 1347.36   6
  -1  -2   5 12443.8 299.944   6
  -1   2   5 12372.5 288.308   6
   1   2  -5 12225.7 304.916   6
   1  -2  -5 12544.3 293.279   6
   0  -2  -5 80377.1 1162.10   6
   0  -2   5 83232.8 1180.12   6
   0   2   5 83645.6 1167.61   6
   0   2  -5 80879.6 1180.21   6
  -1   2  -5 99683.2 1425.68   6
  -1  -2  -5 100452. 1412.55   6
   1  -2   5 103501. 1436.01   6
   1   2   5 103946. 1428.74   6
  -2   2  -5 3316.48 165.648   6
  -2  -2  -5 3299.50 162.826   6
   2   2   5 3385.63 113.857   2
   2   2   5 3147.49 163.881   6
   2   2   5 3445.49 167.067   4
  -3   2  -5 64967.9 834.712   3
  -3   2  -5 72368.7 1081.74   6
  -3  -2  -5 72426.9 1078.81   6
   3   2   5 73211.5 907.516   2
  -4   2  -5 48001.8 843.177   6
  -4  -2  -5 47180.2 838.959   6
  -5   2  -5 262.293 95.9910   6
  -5  -2  -5 9.37897 90.2779   6
  -6   2  -5 43287.1 841.789   6
  -6  -2  -5 42999.6 855.672   6
  -7   2  -5 29957.0 692.258   6
  -7  -2  -5 30166.6 703.701   6
  -7  -2  -5 29838.3 702.949   4
  -7   2  -5 29091.0 713.515   4
  -8   2  -5 6635.25 317.999   6
  -8  -2  -5 6220.29 319.996   6
  -8  -2  -5 6160.01 320.710   4
  -8   2  -5 5925.92 320.463   4
  -9   2  -5 17805.1 552.581   6
  -9  -2  -5 16852.3 548.325   6
  -9  -2  -5 15978.6 546.670   4
  -9   2  -5 15499.7 549.382   4
 -10   2  -5 534.077 156.848   6
 -10  -2  -5 485.422 151.192   6
 -10  -2  -5 341.703 140.982   4
 -10   2  -5 489.935 150.431   4
 -11   2  -5 13027.3 513.691   6
 -11  -2  -5 11879.1 501.554   6
 -11  -2  -5 12221.8 509.359   4
 -11   2  -5 12082.9 521.487   4
  15  -3  -5 484.635 160.190   6
  14  -3  -5 1735.83 220.800   6
  14   3  -5 1644.70 227.001   6
  13  -3  -5 5526.42 326.604   6
  13   3  -5 4840.28 327.448   6
  12  -3  -5 2829.99 226.252   6
  12   3  -5 2704.82 237.620   6
  11  -3  -5 1689.95 180.252   6
  11   3  -5 2213.68 212.844   6
  10  -3  -5 2686.57 197.462   6
  10   3  -5 2491.28 204.085   6
  -9   3   5 3479.57 133.252   5
   9   3  -5 3665.81 224.327   6
   9  -3  -5 3776.75 215.823   6
   8  -3  -5 3251.18 186.549   6
  -8   3   5 3008.42 117.055   5
   8   3  -5 3289.01 197.922   6
   7  -3  -5 235.651 81.6342   6
   7   3  -5 174.112 93.5432   6
   6   3  -5 11661.7 332.716   6
   6  -3  -5 11623.2 309.137   6
  -6   3   5 11655.6 297.763   6
   5  -3  -5 269.967 68.1154   6
   5   3  -5 392.859 95.3267   6
  -5   3   5 291.997 66.5087   6
   4  -3  -5 28681.6 469.418   5
   4  -3  -5 29390.5 517.671   6
   4   3  -5 29959.7 556.715   6
  -4  -3   5 30847.8 553.943   6
  -4   3   5 30089.3 521.027   6
   3   3  -5 40107.5 678.872   6
   3  -3  -5 39796.4 643.771   6
  -3  -3   5 41290.8 677.448   6
  -3   3   5 41197.3 645.716   6
   3  -3  -5 39900.5 613.595   5
  -2  -3   5 76.5983 60.2457   6
  -2   3   5 52.1801 50.6376   6
   2   3  -5 273.700 79.1534   6
   2  -3  -5 187.536 65.0798   6
  -1  -3   5 38511.8 646.908   6
  -1   3   5 38926.6 622.770   6
   1   3  -5 37375.4 647.962   6
   1  -3  -5 38749.3 625.554   6
   0  -3  -5 12460.3 299.107   6
   0  -3   5 12589.9 310.627   6
   0   3   5 12415.3 296.587   6
   0   3  -5 12590.7 316.273   6
  -1   3  -5 21969.1 457.644   6
  -1  -3  -5 22217.1 344.724   3
  -1  -3  -5 21587.8 441.731   6
   1  -3   5 23259.4 465.404   6
   1   3   5 23087.2 459.658   6
   1   3   5 22237.9 394.473   2
   1  -3   5 23237.1 470.701   4
   2   3   5 6038.15 164.525   2
  -2   3  -5 5920.78 221.641   6
  -2  -3  -5 5718.60 212.845   6
   2   3   5 6000.76 220.084   6
   2   3   5 6716.66 229.480   4
  -3   3  -5 455.212 87.7870   6
  -3  -3  -5 425.630 89.3831   6
  -3   3  -5 413.779 35.1662   3
   3   3   5 489.488 55.2553   2
  -4   3  -5 1192.38 123.069   6
  -4  -3  -5 1339.83 132.397   6
   4   3   5 1373.33 70.2715   2
  -5   3  -5 5645.18 250.594   6
  -5  -3  -5 5915.27 260.256   6
  -6   3  -5 282.684 107.262   6
  -6  -3  -5 291.787 117.069   6
  -7   3  -5 5342.92 278.191   6
  -7  -3  -5 6050.61 298.623   6
  -7   3  -5 5823.27 299.462   4
  -8   3  -5 7873.84 346.913   6
  -8  -3  -5 8347.14 364.869   6
  -8  -3  -5 8164.96 362.261   4
  -8   3  -5 7296.00 354.034   4
  -9   3  -5 712.013 155.470   6
  -9  -3  -5 635.320 155.015   6
  -9  -3  -5 240.129 119.745   4
  -9   3  -5 636.414 155.165   4
 -10   3  -5 570.852 154.593   6
 -10  -3  -5 562.188 149.326   6
 -10  -3  -5 535.329 165.269   4
 -10   3  -5 480.102 137.746   4
 -11   3  -5 2278.06 229.643   6
 -11  -3  -5 2032.46 234.581   6
 -11  -3  -5 1955.88 229.158   4
 -11   3  -5 1598.85 224.750   4
  15  -4  -5 11.3896 142.163   6
  14  -4  -5 773.560 171.735   6
  14   4  -5 953.253 225.188   6
  13  -4  -5 1864.08 206.420   6
  13   4  -5 2337.16 243.041   6
  12  -4  -5 2178.99 203.384   6
  12   4  -5 2292.17 228.012   6
  11  -4  -5 449.214 118.759   6
  11   4  -5 445.729 133.649   6
  10  -4  -5 479.824 109.231   6
  10   4  -5 373.202 121.142   6
   9  -4  -5 279.235 103.525   6
  -9   4   5 184.766 64.3995   5
   9   4  -5 351.020 128.083   6
  -8   4   5 13997.9 296.888   5
   8   4  -5 14723.4 421.099   6
   8  -4  -5 15461.2 402.622   6
  -7   4   5 40850.1 626.405   5
   7  -4  -5 42471.3 731.206   6
   7   4  -5 41666.8 778.477   6
   6  -4  -5 108.592 61.6303   6
   6   4  -5 88.4713 91.3137   6
  -6   4   5 204.315 63.8975   6
   5  -4  -5 57452.4 873.394   6
   5   4  -5 56781.5 921.571   6
  -5   4   5 57761.4 863.865   6
   4  -4  -5 7018.07 193.607   5
   4  -4  -5 7058.03 210.062   6
   4   4  -5 7214.79 244.759   6
  -4  -4   5 7368.98 240.274   6
  -4   4   5 7268.61 210.333   6
  -3   4   5 346.975 63.7491   6
   3  -4  -5 236.529 64.0069   5
   3   4  -5 420.562 92.1338   6
   3  -4  -5 512.641 71.8694   6
  -3  -4   5 480.216 82.6086   6
  -2   4   5 28387.3 489.192   6
   2   4  -5 28272.0 529.756   6
   2  -4  -5 28235.0 489.654   6
  -2  -4   5 29405.6 530.868   6
   1  -4  -5 951.934 90.3748   6
  -1  -4   5 925.042 92.6906   6
  -1   4   5 1054.15 85.6811   6
   1   4  -5 826.079 98.7071   6
   0  -4  -5 11456.3 279.488   6
   0  -4   5 11392.6 296.632   6
   0   4   5 11887.8 288.084   6
   0   4  -5 11699.6 305.713   6
   0  -4  -5 11429.7 238.593   3
  -1   4  -5 18993.7 419.365   6
  -1  -4  -5 18805.3 396.710   6
  -1  -4  -5 18970.3 311.380   3
   1  -4   5 19355.6 422.741   6
   1   4   5 19510.1 410.218   6
   1   4   5 18879.4 362.855   2
   1  -4   5 20016.0 432.040   4
  -2   4  -5 1497.01 122.622   6
  -2  -4  -5 1673.31 121.556   6
   2   4   5 1689.90 125.072   6
   2   4   5 1813.50 124.092   4
   2   4   5 1610.59 92.0709   2
  -3   4  -5 14262.5 373.612   6
  -3  -4  -5 14162.3 368.470   6
  -3   4  -5 14332.2 251.543   3
   3   4   5 14315.4 287.587   2
  -4   4  -5 28753.8 604.856   6
  -4  -4  -5 29254.1 610.455   6
   4   4   5 29549.4 467.948   2
  -5   4  -5 205.172 90.8061   6
  -5  -4  -5 291.680 101.430   6
  -6   4  -5 26612.1 613.198   6
  -6  -4  -5 25410.1 619.666   6
  -7   4  -5 831.040 139.214   6
  -7  -4  -5 1044.85 152.407   6
  -7   4  -5 755.074 146.896   4
  -8   4  -5 1500.54 172.086   6
  -8  -4  -5 1496.32 184.247   6
  -8  -4  -5 1536.29 180.972   4
  -8   4  -5 1164.00 167.088   4
  -9   4  -5 5137.77 296.405   6
  -9  -4  -5 4497.98 290.070   6
  -9  -4  -5 5429.27 310.338   4
  -9   4  -5 4259.21 290.568   4
 -10   4  -5 884.693 166.629   6
 -10  -4  -5 947.300 178.817   6
 -10  -4  -5 896.141 166.746   4
 -10   4  -5 595.408 161.917   4
 -11   4  -5 2042.23 227.422   6
 -11  -4  -5 2134.43 240.223   6
 -11  -4  -5 1931.49 232.362   4
 -11   4  -5 1492.95 214.357   4
  15  -5  -5 7481.78 403.902   6
  14  -5  -5 2614.35 242.569   6
  14   5  -5 2378.98 261.477   6
  14  -5  -5 2534.43 255.986   3
  13  -5  -5 196.407 124.053   6
  13   5  -5 161.865 136.886   6
  12  -5  -5 18114.7 546.064   6
  12   5  -5 18884.8 599.645   6
  11  -5  -5 5711.54 287.193   6
  11   5  -5 5518.44 313.142   6
  10  -5  -5 3309.29 208.996   6
  10   5  -5 3174.34 233.777   6
  -9   5   5 33488.1 585.557   5
   9  -5  -5 35491.2 704.161   6
   9   5  -5 35854.1 759.326   6
  -8   5   5 6967.34 204.637   5
   8  -5  -5 7157.61 264.414   6
   8   5  -5 7137.22 294.609   6
  -7   5   5 21734.6 406.012   5
   7  -5  -5 22663.8 474.422   6
   7   5  -5 22761.5 525.873   6
   6  -5  -5 56298.1 873.169   6
   6   5  -5 55290.3 939.264   6
  -6   5   5 56347.6 859.755   6
   5  -5  -5 3365.87 147.688   6
   5   5  -5 3923.46 191.605   6
  -5   5   5 3200.81 142.581   6
   4  -5  -5 127773. 1678.43   5
   4  -5  -5 128476. 1689.49   6
   4   5  -5 127531. 1763.37   6
  -4   5   5 130397. 1688.29   6
  -3   5   5 134142. 1726.03   6
   3  -5  -5 131506. 1733.18   5
   3   5  -5 131802. 1795.93   6
   3  -5  -5 131396. 1726.33   6
  -3  -5   5 134292. 1798.02   6
  -2  -5   5 812.502 89.1015   6
  -2   5   5 868.581 78.2675   6
   2   5  -5 806.234 90.8946   6
   2  -5  -5 962.276 80.1275   6
  -1  -5   5 71230.0 1060.78   6
  -1   5   5 74949.8 1023.97   6
   1   5  -5 69510.9 1060.97   6
   1  -5  -5 72720.4 1019.54   6
   1  -5  -5 70224.5 1002.51   3
   0  -5  -5 18259.1 370.104   6
   0  -5  -5 18057.6 331.966   3
   0  -5   5 18392.7 399.522   6
   0   5   5 18504.3 377.162   6
   0   5   5 17588.4 366.806   2
   0   5  -5 18044.9 402.700   6
  -1  -5  -5 2045.04 119.522   6
  -1  -5  -5 2183.56 87.3836   3
   1   5   5 2167.15 111.730   2
   1   5   5 2055.08 126.009   6
   1  -5   5 2082.70 133.018   4
  -1   5  -5 2076.77 135.648   6
  -2   5  -5 59473.9 957.507   6
  -2  -5  -5 58965.1 933.198   6
   2   5   5 62146.2 955.519   6
   2   5   5 61693.3 949.390   4
   2   5   5 59116.9 865.895   2
  -3   5  -5 19407.2 454.411   6
  -3  -5  -5 20265.7 451.452   6
   3   5   5 19208.7 367.390   2
  -4   5  -5 3750.72 112.782   3
  -4   5  -5 3825.72 196.837   6
  -4  -5  -5 3681.47 198.052   6
   4   5   5 3563.62 134.181   2
  -5   5  -5 53939.9 953.298   6
  -5  -5  -5 54613.8 973.815   6
  -6   5  -5 3536.84 211.629   6
  -6  -5  -5 3248.49 213.713   6
  -7   5  -5 22316.6 581.379   6
  -7  -5  -5 22930.5 606.774   6
  -7   5  -5 22703.6 617.805   4
  -8   5  -5 34303.8 777.335   6
  -8  -5  -5 34678.1 809.247   6
  -8   5  -5 31910.3 802.552   4
  -9   5  -5 1600.65 179.430   6
  -9  -5  -5 1564.59 201.995   6
  -9  -5  -5 1453.75 177.388   4
  -9   5  -5 1762.53 209.841   4
 -10   5  -5 12736.7 486.027   6
 -10  -5  -5 13413.8 516.437   6
 -10  -5  -5 12466.3 489.831   4
 -10   5  -5 12015.6 503.205   4
 -11   5  -5 9100.72 422.269   6
 -11  -5  -5 7936.99 412.110   4
 -11  -5  -5 8633.33 434.081   6
 -11   5  -5 8682.70 439.416   4
  15  -6  -5 130.867 147.147   6
  14  -6  -5 92.2994 140.870   3
  14  -6  -5 339.321 149.200   6
  14   6  -5 392.889 170.260   6
  13  -6  -5 7464.16 361.311   6
  13   6  -5 7520.92 400.552   6
  13  -6  -5 6912.59 375.638   3
  12  -6  -5 62.7541 106.093   6
  12   6  -5 187.356 130.166   6
  11  -6  -5 10525.3 382.925   6
  11   6  -5 10132.9 421.318   6
  10  -6  -5 23497.5 571.829   6
  10   6  -5 24443.0 642.494   6
  -9   6   5 5919.05 211.639   5
   9  -6  -5 6182.77 259.359   6
   9   6  -5 6697.75 300.434   6
  -8   6   5 4764.89 177.828   5
   8  -6  -5 5593.64 228.084   6
   8   6  -5 5089.72 248.003   6
  -7   6   5 15848.4 341.916   5
   7  -6  -5 16699.1 386.397   6
   7   6  -5 16219.0 434.790   6
  -7   6   5 16321.1 370.018   6
   6  -6  -5 282.221 64.6778   6
   6   6  -5 422.896 103.016   6
  -6   6   5 348.742 67.6251   6
   5  -6  -5 117555. 1587.23   6
   5   6  -5 118707. 1682.60   6
  -5   6   5 120840. 1581.73   6
   4  -6  -5 1429.80 103.753   5
   4  -6  -5 1419.34 93.8650   6
   4   6  -5 1459.33 129.391   6
  -4   6   5 1387.97 91.0346   6
  -3   6   5 3980.00 142.796   6
   3  -6  -5 4287.28 165.346   5
   3   6  -5 4219.73 180.750   6
   3  -6  -5 4196.43 147.035   6
  -2   6   5 40219.0 618.268   6
   2  -6  -5 39556.9 653.137   5
   2   6  -5 38515.7 679.396   6
   2  -6  -5 39532.7 617.727   6
  -2  -6   5 41274.8 684.966   6
   2  -6  -5 38496.0 646.873   3
   1  -6  -5 20576.8 394.315   3
  -1  -6   5 21406.4 437.988   6
  -1   6   5 20979.9 393.824   6
   1   6  -5 20337.3 435.941   6
   1  -6  -5 21437.4 397.495   6
   0  -6  -5 48531.0 762.441   6
   0  -6  -5 50246.5 733.224   3
   0  -6   5 50918.9 813.849   6
   0   6   5 51134.1 778.271   6
   0   6   5 50718.5 785.440   2
   0   6  -5 49837.9 816.623   6
  -1  -6  -5 36019.9 627.165   6
   1   6   5 37642.3 619.224   2
   1   6   5 38360.2 646.896   6
   1  -6   5 38706.6 678.027   4
  -1   6  -5 37764.0 671.774   6
  -2   6  -5 4329.69 196.670   6
  -2  -6  -5 4604.83 187.930   6
   2  -6   5 4651.79 117.607   2
   2   6   5 4712.41 194.577   6
   2   6   5 4595.86 187.630   4
   2   6   5 4408.93 161.922   2
  -3   6  -5 11051.2 325.729   6
  -3  -6  -5 11221.4 321.417   6
   3   6   5 11069.7 265.460   2
  -4   6  -5 45185.1 649.506   3
  -4   6  -5 44209.9 805.244   6
  -4  -6  -5 43582.8 807.912   6
   4   6   5 43693.1 686.366   2
  -5   6  -5 11015.7 354.076   6
  -5  -6  -5 10056.6 349.820   6
  -6   6  -5 46125.1 883.892   6
  -6  -6  -5 47085.7 917.184   6
  -7   6  -5 10342.2 379.846   6
  -7  -6  -5 10395.4 401.383   6
  -7   6  -5 10365.0 402.298   4
  -8   6  -5 6478.56 315.866   6
  -8  -6  -5 6978.60 347.814   6
  -8   6  -5 6719.53 342.312   4
  -9   6  -5 6961.25 341.031   6
  -9  -6  -5 7481.51 376.399   6
  -9   6  -5 6277.38 351.047   4
 -10   6  -5 134.612 127.841   6
 -10  -6  -5 551.818 157.400   6
 -10  -6  -5 176.619 126.201   4
 -10   6  -5 462.661 163.088   4
 -11   6  -5 4468.00 306.758   6
 -11  -6  -5 4295.85 317.839   6
 -11  -6  -5 3903.95 290.490   4
 -11   6  -5 4304.07 320.302   4
  15  -7  -5-154.171 157.454   6
  14  -7  -5 130.800 147.655   3
  14  -7  -5 397.679 141.752   6
  14   7  -5 566.811 189.045   6
  13  -7  -5 221.359 150.747   3
  13  -7  -5 261.552 126.294   6
  13   7  -5 380.794 159.511   6
  12  -7  -5 365.035 147.802   3
  12  -7  -5 86.2390 100.195   6
  12   7  -5 367.726 149.062   6
  11  -7  -5 17.3115 91.5490   6
  11   7  -5 97.4594 118.221   6
  10  -7  -5 873.082 129.554   6
  10   7  -5 1535.38 193.857   6
   9  -7  -5 151.928 81.8969   6
  -9   7   5 147.661 77.2738   5
   9   7  -5 362.856 113.252   6
   8   7  -5 4563.48 240.503   6
  -8   7   5 4631.39 183.938   5
   8  -7  -5 4691.84 207.268   6
   7  -7  -5 220.173 73.4269   6
  -7   7   5 63.9322 60.3351   5
   7   7  -5 235.037 98.0115   6
  -7   7   5 106.192 59.4257   6
   6  -7  -5 1386.16 100.381   6
   6   7  -5 1552.85 135.677   6
  -6   7   5 1364.41 95.4395   6
   5  -7  -5 5461.27 179.661   6
   5   7  -5 5357.41 231.673   6
  -5   7   5 5628.66 179.681   6
   4  -7  -5 6704.74 191.073   6
   4   7  -5 6866.97 246.985   6
  -4   7   5 6970.23 191.551   6
  -3   7   5 2676.53 112.986   6
   3  -7  -5 2693.86 138.949   5
   3   7  -5 2736.65 151.412   6
   3  -7  -5 2660.03 114.340   6
   3  -7  -5 2482.44 143.001   3
   2  -7  -5 3304.15 152.294   3
  -2   7   5 3298.34 128.388   6
   2  -7  -5 3124.39 154.440   5
   2   7  -5 3700.47 172.326   6
   2  -7  -5 3207.59 126.724   6
   1  -7  -5 32.8102 48.0658   6
  -1  -7   5-39.4684 60.4302   6
   1  -7  -5 29.6219 54.8019   3
  -1   7   5 76.0302 47.8952   6
  -1   7   5 28.6355 55.5651   2
   1   7  -5 27.0762 63.5160   6
   0  -7  -5 4349.23 160.271   6
   0  -7  -5 4646.41 156.708   3
   0   7   5 4289.98 161.225   6
   0   7   5 4147.64 170.477   2
   0   7  -5 4379.44 189.810   6
  -1  -7  -5 2049.90 120.790   6
   1   7   5 2181.20 122.872   2
   1   7   5 2188.81 129.269   6
  -1   7  -5 2227.69 140.843   6
  -2   7  -5 5193.60 213.727   6
  -2  -7  -5 5036.55 199.771   6
  -2  -7  -5 5178.43 203.953   6
   2  -7   5 5276.07 133.036   2
   2   7   5 5371.31 203.016   4
   2   7   5 4854.44 178.243   2
  -3   7  -5 595.337 96.3719   6
   3  -7   5 406.408 26.6167   2
  -3  -7  -5 554.169 91.5307   6
   3   7   5 576.820 74.8251   2
  -4   7  -5 77.9513 79.5968   6
  -4   7  -5 55.1208 46.4931   3
  -4  -7  -5 39.8045 79.7107   6
   4   7   5 37.0255 50.9089   2
  -5   7  -5 159.661 85.2796   6
  -5  -7  -5 113.502 84.0403   6
  -6   7  -5 208.745 107.668   6
  -6  -7  -5-18.6935 92.5752   6
  -7   7  -5 263.687 109.839   6
  -7  -7  -5 233.844 115.515   6
  -7   7  -5 285.110 117.946   4
  -8   7  -5-34.2427 103.427   6
  -8  -7  -5 7.68099 122.889   6
  -8   7  -5-15.0387 121.819   4
  -9   7  -5 109.908 115.417   6
  -9  -7  -5 120.100 121.231   6
  -9   7  -5-82.0253 136.815   4
 -10   7  -5 435.812 138.338   6
 -10  -7  -5 626.534 168.457   6
 -10   7  -5 181.877 147.564   4
 -11   7  -5 938.127 172.350   6
 -11  -7  -5 1077.25 198.569   6
 -11   7  -5 724.748 170.597   4
  14  -8  -5 4402.07 321.004   3
  14  -8  -5 3749.78 272.121   6
  13  -8  -5 9115.91 433.394   3
  13   8  -5 10077.1 464.218   6
  13  -8  -5 9407.47 395.949   6
  12  -8  -5 723.276 173.405   3
  12  -8  -5 507.278 135.937   6
  12   8  -5 548.532 162.360   6
  11  -8  -5 7150.03 305.604   6
  11   8  -5 6608.36 345.365   6
  11  -8  -5 6984.30 347.491   3
  10  -8  -5 27258.4 614.530   6
  10   8  -5 28543.1 714.405   6
  10  -8  -5 27114.4 685.906   3
   9  -8  -5 3674.46 198.025   6
   9   8  -5 2920.92 221.155   6
  -8   8   5 18398.8 419.619   5
   8  -8  -5 20249.5 453.039   6
   8   8  -5 19944.0 521.201   6
   7  -8  -5 7238.28 235.925   6
   7   8  -5 7376.56 290.161   6
  -7   8   5 7113.30 220.209   6
  -7   8   5 6720.37 224.029   5
  -6   8   5 490.581 71.2701   5
   6  -8  -5 515.402 67.7522   6
   6   8  -5 650.638 106.874   6
  -6   8   5 563.691 68.1676   6
   5  -8  -5 54921.3 816.955   6
   5   8  -5 55952.0 934.232   6
  -5   8   5 55618.0 814.503   6
   5  -8  -5 56522.9 937.669   3
   4   8  -5 29384.5 438.751   5
   4  -8  -5 31673.5 507.021   6
   4   8  -5 31854.8 605.107   6
  -4   8   5 32492.4 507.776   6
   4  -8  -5 31135.1 601.481   3
   3  -8  -5 9794.34 287.188   3
  -3   8   5 10304.2 230.835   6
   3  -8  -5 10275.2 280.784   5
   3   8  -5 9858.02 292.997   6
   3  -8  -5 9907.04 227.708   6
   2  -8  -5 134118. 1805.38   3
  -2   8   5 136132. 1730.38   6
   2  -8  -5 132979. 1809.47   5
   2   8  -5 132897. 1833.05   6
   2  -8  -5 134598. 1727.96   6
   1  -8  -5 12668.6 299.681   3
  -1   8   5 12926.8 281.965   6
  -1   8   5 12652.5 327.866   2
   1   8  -5 12662.5 333.662   6
   1  -8  -5 12773.4 279.190   6
   0  -8  -5 76664.4 1085.38   6
   0  -8  -5 77730.9 1083.00   3
   0   8   5 77945.7 1137.28   2
   0   8   5 77820.5 1099.42   6
   0   8  -5 76886.4 1156.47   6
   1   8   5 64254.6 979.846   2
  -1  -8  -5 64158.6 963.140   6
   1  -8   5 66254.5 911.750   2
   1   8   5 66004.4 978.775   6
  -1   8  -5 64628.8 1022.65   6
   2   8   5 1185.10 97.2845   2
  -2   8  -5 1099.94 115.497   6
  -2  -8  -5 1190.35 106.396   6
   2  -8   5 1171.81 67.8734   2
   2   8   5 1318.90 106.802   4
  -2  -8  -5 1141.75 105.143   6
  -3   8  -5 39748.7 712.145   6
   3  -8   5 36247.3 499.425   2
  -3  -8  -5 39257.5 698.440   6
   3   8   5 38033.5 640.209   2
  -4   8  -5 10942.6 337.589   6
  -4   8  -5 10527.2 258.764   3
  -4  -8  -5 10146.7 331.873   6
   4   8   5 10616.1 281.666   2
  -5   8  -5 302.056 95.1451   6
  -5   8  -5 487.721 69.6444   3
  -5  -8  -5 323.874 102.362   6
  -6   8  -5 36560.3 756.514   6
   6  -8   5 36336.5 669.103   1
  -6  -8  -5 37882.7 797.286   6
  -7   8  -5 23412.1 593.206   6
  -7  -8  -5 23572.9 630.820   6
  -7  -8  -5 23940.4 476.275   2
  -8   8  -5 3323.09 230.948   6
  -8  -8  -5 3266.72 252.517   6
  -8   8  -5 3456.83 252.323   4
  -9   8  -5 16418.7 529.037   6
  -9  -8  -5 17249.0 578.104   6
  -9   8  -5 16201.5 564.143   4
 -10   8  -5 2525.84 229.116   6
 -10  -8  -5 3483.17 280.073   6
 -10   8  -5 2848.52 265.139   4
 -11   8  -5 2152.87 227.923   6
 -11  -8  -5 2870.43 275.304   6
 -11   8  -5 2519.38 260.122   4
  14  -9  -5 6011.89 375.491   3
  13  -9  -5 2824.53 263.095   3
  13  -9  -5 2247.13 206.744   6
  13   9  -5 3362.30 290.865   6
  12  -9  -5 16663.0 567.632   3
  12  -9  -5 15626.4 485.418   6
  12   9  -5 15918.7 572.838   6
  11  -9  -5 2079.50 211.895   3
  11  -9  -5 1960.19 171.449   6
  11   9  -5 1899.04 208.417   6
  10  -9  -5 8969.56 380.365   3
  10  -9  -5 9310.32 326.789   6
  10   9  -5 9016.43 388.573   6
   9  -9  -5 28251.7 586.739   6
   9   9  -5 27926.1 681.029   6
   9  -9  -5 27466.0 674.881   3
   8  -9  -5 11115.5 315.435   6
   8   9  -5 11493.4 387.275   6
   8  -9  -5 10671.7 380.384   3
  -7   9   5 7060.50 240.066   5
   7  -9  -5 7675.50 237.505   6
   7   9  -5 7253.07 296.817   6
  -7   9   5 6800.45 216.339   6
   7  -9  -5 7668.02 304.711   3
  -6   9   5 18547.0 415.265   5
   6  -9  -5 19909.3 390.423   6
   6   9  -5 19996.2 485.380   6
  -6   9   5 19661.6 379.655   6
   6  -9  -5 19321.7 488.704   3
   5  -9  -5 411.392 98.0145   3
   5  -9  -5 468.207 62.0190   6
   5   9  -5 530.421 105.691   6
  -5   9   5 522.924 64.9659   6
  -4   9   5 82884.8 1088.23   6
   4  -9  -5 81026.8 1222.59   3
   4   9  -5 77992.2 1037.52   5
   4  -9  -5 80416.0 1086.06   6
   4   9  -5 81149.4 1225.91   6
   3  -9  -5 38889.1 692.759   3
  -3   9   5 39372.9 589.097   6
   3  -9  -5 38551.9 674.269   5
   3   9  -5 38617.7 695.689   6
   3  -9  -5 39169.7 589.212   6
   2  -9  -5 6831.59 229.107   3
  -2   9   5 6363.95 175.841   6
   2  -9  -5 6623.33 231.192   5
   2   9  -5 6426.26 233.013   6
   2  -9  -5 6699.25 178.740   6
   1  -9  -5 59417.7 903.937   3
  -1   9   5 58292.4 853.582   6
  -1   9   5 60631.8 946.108   2
   1  -9  -5 59657.5 945.178   5
   1   9  -5 59586.3 946.748   6
   1  -9  -5 59866.6 853.891   6
   0  -9  -5 26352.4 465.952   6
   0   9   5 26506.5 521.469   2
   0   9   5 26280.4 473.438   6
   0   9  -5 26334.4 531.731   6
  -1  -9  -5 12919.6 307.373   6
  -1  -9  -5 13090.4 319.237   6
   1  -9   5 13340.6 282.638   2
   1   9   5 13301.3 322.313   4
  -1   9  -5 13385.4 352.615   6
   1   9   5 13099.4 330.114   2
  -2  -9  -5 30649.9 579.487   6
  -2  -9  -5 32077.3 597.621   6
   2  -9   5 31898.2 492.554   2
   2   9   5 32317.5 588.758   4
   2   9   5 31905.1 584.082   2
  -2   9  -5 31554.7 618.078   6
  -3   9  -5 11169.3 330.306   6
   3  -9   5 10591.0 197.881   2
  -3  -9  -5 11133.3 324.015   6
   3   9   5 10912.6 294.947   2
  -4   9  -5 2221.80 160.922   6
  -4   9  -5 2173.66 123.131   3
  -4  -9  -5 2058.28 159.714   6
   4   9   5 2286.75 134.474   2
  -5   9  -5 46513.8 733.956   3
  -5   9  -5 45397.4 857.479   6
  -5  -9  -5 46982.6 885.308   6
  -6   9  -5 10935.8 373.458   6
  -6  -9  -5 11086.3 395.190   6
  -6  -9  -5 11191.9 309.547   2
  -7   9  -5 18342.8 516.522   6
  -7  -9  -5 17743.9 539.425   6
  -7  -9  -5 17993.9 416.270   2
  -8   9  -5 20176.7 570.154   6
  -8  -9  -5 20028.6 610.646   6
  -8  -9  -5 21295.2 460.492   2
  -8   9  -5 20405.8 613.659   4
  -9   9  -5 226.601 115.013   6
  -9  -9  -5 192.452 135.739   6
  -9   9  -5 32.0401 117.953   4
 -10   9  -5 15601.5 536.269   6
 -10  -9  -5 16119.9 587.162   6
 -10   9  -5 14743.5 563.529   4
 -11   9  -5 1874.42 214.252   6
 -11  -9  -5 2438.21 267.031   6
 -11   9  -5 1456.31 211.959   4
  14 -10  -5 63.7015 153.589   3
  13 -10  -5 855.492 191.189   3
  13 -10  -5 904.419 151.961   6
  13  10  -5 783.307 185.340   6
  12 -10  -5 1066.55 186.237   3
  12 -10  -5 1041.82 142.870   6
  12  10  -5 802.904 182.114   6
  11 -10  -5 200.583 128.408   3
  11 -10  -5 358.375 107.909   6
  11  10  -5 156.545 125.073   6
  10 -10  -5 677.827 146.170   3
  10 -10  -5 613.966 109.649   6
  10  10  -5 835.831 161.509   6
   9 -10  -5 2927.24 221.521   3
   9 -10  -5 2989.57 174.027   6
   9  10  -5 3092.15 227.708   6
   8 -10  -5 16836.7 489.285   3
   8 -10  -5 15964.8 382.212   6
   8  10  -5 15834.1 470.882   6
  -8  10   5 15059.8 355.352   6
   7 -10  -5 483.299 120.364   3
   7 -10  -5 427.174 71.5558   6
   7  10  -5 635.015 118.043   6
  -7  10   5 511.365 72.7332   6
   6 -10  -5 2439.05 177.655   3
   6 -10  -5 2776.59 128.014   6
   6  10  -5 3131.31 190.206   6
  -6  10   5 2724.01 122.130   6
   5 -10  -5 4275.50 213.107   3
   5 -10  -5 4169.80 141.954   6
   5  10  -5 3961.48 202.964   6
  -5  10   5 3998.08 135.480   6
  -4  10   5 13379.3 265.615   6
   4 -10  -5 13810.2 375.294   3
   4  10  -5 13358.2 255.817   5
   4 -10  -5 13353.2 267.942   6
   4  10  -5 13457.6 371.960   6
   3 -10  -5 7545.93 259.547   3
  -3  10   5 7576.96 183.963   6
   3 -10  -5 7567.45 254.481   5
   3  10  -5 7928.85 265.089   6
   3 -10  -5 7715.66 184.727   6
  -2  10   5 1090.46 72.6737   6
   2 -10  -5 1152.61 107.572   3
   2 -10  -5 1207.75 115.180   5
   2  10  -5 1104.52 109.133   6
   2 -10  -5 1147.58 72.3580   6
   1 -10  -5 4946.90 190.987   3
  -1  10   5 4802.82 156.159   6
   1 -10  -5 5156.49 212.670   5
   1  10  -5 4876.34 204.204   6
   1 -10  -5 4921.69 155.424   6
   0 -10  -5 6020.47 183.522   6
   0 -10   5 6165.71 199.932   2
   0  10   5 5823.11 185.799   6
   0  10  -5 6158.43 229.130   6
  -1 -10  -5 11360.1 282.222   6
  -1 -10  -5 11259.6 290.690   6
   1 -10   5 11438.2 265.228   2
   1  10   5 11526.2 295.384   4
   1  10   5 11339.2 313.073   2
  -1  10  -5 10953.9 321.065   6
  -2  10  -5 973.281 113.673   6
  -2 -10  -5 1016.81 99.9818   6
  -2 -10  -5 1056.76 102.228   6
   2 -10   5 1123.43 77.6254   2
   2  10   5 1131.39 99.9752   4
   2  10   5 1029.62 104.429   2
  -3  10  -5 7277.22 270.159   6
   3 -10   5 7552.11 168.041   2
  -3 -10  -5 7525.14 263.560   6
   3  10   5 7069.55 242.466   2
  -4  10  -5 300.956 90.7262   6
  -4  10  -5 81.4663 58.3242   3
  -4 -10  -5 195.533 90.1716   6
   4  10   5 143.911 67.8507   2
  -5  10  -5 1488.46 112.223   3
  -5  10  -5 1495.80 144.894   6
  -5 -10  -5 1341.05 150.346   6
  -5 -10  -5 1516.27 124.901   2
  -6  10  -5 3492.53 212.263   6
  -6 -10  -5 3600.08 233.201   6
  -6 -10  -5 3678.60 181.056   2
  -7  10  -5 1442.36 156.028   6
  -7 -10  -5 1134.83 166.853   6
  -7 -10  -5 1579.41 130.840   2
  -8  10  -5 235.983 117.509   6
  -8 -10  -5 126.192 122.698   6
  -8 -10  -5 47.0252 69.4699   2
  -9  10  -5 4554.73 280.850   6
  -9 -10  -5 4419.43 297.241   6
  -9  10  -5 4896.65 315.428   4
 -10  10  -5 15.7257 124.450   6
 -10 -10  -5 0.87757 145.634   6
 -10  10  -5-54.3092 129.788   4
 -11  10  -5 1527.26 193.635   6
 -11 -10  -5 1428.45 210.911   6
  13 -11  -5 1699.77 229.981   3
  13  11  -5 1447.24 215.675   6
  12 -11  -5 6155.86 355.719   3
  12 -11  -5 5554.71 274.001   6
  12  11  -5 5491.44 345.602   6
  11 -11  -5 2247.02 228.410   3
  11 -11  -5 2128.77 172.252   6
  11  11  -5 2863.97 243.890   6
  10 -11  -5 1524.64 182.908   3
  10 -11  -5 1334.05 132.132   6
  10  11  -5 1283.23 181.282   6
   9 -11  -5 3229.90 235.748   3
   9 -11  -5 3590.50 181.912   6
   9  11  -5 3665.58 242.772   6
   8 -11  -5 6029.90 291.287   3
   8  11  -5 6551.33 301.817   6
   8 -11  -5 6403.09 225.568   6
  -8  11   5 5895.14 205.000   6
   7 -11  -5 1686.55 170.217   3
   7 -11  -5 1841.58 117.261   6
   7  11  -5 1504.91 163.208   6
  -7  11   5 1582.12 105.640   6
   6 -11  -5 17484.4 471.185   3
   6 -11  -5 17541.0 350.571   6
   6  11  -5 17364.6 460.397   6
  -6  11   5 17748.2 339.949   6
   5 -11  -5 1249.70 137.196   3
   5 -11  -5 1445.05 83.7864   6
   5  11  -5 1369.97 134.139   6
  -5  11   5 1526.35 83.7663   6
  -4  11   5 20250.3 340.236   6
   4 -11  -5 19571.1 471.562   3
   4  11  -5 19275.1 347.357   5
   4 -11  -5 19614.6 338.574   6
   4  11  -5 19969.9 469.729   6
   3 -11  -5 9706.97 300.783   3
  -3  11   5 9649.50 205.837   6
   3 -11  -5 9613.96 296.212   5
   3 -11  -5 9824.45 206.005   6
   3  11  -5 9313.93 300.438   6
   2 -11  -5 563.989 93.4002   3
  -2  11   5 532.925 57.0353   6
   2 -11  -5 759.833 114.557   5
   2  11  -5 788.237 103.082   6
   2 -11  -5 576.218 56.4347   6
  -1  11   5 33720.1 543.159   6
   1 -11  -5 33312.0 647.202   5
   1  11  -5 34751.2 646.941   6
   1 -11  -5 35419.8 545.420   6
   0 -11  -5 25394.0 450.017   6
   0 -11  -5 25081.7 542.995   5
   0 -11  -5 25660.9 461.971   6
   0 -11   5 25553.8 484.118   2
   0 -11   5 26203.3 515.655   4
   0  11  -5 25184.0 523.987   6
  -1 -11  -5 10284.7 264.913   6
  -1 -11  -5 10075.7 270.755   6
   1 -11   5 10030.5 254.269   2
   1  11   5 10258.8 273.491   4
  -1  11  -5 9659.44 302.036   6
  -2  11  -5 110.467 68.9226   6
  -2 -11  -5 184.606 64.7712   6
  -2 -11  -5 349.838 70.6360   6
   2  11   5 291.196 65.7945   4
   2 -11   5 349.018 58.8892   2
   3 -11   5 4818.83 139.489   2
  -3 -11  -5 4119.92 198.954   6
  -3  11  -5 4414.44 214.355   6
  -4  11  -5 7358.46 278.309   6
  -4  11  -5 7633.86 247.555   3
  -4 -11  -5 7555.12 285.758   6
   4  11   5 7075.53 187.694   3
  -5  11  -5 5718.63 213.818   3
  -5  11  -5 5589.51 257.494   6
  -5 -11  -5 6181.04 281.910   6
  -5 -11  -5 5890.17 236.314   2
   5  11   5 5480.61 150.144   3
  -6  11  -5 112.229 101.973   6
  -6 -11  -5 92.0752 111.944   6
  -6 -11  -5 56.5283 79.8479   2
  -7  11  -5 6220.60 292.098   6
  -7 -11  -5 5818.36 311.579   6
  -7 -11  -5 5656.82 239.160   2
  -8  11  -5 6684.36 317.007   6
  -8 -11  -5 6573.27 345.120   6
  -8 -11  -5 6854.87 264.286   2
  -9  11  -5-66.4184 120.339   6
  -9 -11  -5 63.5905 134.586   6
  -9  11  -5 103.435 130.753   4
 -10  11  -5 2613.62 236.918   6
 -10 -11  -5 2909.21 264.946   6
 -10  11  -5 2963.55 268.527   4
 -11  11  -5 1734.76 209.953   6
  13 -12  -5 8942.08 440.261   3
  13  12  -5 8451.91 448.257   6
  12 -12  -5 1661.17 226.736   3
  12  12  -5 1832.66 225.673   6
  11 -12  -5 12275.5 477.348   3
  11 -12  -5 12135.4 380.611   6
  11  12  -5 13167.7 503.330   6
  10 -12  -5 13165.5 480.226   3
  10 -12  -5 12477.7 365.867   6
  10  12  -5 13027.4 485.879   6
   9 -12  -5 1347.94 168.773   3
   9 -12  -5 1543.80 123.697   6
   9  12  -5 1489.55 176.231   6
   8 -12  -5 22595.2 601.086   3
   8 -12  -5 23286.8 469.130   6
   8  12  -5 22789.9 593.506   6
   7 -12  -5 64157.9 1131.10   3
   7 -12  -5 64928.1 939.071   6
   7  12  -5 62113.2 1112.34   6
  -7  12   5 62428.4 910.551   6
   6 -12  -5 174.688 97.8625   3
   6 -12  -5 211.967 52.4922   6
   6  12  -5 114.368 86.1683   6
  -6  12   5 153.622 49.4321   6
  -5  12   5 34833.7 521.888   6
   5 -12  -5 35104.6 710.705   3
   5 -12  -5 35068.8 530.164   6
   5  12  -5 33862.4 693.575   6
   4 -12  -5 27649.5 597.862   3
  -4  12   5 28319.4 433.505   6
   4  12  -5 29118.4 477.096   5
   4 -12  -5 28195.5 434.784   6
   4  12  -5 30043.2 606.199   6
   3 -12  -5 22613.4 500.234   3
  -3  12   5 20998.1 345.171   6
   3 -12  -5 22039.1 490.143   5
   3 -12  -5 20971.1 342.791   6
   3  12  -5 21703.4 484.989   6
   2 -12  -5 99788.3 1442.46   3
  -2  12   5 97097.9 1277.22   6
   2 -12  -5 99921.8 1458.12   5
   2  12  -5 97709.1 1439.40   6
   2 -12  -5 100027. 1278.88   6
  -1 -12   5 6348.54 227.759   2
   1 -12  -5 6103.52 173.892   6
   1 -12  -5 6463.60 253.927   5
   1  12  -5 6321.32 238.043   6
   1 -12  -5 6435.14 172.878   6
   0 -12  -5 76942.7 1065.66   6
   0 -12  -5 75915.3 1078.18   6
   0 -12   5 76701.3 1124.06   2
   0 -12  -5 77365.8 1206.42   5
   0 -12   5 76969.1 1152.54   4
   0  12  -5 76587.1 1173.52   6
  -1 -12  -5 100375. 1402.36   6
  -1 -12  -5 102863. 1425.03   6
   1 -12   5 103824. 1410.78   2
   1  12   5 103042. 1423.28   4
  -1  12  -5 103715. 1497.90   6
  -2 -12  -5 4944.60 193.815   6
  -2 -12  -5 5127.40 203.550   6
   2  12   5 5062.12 192.134   4
   2 -12   5 5298.05 172.554   2
  -2  12  -5 4983.62 218.602   6
   2  12   5 4769.97 174.847   3
   3 -12   5 76045.3 1013.65   2
  -3 -12  -5 75234.0 1154.88   6
  -3  12  -5 73899.8 1174.21   6
   3  12   5 70449.5 1046.44   3
   4  12   5 28292.1 500.535   3
  -4  12  -5 31222.4 642.663   6
  -4 -12  -5 31474.3 646.664   6
  -4 -12  -5 31260.1 625.390   2
  -5  12  -5 560.120 103.424   6
  -5 -12  -5 745.968 123.228   6
  -5 -12  -5 787.589 110.449   2
  -6  12  -5 42377.7 825.072   6
  -6 -12  -5 38938.4 840.171   6
  -6 -12  -5 39539.8 764.145   2
  -7  12  -5 9429.11 363.143   6
  -7 -12  -5 8595.00 379.168   6
  -7 -12  -5 8853.07 315.306   2
  -8  12  -5 1827.91 179.897   6
  -8 -12  -5 1999.64 213.453   6
  -8 -12  -5 1978.41 155.231   2
  -9  12  -5 19120.7 579.570   6
  -9 -12  -5 19244.8 623.006   6
 -10  12  -5 926.245 167.727   6
 -10 -12  -5 2021.70 235.204   6
 -11  12  -5 5820.27 343.349   6
  13 -13  -5-57.1238 138.720   3
  12 -13  -5 5478.35 341.578   3
  12  13  -5 5920.46 365.890   6
  11 -13  -5 1749.65 219.428   3
  11  13  -5 1140.80 185.506   6
  10 -13  -5 9342.04 409.171   3
  10 -13  -5 8941.67 295.300   6
  10  13  -5 9484.40 410.608   6
   9 -13  -5 2807.61 225.727   3
   9 -13  -5 2759.39 153.797   6
   9  13  -5 2513.82 211.639   6
   8 -13  -5 7842.44 344.329   3
   8 -13  -5 8120.57 240.600   6
   8  13  -5 8117.50 339.818   6
   7  13  -5 6980.62 306.108   6
   7 -13  -5 7256.12 317.448   3
   7 -13  -5 7269.34 208.034   6
  -7  13   5 7161.28 195.872   6
   6 -13  -5 19316.5 514.431   3
   6 -13  -5 19456.2 350.124   6
   6  13  -5 18291.1 493.273   6
  -6  13   5 19346.2 338.128   6
  -5  13   5 1243.27 66.1869   6
   5 -13  -5 1641.11 157.715   3
   5 -13  -5 1288.06 68.8660   6
   5  13  -5 1216.29 135.542   6
   4 -13  -5 17854.1 459.679   3
  -4  13   5 16590.8 278.028   6
   4 -13  -5 16753.4 280.104   6
   4  13  -5 17907.4 348.330   5
   4  13  -5 18114.1 449.552   6
   3 -13  -5 17682.9 443.204   3
  -3  13   5 17002.1 285.038   6
   3 -13  -5 18532.6 448.370   5
   3 -13  -5 17079.2 281.705   6
   3  13  -5 17955.0 438.674   6
  -2 -13   5 298.335 83.6733   2
   2 -13  -5 267.750 105.001   5
   2  13  -5 77.7007 70.9542   6
   2 -13  -5 136.152 34.9074   6
  -1 -13   5 20456.2 451.119   2
   1 -13  -5 20087.9 362.363   6
   1 -13  -5 19489.7 478.318   5
   1  13  -5 19417.1 457.981   6
   1 -13  -5 20864.3 357.944   6
   0 -13  -5 3994.08 143.772   6
   0 -13  -5 3768.82 146.580   6
   0 -13   5 3790.09 174.069   2
   0 -13  -5 4097.17 212.150   5
   0  13  -5 3990.13 193.047   6
  -1 -13  -5 15145.2 334.002   6
  -1 -13  -5 15279.5 347.570   6
  -1 -13  -5 15340.3 426.981   5
   1 -13   5 15263.1 350.694   2
   1  13   5 15291.7 344.802   4
  -1  13  -5 15347.5 395.968   6
  -2 -13  -5 39242.1 679.542   6
  -2 -13  -5 39352.5 694.013   6
   2  13   5 39030.7 670.286   4
   2 -13   5 40065.1 641.878   2
  -2  13  -5 39851.1 736.196   6
   2  13   5 37521.7 660.329   3
   3  13   5 4822.67 181.372   3
   3 -13   5 5503.13 169.182   2
  -3 -13  -5 5200.19 220.624   6
   3  13   5 4906.71 201.038   4
  -3  13  -5 4987.36 230.233   6
  -4  13  -5 11609.2 359.342   6
   4  13   5 10826.8 275.808   3
  -4 -13  -5 11017.0 352.022   6
  -4 -13  -5 12022.5 364.169   2
  -5  13  -5 22136.8 537.556   6
  -5 -13  -5 22309.2 565.963   6
  -5 -13  -5 21875.9 527.570   2
  -6  13  -5 230.921 99.6382   6
  -6 -13  -5 148.513 114.762   6
  -6 -13  -5 140.329 82.7284   2
  -7  13  -5 3153.77 219.914   6
  -7 -13  -5 3255.28 241.186   6
  -7 -13  -5 3586.78 207.534   2
  -8  13  -5 4874.59 280.086   6
  -8 -13  -5 4568.86 295.493   6
  -8 -13  -5 4556.30 235.159   2
  -9  13  -5 564.544 144.396   6
  -9 -13  -5 634.358 168.860   6
 -10  13  -5 9305.63 411.537   6
 -10 -13  -5 9101.79 449.339   6
 -11  13  -5 949.524 175.467   6
  13 -14  -5 316.791 172.819   3
  12 -14  -5 96.4222 144.898   3
  12  14  -5 196.130 155.231   6
  11 -14  -5 459.063 149.787   3
  11  14  -5 556.566 156.207   6
  10 -14  -5 2139.32 217.924   3
  10  14  -5 2038.91 221.129   6
   9 -14  -5 148.534 124.395   3
   9 -14  -5 39.0010 56.7755   6
   9  14  -5 159.590 138.035   6
   8 -14  -5-99.4739 117.509   3
   8 -14  -5 59.7936 47.7991   6
   8  14  -5 1.05663 97.7854   6
   7 -14  -5 7451.95 329.935   3
   7  14  -5 7597.64 321.994   6
   7 -14  -5 7607.50 200.762   6
  -6  14   5 2845.44 99.4241   6
   6 -14  -5 2487.32 194.970   3
   6 -14  -5 2774.66 103.599   6
   6  14  -5 2751.98 193.844   6
  -5  14   5 653.681 43.3182   6
   5 -14  -5 479.543 110.145   3
   5 -14  -5 628.357 44.4974   6
   5  14  -5 893.134 118.929   6
  -4  14   5 1401.04 54.0932   6
   4 -14  -5 1530.90 148.938   3
   4  14  -5 1888.28 114.542   5
   4 -14  -5 1609.88 58.4921   6
   4  14  -5 1797.11 153.440   6
   3 -14  -5 4524.79 223.305   3
  -3 -14   5 4046.60 208.660   2
   3  14  -5 4157.59 172.184   5
   3 -14  -5 3532.95 92.2162   6
   3  14  -5 4533.84 210.200   6
   2 -14  -5 145.661 32.2655   6
  -2 -14   5 230.133 87.1416   2
   2 -14  -5 183.303 99.9686   5
   2  14  -5 112.711 73.5663   6
   2 -14  -5 51.8505 28.0563   6
   1 -14  -5 233.359 45.7418   6
   1 -14  -5 521.546 113.936   5
  -1 -14   5 229.683 81.4990   2
   1  14  -5 347.593 85.9389   6
   1 -14  -5 311.845 44.7299   6
   0 -14  -5 1655.89 92.5272   6
   0 -14  -5 1657.29 98.6941   6
   0 -14  -5 1823.97 156.338   5
   0 -14   5 1553.74 119.770   2
   0  14  -5 1662.34 134.218   6
  -1 -14  -5 2847.74 134.597   6
  -1 -14  -5 2773.36 139.893   6
  -1 -14  -5 2797.82 190.872   5
   1 -14   5 2896.05 149.484   2
   1  14   5 2766.57 137.196   4
  -1  14  -5 2917.77 171.281   6
   1  14   5 2419.55 147.897   3
   2 -14   5 166.201 65.4330   2
   2  14   5 291.442 74.3429   3
  -2 -14  -5 250.891 73.2098   6
  -2 -14  -5 208.583 66.4058   6
  -2 -14  -5 276.784 112.475   5
   2  14   5 305.481 71.1298   4
  -2  14  -5 254.166 86.4451   6
  -3  14  -5 294.287 86.4712   6
   3  14   5 177.700 65.4872   3
  -3 -14  -5 190.511 76.9859   6
   3 -14   5 193.312 57.7054   2
   3  14   5 144.646 60.4585   4
   4  14   5 12432.9 317.278   3
  -4 -14  -5 13980.0 399.180   6
  -4 -14  -5 13106.7 398.020   2
  -4  14  -5 13882.4 400.525   6
  -5  14  -5 5415.38 254.483   6
  -5 -14  -5 5097.34 261.110   6
  -5 -14  -5 5061.11 249.817   2
  -6  14  -5 856.979 128.918   6
  -6 -14  -5 1281.24 169.587   6
  -6 -14  -5 827.127 118.362   2
  -7  14  -5 1586.15 167.755   6
  -7 -14  -5 1420.92 173.716   6
  -7 -14  -5 1395.96 148.705   2
  -8  14  -5 178.516 107.826   6
  -8 -14  -5 3.97490 127.937   6
   8  14   5 26.9936 101.941   1
  -8 -14  -5 108.475 91.9945   2
  -9  14  -5 749.338 152.983   6
  -9 -14  -5 1198.32 190.999   6
 -10  14  -5 197.640 131.540   6
 -10 -14  -5 91.4899 138.635   6
 -11  14  -5 8.61086 136.634   6
  12 -15  -5 6023.68 366.903   3
  12  15  -5 6570.69 390.847   6
  11 -15  -5 1495.19 204.617   3
  11  15  -5 1371.26 198.888   6
  10 -15  -5 2835.93 251.794   3
  10  15  -5 2976.00 252.842   6
   9 -15  -5 16640.1 542.144   3
   9  15  -5 16668.9 538.511   6
   8 -15  -5 2587.70 216.546   3
   8 -15  -5 2517.08 118.078   6
   8  15  -5 2502.67 203.972   6
   7 -15  -5 16212.8 498.955   3
   7 -15  -5 15846.1 295.446   6
   7  15  -5 16604.2 486.147   6
   6 -15  -5 37322.4 784.400   3
   6 -15  -5 34405.0 490.400   6
   6  15  -5 38441.8 770.898   6
   5 -15  -5 8833.19 341.822   3
   5  15  -5 9482.45 333.543   6
   4 -15  -5 16629.3 460.655   3
  -4 -15   5 16008.2 453.565   2
   4  15  -5 16574.4 363.424   5
   4  15  -5 16641.7 445.289   6
  -3 -15   5 22939.3 544.291   2
   3  15  -5 23758.6 472.623   5
   3  15  -5 23177.8 529.654   6
  -2 -15   5 20623.9 479.607   2
   2 -15  -5 20517.7 500.992   5
   2 -15  -5 18027.5 296.775   6
   2  15  -5 21428.2 479.228   6
   2 -15  -5 17945.9 286.135   6
   1 -15  -5 14519.7 419.495   5
   1 -15  -5 14659.8 282.187   6
  -1 -15   5 14377.8 386.348   2
  -1 -15   5 14991.8 361.639   4
   1  15  -5 14354.6 390.914   6
   1 -15  -5 15060.1 273.421   6
   0 -15  -5 16228.5 318.396   6
   0 -15  -5 16232.4 331.484   6
   0 -15  -5 16341.9 451.679   5
   0 -15   5 16419.6 400.356   2
   0  15  -5 16411.4 417.841   6
  -1 -15  -5 7675.28 221.159   6
  -1 -15  -5 7333.60 225.969   6
  -1 -15  -5 7619.32 308.170   5
   1  15   5 7603.70 226.797   4
   1 -15   5 7997.21 256.311   2
  -1  15  -5 7552.78 274.896   6
   2  15   5 26157.2 547.384   3
  -2 -15  -5 28579.8 647.914   5
  -2 -15  -5 27051.7 526.021   6
  -2 -15  -5 27585.0 543.058   6
   2  15   5 27430.3 519.214   4
  -2  15  -5 28360.3 593.417   6
   2 -15   5 28180.9 525.445   2
   3  15   5 2238.09 139.395   3
  -3 -15  -5 2067.06 143.984   6
   3 -15   5 2363.75 126.080   2
   3  15   5 1960.24 129.547   4
  -3  15  -5 2317.26 163.449   6
  -4  15  -5 1166.64 130.249   6
  -4 -15  -5 1859.68 154.976   6
  -4 -15  -5 1635.86 159.528   2
  -5 -15  -5 15664.9 466.412   6
  -5 -15  -5 15576.3 459.459   2
  -5  15  -5 15444.9 443.226   6
  -6  15  -5 4429.88 242.679   6
  -6 -15  -5 4415.80 262.041   6
  -6 -15  -5 3802.32 229.363   2
  -7  15  -5 5344.10 273.278   6
  -7 -15  -5 5151.07 296.550   6
  -7 -15  -5 4940.34 260.343   2
  -8  15  -5 22829.0 615.642   6
  -8 -15  -5 22281.6 662.786   6
  -8 -15  -5 22736.7 590.094   2
   8  15   5 22824.1 611.419   1
  -9  15  -5 1515.29 177.700   6
  -9 -15  -5 1453.89 201.691   6
 -10  15  -5 3088.03 248.807   6
 -10 -15  -5 3704.51 303.625   6
 -11  15  -5 4903.10 324.773   6
  12 -16  -5 834.952 193.894   3
 -12 -16   5 1015.95 189.165   2
  12  16  -5 1212.63 211.705   6
  11 -16  -5 5238.19 340.158   3
  11  16  -5 4793.43 323.659   6
  10 -16  -5 13386.9 506.953   3
  10  16  -5 13896.5 515.392   6
   9 -16  -5 2206.31 221.988   3
   9  16  -5 2559.98 230.628   6
   8 -16  -5 12635.4 456.874   3
   8  16  -5 11644.3 427.358   6
   7 -16  -5 5438.65 295.335   3
   7  16  -5 5747.35 289.908   6
   6 -16  -5 6479.25 307.319   3
   6  16  -5 6188.08 284.786   6
   5 -16  -5 69372.3 1193.72   3
  -5 -16   5 67386.6 1181.25   2
   5  16  -5 67137.1 1148.63   6
  -4 -16   5 12264.5 397.223   2
   4  16  -5 12193.4 312.166   5
   4  16  -5 12436.8 379.315   6
  -3 -16   5 8692.42 318.383   2
   3  16  -5 8289.51 263.723   5
   3  16  -5 8478.53 307.791   6
   2 -16  -5 45962.5 804.048   5
  -2 -16   5 45371.6 775.371   2
   2  16  -5 45604.5 761.856   6
   1 -16  -5 169.316 36.4374   6
   1 -16  -5 464.251 119.061   5
  -1 -16   5 114.153 81.2293   2
   1  16  -5 140.283 76.1766   6
  -1 -16   5 199.589 64.5695   4
   1 -16  -5 186.999 35.9545   6
   0 -16  -5 4170.05 139.587   6
   0 -16  -5 4475.22 240.161   5
   0 -16  -5 4319.95 149.269   6
   0 -16   5 4497.89 205.733   2
   0  16   5 4204.13 160.983   4
   0  16  -5 4331.47 206.587   6
  -1 -16  -5 47380.6 733.387   6
  -1 -16  -5 47222.0 750.630   6
  -1 -16  -5 45845.8 890.867   5
   1  16   5 45723.1 736.844   4
   1 -16   5 48187.4 809.329   2
  -1  16  -5 47065.8 838.684   6
  -2 -16  -5 1843.84 122.109   6
  -2 -16  -5 1915.53 128.962   6
  -2 -16  -5 1898.07 179.375   5
   2  16   5 1853.70 116.888   4
  -2  16  -5 2119.11 154.151   6
   2 -16   5 1785.03 123.779   2
  -3 -16  -5 28843.3 582.928   6
   3 -16   5 28467.7 527.241   2
  -3 -16  -5 28352.3 673.725   5
  -3  16  -5 28003.0 608.752   6
  -4 -16  -5 33204.8 680.300   6
  -4 -16  -5 31834.1 713.261   2
  -4  16  -5 32454.2 683.209   6
  -5  16  -5 655.609 110.099   6
  -5 -16  -5 384.611 106.663   6
  -5 -16  -5 446.809 113.843   2
  -6  16  -5 25012.1 603.873   6
  -6 -16  -5 23197.0 620.218   6
  -6 -16  -5 22829.6 599.211   2
  -7  16  -5 7585.84 327.777   6
  -7 -16  -5 7082.74 348.792   6
  -7 -16  -5 6691.09 313.622   2
  -8  16  -5 5192.67 284.673   6
  -8 -16  -5 4744.57 305.049   6
  -8 -16  -5 5350.93 284.515   2
   8  16   5 5151.14 285.471   1
  -9  16  -5 7635.26 357.469   6
  -9 -16  -5 7481.98 398.257   6
 -10  16  -5 2601.40 233.573   6
 -10 -16  -5 3152.23 280.946   6
 -11  16  -5 8993.28 424.995   6
  12 -17  -5 104.493 151.181   3
 -12 -17   5 75.8819 147.265   2
  12  17  -5 180.674 147.942   6
  11 -17  -5 1868.29 234.234   3
 -11 -17   5 1422.76 198.237   2
  11  17  -5 1521.42 219.601   6
  10 -17  -5 215.429 153.048   3
 -10  17   5 272.357 117.094   1
 -10 -17   5 62.5972 130.087   2
  10  17  -5 319.096 142.822   6
   9 -17  -5 2677.38 236.783   3
  -9 -17   5 2772.12 242.630   2
   9  17  -5 2751.37 236.446   6
   8 -17  -5 38.9385 123.466   3
  -8 -17   5-67.9013 118.756   2
   8  17  -5-54.9326 106.262   6
   7 -17  -5 462.293 129.030   3
  -7 -17   5 465.472 133.239   2
   7  17  -5 479.235 118.641   6
   6 -17  -5 366.986 118.778   3
  -6 -17   5 496.936 128.862   2
   6  17  -5 299.470 110.398   6
  -5 -17   5 1732.57 177.122   2
   5  17  -5 1939.81 168.295   6
  -4 -17   5 4699.87 251.752   2
   4  17  -5 4798.41 199.020   5
   4  17  -5 4621.62 240.345   6
  -3 -17   5 3371.17 209.412   2
   3  17  -5 3989.41 212.879   6
   2 -17  -5 950.172 146.295   5
  -2 -17   5 656.607 120.246   2
   2  17  -5 825.157 115.440   6
   1 -17  -5-21.1270 97.7367   5
   1 -17  -5 32.7397 25.1547   6
  -1 -17   5-125.256 91.1536   2
  -1 -17   5 34.2100 55.9000   4
   1 -17  -5 46.9374 25.1933   6
   0 -17  -5 428.805 53.2406   6
   0 -17  -5 455.875 58.6724   6
   0 -17  -5 582.428 124.079   5
   0  17   5 458.399 65.2989   4
   0  17  -5 526.754 93.5518   6
   0 -17   5 286.986 85.0276   2
  -1 -17  -5 3759.91 150.479   6
  -1 -17  -5 3854.69 233.167   5
  -1 -17  -5 3934.33 160.951   6
   1  17   5 4050.31 159.947   4
   1 -17   5 4037.00 194.978   2
  -1  17  -5 4057.92 208.221   6
  -2 -17  -5 975.283 95.3987   6
   2 -17   5 831.747 97.9662   2
  -2 -17  -5 855.132 96.8419   6
  -2 -17  -5 682.045 135.391   5
  -2  17  -5 826.419 113.389   6
   2  17   5 882.727 87.4729   4
  -3 -17  -5 88.7057 73.2679   6
   3 -17   5 169.754 75.2572   2
  -3 -17  -5-125.546 120.573   5
  -3  17  -5 211.642 91.6935   6
  -4 -17  -5 2568.74 174.596   6
  -4 -17  -5 2860.85 209.247   2
  -4 -17  -5 2272.35 209.364   5
  -4  17  -5 2240.60 169.942   6
  -5  17  -5 764.786 118.801   6
  -5 -17  -5 667.866 122.934   6
  -5 -17  -5 672.611 124.656   2
  -6  17  -5-99.4600 97.1096   6
  -6 -17  -5 7.27486 101.332   6
  -6 -17  -5 16.5038 98.1163   2
  -7  17  -5 2844.69 209.062   6
  -7 -17  -5 2321.87 213.802   6
  -7 -17  -5 2614.23 211.925   2
   7  17   5 3077.39 233.383   1
  -8  17  -5 423.129 119.510   6
  -8 -17  -5 745.983 158.644   6
  -8 -17  -5 355.970 123.144   2
   8  17   5 493.064 132.750   1
  -9  17  -5 377.590 137.687   6
  -9 -17  -5 326.717 145.634   6
 -10  17  -5 249.350 137.468   6
 -10 -17  -5 304.122 155.113   6
  11 -18  -5 3557.71 294.201   3
 -11 -18   5 3637.61 292.804   2
  11  18  -5 3135.02 285.146   6
  10 -18  -5 5486.42 346.703   3
 -10 -18   5 4490.67 315.975   2
  10  18  -5 4567.05 312.564   6
 -10  18   5 4609.10 266.907   1
   9 -18  -5 3.88709 125.107   3
  -9 -18   5 366.289 140.557   2
   9  18  -5 208.392 147.250   6
   8 -18  -5 3979.69 276.683   3
  -8 -18   5 4146.71 279.823   2
   8  18  -5 4531.90 286.096   6
   7 -18  -5 5056.96 301.566   3
  -7 -18   5 4676.96 285.212   2
   7  18  -5 4423.42 263.464   6
  -6 -18   5 438.420 135.793   2
   6  18  -5 485.244 125.634   6
  -5 -18   5 12121.7 422.721   2
   5  18  -5 11753.8 393.365   6
  -4 -18   5 18933.5 525.569   2
   4  18  -5 19137.5 501.627   6
  -3 -18   5 773.961 130.147   2
   3  18  -5 894.442 130.508   6
  -2 -18   5 29017.7 639.289   2
  -2 -18   5 27114.4 532.559   4
   2  18  -5 29075.3 616.297   6
   1 -18  -5 264.336 121.930   5
  -1 -18   5 153.540 89.8835   2
   1  18  -5 159.511 89.7764   6
  -1 -18   5 342.676 82.7403   4
   1 -18  -5 182.313 25.7991   6
   0 -18  -5 997.666 66.8871   6
   0 -18  -5 955.527 70.4720   6
   0  18  -5 1018.58 118.137   6
   0  18   5 996.280 82.6628   4
   0 -18   5 905.300 118.612   2
   0 -18  -5 988.891 144.911   5
  -1 -18  -5 10213.8 253.393   6
  -1 -18  -5 9733.88 373.818   5
  -1 -18  -5 10285.7 266.164   6
   1  18   5 9979.58 253.131   4
  -1  18  -5 10327.3 332.555   6
   1 -18   5 9835.02 315.215   2
  -2 -18  -5 78.1820 53.3060   6
   2 -18   5 126.567 75.9439   2
  -2 -18  -5 93.2225 114.308   5
  -2  18  -5-72.8916 90.7396   6
  -3 -18  -5 26632.4 553.254   6
   3 -18   5 26968.6 533.804   2
  -3 -18  -5 25201.1 653.383   5
  -3  18  -5 25695.1 585.639   6
  -4 -18  -5 13395.1 394.379   6
  -4 -18  -5 12591.1 452.316   5
  -4 -18  -5 12626.8 439.296   2
  -4  18  -5 12962.9 397.472   6
  -5  18  -5-45.8190 84.9069   6
  -5 -18  -5 31.6373 85.7547   6
  -5 -18  -5 18.4802 123.120   5
  -5 -18  -5 85.6635 110.786   2
  -6 -18  -5 2979.29 222.358   2
  -6 -18  -5 2818.29 212.705   6
  -6 -18  -5 2673.85 234.648   5
  -6  18  -5 2774.27 200.041   6
  -7 -18  -5 3531.02 256.123   6
  -7 -18  -5 4263.18 269.068   2
   7  18   5 4295.10 279.392   1
  -7  18  -5 4264.46 254.392   6
  -8  18  -5 1467.50 177.389   6
  -8 -18  -5 1335.31 198.759   6
   8  18   5 1514.55 184.453   1
  -8 -18  -5 1288.15 176.839   2
  -9  18  -5 10615.6 423.916   6
  -9 -18  -5 10397.6 470.250   6
 -10  18  -5 70.3519 139.103   6
  11 -19  -5 3076.95 282.335   3
 -11 -19   5 3863.49 307.984   2
  11  19  -5 3587.14 303.875   6
  10 -19  -5 5.64818 141.326   3
  10  19  -5 291.363 146.849   6
   9 -19  -5 8558.76 413.812   3
  -9 -19   5 9182.24 423.567   2
   9  19  -5 8878.30 412.926   6
  -9  19   5 8282.00 367.995   1
   8 -19  -5 2044.13 221.959   3
  -8 -19   5 2365.73 224.299   2
   8  19  -5 2510.26 221.074   6
  -7 -19   5 11254.9 439.754   2
   7  19  -5 11920.2 430.582   6
  -6 -19   5 33196.9 781.131   2
   6  19  -5 31967.7 739.543   6
  -5 -19   5 576.940 143.169   2
   5  19  -5 580.426 118.789   6
  -4 -19   5 40639.5 851.748   2
   4  19  -5 40007.7 807.381   6
  -3 -19   5 43287.1 869.637   2
   3  19  -5 43377.8 833.691   6
   2  19  -5 2073.97 165.371   6
  -2 -19   5 1929.31 172.233   2
   1 -19  -5 47303.0 934.012   5
  -1 -19   5 46398.1 879.636   2
   1  19  -5 47464.5 862.545   6
   0 -19  -5 7566.45 331.649   5
   0 -19   5 7639.33 293.354   2
   0  19  -5 7349.53 284.470   6
   0 -19  -5 7507.30 179.388   6
  -1 -19  -5 10815.4 258.321   6
  -1 -19  -5 10302.6 391.857   5
  -1  19  -5 11200.4 352.757   6
   1 -19   5 10980.5 341.860   2
   2 -19   5 17836.3 440.536   2
  -2 -19  -5 17494.8 389.765   6
  -2 -19  -5 17778.1 534.541   5
  -2  19  -5 17991.3 465.589   6
  -3 -19  -5 12153.5 341.183   6
   3 -19   5 12251.3 340.605   2
  -3 -19  -5 11698.1 432.989   5
  -3  19  -5 11110.4 362.987   6
  -4 -19  -5 12200.8 373.117   6
  -4 -19  -5 10981.1 429.474   5
  -4 -19  -5 11846.3 436.000   2
  -4  19  -5 12146.0 386.920   6
  -5 -19  -5 19682.9 532.172   6
  -5 -19  -5 19726.5 601.436   5
  -5 -19  -5 19912.6 584.328   2
  -5  19  -5 20415.9 529.068   6
  -6  19  -5 940.718 140.094   6
  -6 -19  -5 704.426 136.437   6
   6  19   5 743.045 154.205   1
  -6 -19  -5 733.178 158.678   5
  -6 -19  -5 699.461 150.111   2
  -7 -19  -5 10595.1 428.008   6
  -7 -19  -5 9886.36 411.545   2
  -7 -19  -5 10273.2 440.816   5
   7  19   5 9883.88 423.860   1
  -7  19  -5 10219.9 388.548   6
   8  19   5 15457.1 527.948   1
  -8 -19  -5 15779.2 555.197   6
  -8 -19  -5 16311.8 538.745   2
  -8 -19  -5 16812.9 586.413   5
  -8  19  -5 15480.9 503.209   6
  -9  19  -5 789.675 158.134   6
  -9 -19  -5 426.638 159.182   6
  11  20  -5 937.929 201.335   6
 -10 -20   5 7476.88 401.174   2
  10  20  -5 7545.13 398.447   6
  -9  20   5 170.686 115.889   1
  -9 -20   5 145.165 132.793   2
   9  20  -5 247.932 141.472   6
  -8 -20   5 5945.57 338.180   2
   8  20  -5 5801.11 320.859   6
  -7 -20   5 2277.08 219.574   2
   7  20  -5 2089.21 195.895   6
  -6 -20   5 7992.37 369.303   2
   6  20  -5 7953.39 347.479   6
  -5 -20   5 11323.4 425.216   2
   5  20  -5 11319.5 396.877   6
  -4 -20   5 1796.21 184.346   2
   4  20  -5 1547.21 156.468   6
  -3 -20   5 3416.89 226.791   2
   3  20  -5 3291.90 210.069   6
  -2 -20   5 34532.7 755.564   2
   2  20  -5 36749.6 737.693   6
   1 -20  -5 5264.35 284.018   5
  -1 -20   5 5472.07 262.031   2
   1  20  -5 5116.73 244.645   6
   0 -20  -5 8427.48 355.637   5
   0  20  -5 8484.60 305.977   6
   0 -20   5 8385.95 315.567   2
   0 -20  -5 8091.58 178.984   6
  -1 -20  -5 5217.27 167.178   6
  -1 -20  -5 4661.77 274.256   5
  -1  20  -5 5277.86 239.536   6
   1 -20   5 4892.75 234.023   2
  -2 -20  -5 175.345 62.6045   6
   2 -20   5 122.400 83.2409   2
  -2 -20  -5 350.008 139.293   5
  -2  20  -5 36.9193 77.8282   6
  -3 -20  -5 5595.21 225.237   6
   3 -20   5 5647.47 234.503   2
  -3 -20  -5 5434.31 305.042   5
  -3  20  -5 5699.78 255.770   6
  -4 -20  -5 5197.87 241.283   6
  -4 -20  -5 5719.97 316.068   5
  -4 -20  -5 5403.86 300.811   2
  -4  20  -5 5602.10 260.798   6
  -5 -20  -5 1835.34 168.682   6
  -5 -20  -5 1910.86 207.307   5
  -5 -20  -5 1890.17 200.381   2
   5  20   5 1816.92 207.696   1
  -5  20  -5 1836.96 163.769   6
  -6 -20  -5 12823.8 447.100   6
  -6 -20  -5 14038.7 509.920   5
  -6 -20  -5 12711.3 473.542   2
   6  20   5 13027.0 503.028   1
  -6  20  -5 13909.3 437.506   6
  -7 -20  -5 2565.56 220.687   6
  -7 -20  -5 2563.73 251.737   5
   7  20   5 2275.22 226.519   1
  -7 -20  -5 2222.37 221.383   2
  -7  20  -5 2532.04 206.301   6
   8  20   5 3869.81 282.786   1
  -8 -20  -5 4076.81 297.743   6
  -8 -20  -5 3959.84 277.560   2
  -8 -20  -5 4123.46 310.296   5
  -8  20  -5 4436.16 270.531   6
  -9 -20  -5 7565.12 401.119   6
  10  21  -5 159.160 154.167   6
 -10 -21   5 435.765 177.645   2
  -9  21   5-60.6947 118.077   1
   9  21  -5-68.1681 134.209   6
  -9 -21   5-105.703 155.448   2
  -8  21   5 544.317 142.957   1
  -8 -21   5 605.252 169.711   2
   8  21  -5 1118.62 185.627   6
   7  21  -5 899.650 155.189   6
  -7 -21   5 779.827 165.672   2
  -6 -21   5 1483.70 189.484   2
   6  21  -5 1351.41 166.950   6
   5  21  -5 217.698 115.494   6
  -5 -21   5 251.036 121.771   2
  -4 -21   5 5080.41 289.284   2
   4  21  -5 5268.42 266.385   6
   3  21  -5 1134.21 139.303   6
  -3 -21   5 1108.98 152.822   2
  -2 -21   5 2823.69 208.142   2
   2  21  -5 2806.09 192.722   6
   1  21  -5 389.083 107.494   6
  -1 -21   5 442.236 119.480   2
   0 -21   5 501.476 115.174   2
   0 -21  -5 482.527 148.273   5
   0  21  -5 557.672 107.906   6
   1 -21   5 205.194 98.4475   2
  -1 -21  -5 370.942 131.515   5
  -1  21  -5 296.990 97.1532   6
  -2 -21  -5 1396.83 103.475   6
   2 -21   5 1383.41 138.654   2
  -2 -21  -5 1270.98 175.886   5
  -2  21  -5 1227.25 130.260   6
  -3 -21  -5 99.6301 64.8269   6
  -3 -21  -5 20.1699 122.922   5
   3 -21   5 194.552 83.4094   2
  -3  21  -5 70.5722 83.0095   6
  -4 -21  -5 29.5537 76.5324   6
  -4 -21  -5 131.302 138.096   5
  -4 -21  -5-11.8329 119.056   2
  -4  21  -5 130.697 82.2699   6
  -5 -21  -5 103.369 89.6365   6
   5  21   5-54.7298 138.917   1
  -5 -21  -5 39.0127 131.919   5
  -5 -21  -5-70.0115 128.339   2
  -5  21  -5 113.022 94.9134   6
  -6 -21  -5 5001.76 280.396   6
  -6 -21  -5 5578.73 342.612   5
  -6 -21  -5 5689.48 327.568   2
  -6  21  -5 5410.47 274.527   6
   6  21   5 5744.45 339.485   1
  -7  21  -5 631.214 137.493   6
  -7 -21  -5 229.283 122.841   6
  -7 -21  -5 118.648 140.433   5
   7  21   5 338.566 147.169   1
  -7 -21  -5 220.884 136.266   2
  -8 -21  -5-134.229 125.267   6
  -8 -21  -5-131.570 148.341   2
   8  21   5-48.4373 128.872   1
  -9 -21  -5 1398.38 197.980   6
  10  22  -5 6338.96 375.076   6
   9  22  -5 172.929 149.229   6
  -9 -22   5 8.66129 136.422   2
  -8 -22   5 5713.94 343.374   2
   8  22  -5 6261.66 346.440   6
  -8  22   5 5276.33 321.009   1
  -7 -22   5 6081.75 346.413   2
   7  22  -5 6326.44 326.465   6
  -7  22   5 5933.62 342.734   1
   6  22  -5 1006.02 156.796   6
  -6 -22   5 1176.94 178.667   2
  -5 -22   5 20979.0 614.386   2
   5  22  -5 20696.3 568.953   6
  -4 -22   5 8294.94 371.430   2
   4  22  -5 9013.02 350.394   6
  -3 -22   5 5384.25 293.285   2
   3  22  -5 5494.52 267.023   6
  -2 -22   5 25757.8 656.428   2
   2  22  -5 27448.5 625.897   6
   1  22  -5 17310.5 471.759   6
  -1 -22   5 17308.3 504.950   2
   0 -22  -5 10758.6 424.364   5
   0  22  -5 10850.6 361.387   6
   0 -22   5 10447.8 371.696   2
   1 -22   5 7119.17 297.989   2
  -1 -22  -5 6757.75 341.291   5
  -1  22  -5 7049.48 286.392   6
   2 -22   5 375.122 102.501   2
  -2 -22  -5 255.858 131.852   5
  -2  22  -5 176.842 85.6643   6
   3 -22   5 17641.3 461.361   2
  -3 -22  -5 16861.9 555.626   5
  -3  22  -5 17485.8 476.039   6
  -4 -22  -5 4758.19 309.190   5
  -4 -22  -5 4770.76 299.722   2
   4  22   5 4816.16 320.709   1
  -4  22  -5 5406.76 260.072   6
  -5 -22  -5 106.582 86.3551   6
   5  22   5 137.102 148.833   1
  -5 -22  -5 209.775 145.915   5
  -5 -22  -5-87.1796 133.381   2
  -5  22  -5 121.082 94.6597   6
  -6 -22  -5 19348.7 556.463   6
  -6 -22  -5 19628.3 633.759   5
  -6 -22  -5 19240.2 621.004   2
  -6  22  -5 19837.4 539.351   6
   6  22   5 18673.8 628.634   1
  -7 -22  -5 392.872 126.019   6
  -7 -22  -5 571.707 165.814   5
  -7 -22  -5 152.568 136.506   2
   7  22   5 296.890 137.694   1
  -8 -22  -5 3283.91 266.997   6
  -8 -22  -5 2786.67 255.553   2
  10  23  -5 3708.35 310.033   6
  -9  23   5 6441.79 355.199   1
  -9 -23   5 7553.80 409.522   2
   9  23  -5 7895.67 403.343   6
  -8  23   5 2810.76 249.087   1
   8  23  -5 3031.12 254.617   6
  -8 -23   5 2634.58 253.799   2
  -7 -23   5 6603.84 370.951   2
   7  23  -5 6476.89 337.301   6
  -7  23   5 6355.43 361.851   1
   6  23  -5 8092.55 366.939   6
  -6  23   5 8015.12 403.743   1
  -6 -23   5 8824.33 406.689   2
   5  23  -5 1160.22 158.316   6
  -5 -23   5 1056.58 170.281   2
  -4 -23   5 15357.3 520.770   2
   4  23  -5 15854.2 482.039   6
  -3 -23   5 3176.24 239.813   2
   3  23  -5 3499.14 220.912   6
   2  23  -5 1782.64 164.107   6
  -2 -23   5 1888.40 187.351   2
   1  23  -5 32155.2 699.354   6
  -1 -23   5 32514.1 744.371   2
   0  23  -5 18104.5 482.436   6
   0 -23   5 18109.1 515.957   2
   1 -23   5 7301.83 309.430   2
  -1 -23  -5 7320.26 361.074   5
  -1  23  -5 8077.26 309.300   6
   2 -23   5 10715.4 368.381   2
  -2 -23  -5 9929.21 426.745   5
  -2  23  -5 11141.8 367.673   6
   3 -23   5 3518.80 209.879   2
  -3 -23  -5 3639.52 272.298   5
  -3  23  -5 3584.40 212.333   6
   3  23   5 3543.07 285.869   1
  -4 -23  -5 3230.76 267.307   5
  -4 -23  -5 3488.44 265.352   2
  -4  23  -5 3771.33 222.437   6
   4  23   5 3220.11 279.463   1
  -5 -23  -5 20119.7 649.099   5
  -5 -23  -5 20249.3 641.821   2
  -5  23  -5 20268.0 533.664   6
   5  23   5 19431.6 652.356   1
  -6 -23  -5 294.850 176.838   5
   6  23   5 232.933 140.330   1
  -6 -23  -5 6.57727 135.984   2
   7  23   5 5200.17 336.666   1
  -7 -23  -5 4585.12 324.167   5
  -7 -23  -5 4779.10 322.173   2
  -8 -23  -5 4713.76 323.820   2
   9  24  -5 426.435 165.774   6
  -9  24   5 201.129 145.736   1
   8  24  -5 1057.56 183.513   6
  -8  24   5 1115.87 190.687   1
  -8 -24   5 1199.99 209.756   2
  -7  24   5 1113.98 191.607   1
   7  24  -5 1110.21 178.877   6
  -7 -24   5 1095.30 203.596   2
   6  24  -5 369.230 133.651   6
  -6 -24   5 350.600 145.703   2
  -5  24   5-91.3301 126.711   1
   5  24  -5 14.5617 112.453   6
  -5 -24   5 30.4800 129.664   2
   4  24  -5 961.810 149.878   6
  -4 -24   5 806.155 165.051   2
   3  24  -5 159.126 103.367   6
  -3 -24   5-1.23564 119.817   2
   2  24  -5 14.6880 87.7605   6
  -2 -24   5 95.5097 112.777   2
  -1 -24   5 85.5164 118.779   2
   1  24  -5 133.938 104.072   6
   0 -24   5 162.635 111.854   2
   0  24  -5 181.658 85.1321   6
   1 -24   5 2981.81 211.141   2
  -1 -24  -5 2742.49 244.269   5
  -1  24  -5 2988.45 198.217   6
   1  24   5 2675.47 254.327   1
   2  24   5 923.337 181.936   1
  -2 -24  -5 1301.68 196.039   5
   2 -24   5 684.448 127.481   2
  -2  24  -5 1074.75 136.014   6
   3  24   5 554.490 157.931   1
  -3 -24  -5 692.570 167.295   5
   3 -24   5 758.285 121.224   2
  -3  24  -5 787.954 126.404   6
   4  24   5 206.453 147.258   1
  -4  24  -5 174.978 102.982   6
  -5 -24  -5 57.4618 144.930   5
  -5 -24  -5 263.168 157.863   2
  -6 -24  -5 1040.45 194.889   5
  -6 -24  -5 1376.99 202.223   2
   6  24   5 1177.25 191.636   1
  -7 -24  -5 172.163 157.492   2
  -9  25   5 5940.16 355.249   1
   9  25  -5 5949.89 364.778   6
   8  25  -5 1202.18 198.884   6
  -8  25   5 784.963 182.000   1
   7  25  -5 4829.59 315.720   6
  -7 -25   5 4923.94 335.464   2
  -7  25   5 4421.22 320.473   1
   6  25  -5 5572.77 317.829   6
  -6 -25   5 5394.15 341.569   2
  -6  25   5 5243.46 343.288   1
  -5  25   5-76.6814 144.027   1
   5  25  -5 31.2230 115.709   6
  -5 -25   5 78.0322 133.065   2
   4  25  -5 4477.52 263.992   6
  -4 -25   5 4837.16 306.898   2
  -4  25   5 4087.92 307.476   1
   3  25  -5 8450.51 344.300   6
  -3 -25   5 8417.55 389.229   2
  -3  25   5 7908.48 417.530   1
  -2 -25   5 586.651 156.274   2
  -2  25   5 391.438 165.197   1
   2  25  -5 593.383 135.234   6
   1  25  -5 14477.6 441.202   6
  -1  25   5 13895.8 559.792   1
  -1 -25   5 13944.0 478.235   2
   0  25  -5 4049.56 232.233   6
   0  25   5 3591.14 297.106   1
   0 -25   5 3915.15 256.754   2
   1  25   5 155.295 140.127   1
   1 -25   5 451.102 122.230   2
  -1  25  -5 210.455 92.0593   6
   2  25   5 1655.05 226.502   1
  -2 -25  -5 1358.14 202.780   5
   2 -25   5 1183.46 153.600   2
  -2  25  -5 1594.75 155.004   6
   3  25   5 767.716 190.584   1
  -3 -25  -5 377.221 152.751   5
   3 -25   5 626.670 121.144   2
  -3  25  -5 761.367 128.629   6
  -4 -25  -5 376.184 164.519   5
   4  25   5 392.749 161.444   1
   5  25   5 9219.97 457.330   1
  -5 -25  -5 8840.16 443.052   5
  -5 -25  -5 9883.82 462.372   2
  -6 -25  -5 1611.09 215.146   2
   7  25   5 2054.52 240.800   1
  -7 -25  -5 2715.32 259.968   2
   9  26  -5 330.182 157.295   6
  -8  26   5 15081.7 573.206   1
   8  26  -5 16012.6 580.545   6
  -7  26   5 10640.5 489.088   1
   7  26  -5 11088.4 464.055   6
  -7 -26   5 10737.9 490.428   2
   6  26  -5 160.737 128.950   6
  -6  26   5-103.006 130.576   1
  -6 -26   5-84.7111 149.578   2
   5  26  -5 13641.7 478.081   6
  -5 -26   5 13308.0 527.557   2
  -5  26   5 13353.4 546.137   1
   4  26  -5 2694.37 215.850   6
  -4  26   5 3083.44 275.648   1
  -4 -26   5 2834.85 253.945   2
   3  26  -5 4281.27 254.931   6
  -3 -26   5 3674.04 273.651   2
  -3  26   5 4012.74 319.177   1
   2  26  -5 28831.9 672.822   6
  -2 -26   5 27640.3 731.908   2
  -2  26   5 27033.0 813.628   1
  -1 -26   5 1184.82 174.670   2
  -1  26   5 1014.65 200.673   1
   1  26  -5 1118.09 148.418   6
   0 -26   5 13100.4 465.952   2
   0  26  -5 14456.7 440.854   6
   0  26   5 13595.1 564.565   1
   1 -26   5 17275.1 532.641   2
  -1  26  -5 19090.0 508.879   6
   1  26   5 18173.1 651.650   1
  -2 -26  -5-97.9560 146.417   5
   2  26   5-29.2373 131.594   1
   2 -26   5 105.876 113.227   2
  -3 -26  -5 7566.45 399.709   5
   3  26   5 7321.06 423.114   1
   4  26   5 8629.72 448.122   1
  -4 -26  -5 8509.65 427.479   5
  -5 -26  -5 1490.11 219.517   2
   5  26   5 1072.96 188.297   1
   6  26   5 12056.1 534.040   1
  -6 -26  -5 12199.3 526.294   2
   8  27  -5 403.257 158.958   6
  -8  27   5 793.718 180.966   1
   7  27  -5 2517.92 245.126   6
   6  27  -5 1137.00 173.392   6
  -6  27   5 1439.14 212.487   1
  -6 -27   5 1173.42 200.120   2
   5  27  -5 786.298 150.172   6
  -5  27   5 770.299 181.191   1
  -5 -27   5 846.093 178.137   2
  -4  27   5 3009.78 276.913   1
   4  27  -5 3435.25 242.296   6
  -4 -27   5 3640.56 284.553   2
   3  27  -5 3857.59 247.957   6
  -3 -27   5 3802.35 286.764   2
  -3  27   5 3963.89 317.050   1
  -2 -27   5 1947.84 218.357   2
  -2  27   5 1197.91 219.804   1
   2  27  -5 2203.24 188.024   6
   1  27  -5 5876.16 283.192   6
  -1  27   5 5031.48 354.810   1
  -1 -27   5 4812.43 299.233   2
   0 -27   5 1138.87 172.104   2
   0  27   5 1416.89 220.104   1
   1 -27   5 1774.88 191.018   2
   1  27   5 1866.19 237.903   1
   2 -27   5 13448.7 464.344   2
   2  27   5 13950.7 580.142   1
  -3 -27  -5 1339.71 213.348   5
   3  27   5 1406.42 231.788   1
   4  27   5 4302.04 330.739   1
  -8  28   5 2600.76 270.957   1
   8  28  -5 2713.52 269.523   6
   7  28  -5 1506.66 219.691   6
  -7  28   5 2133.34 248.144   1
   6  28  -5 46.1287 130.925   6
  -6  28   5 127.760 143.925   1
   5  28  -5-10.8591 128.117   6
  -5  28   5 20.0798 116.785   1
  -5 -28   5 381.705 164.020   2
   4  28  -5 27.6200 114.083   6
  -4  28   5-166.214 151.955   1
  -3 -28   5 113.105 130.701   2
  -3  28   5 172.616 152.907   1
   3  28  -5 116.343 112.438   6
  -2 -28   5 3203.05 260.405   2
  -2  28   5 3037.95 293.665   1
  -1 -28   5 1069.10 176.849   2
  -1  28   5 768.038 188.723   1
   0 -28   5 641.280 143.376   2
   0  28   5 661.314 188.692   1
   1 -28   5 2407.97 221.834   2
   1  28   5 2533.55 276.742   1
   2 -28   5-196.419 142.801   2
   2  28   5-127.642 146.360   1
   7  29  -5 2553.17 260.986   6
   6  29  -5 12699.2 500.142   6
  -4  29   5 3649.99 307.894   1
  -4 -29   5 3274.29 285.529   2
  -3  29   5 6223.83 405.339   1
  -3 -29   5 6906.65 384.408   2
  -2  29   5 3613.18 321.761   1
  -2 -29   5 3426.22 276.523   2
  -1  29   5 6923.79 425.211   1
  -1 -29   5 6164.99 351.557   2
   1 -29   5 1271.40 187.243   2
  -3 -30   5 1934.84 237.194   2
  -2 -30   5 7252.77 397.327   2
  -1 -30   5-8.55395 131.268   2
   0 -30   5 4685.25 311.208   2
   1 -30   5 5138.56 323.772   2
  -1 -31   5-305.107 169.666   2
   0 -31   5-94.2020 133.842   2
   1 -31   5-95.8666 143.505   2
  14   0  -6 1697.39 224.860   6
  13   0  -6 517.875 158.974   6
  12   0  -6 12763.8 475.011   6
  11   0  -6 1874.99 188.855   6
  10   0  -6 13317.1 441.363   6
   9   0  -6 81514.3 1332.21   6
   8   0  -6 444.253 108.034   6
   7   0  -6 27478.8 582.253   6
   6   0  -6 28836.9 584.180   6
   5   0  -6 1548.41 124.914   6
   4   0  -6 61286.0 832.272   5
   4   0  -6 60196.5 953.866   6
   3   0  -6 54742.0 878.722   6
  -3   0   6 55781.9 874.381   6
  -2   0   6 47553.0 769.405   6
   2   0  -6 45377.4 766.130   6
  -1   0   6 13890.5 342.049   6
   1   0  -6 14093.2 348.688   6
   0   0  -6 35867.4 650.862   6
  -1   0  -6 1707.08 127.269   6
  -2   0  -6 64349.1 1038.00   6
   2   0   6 64977.9 877.877   2
  -3   0  -6 10241.0 330.285   6
   3   0   6 10451.8 193.065   2
  -4   0  -6 40187.0 778.863   6
  -5   0  -6 11578.2 385.470   6
  -6   0  -6 5695.48 282.664   6
  -7   0  -6 11956.8 431.382   6
  -8   0  -6 29152.1 742.142   6
  -9   0  -6 1534.00 189.088   6
 -10   0  -6 7059.85 383.930   6
  14  -1  -6 679.074 169.386   6
  14   1  -6 723.147 172.854   6
  13  -1  -6 4817.86 313.480   6
  13   1  -6 4599.75 307.538   6
  12  -1  -6 2352.87 223.473   6
  12   1  -6 2625.90 231.483   6
  11  -1  -6 685.729 134.922   6
  11   1  -6 809.585 149.324   6
  10  -1  -6 4651.81 261.906   6
  10   1  -6 4720.44 271.328   6
   9  -1  -6 559.671 136.931   6
   9   1  -6 330.742 127.288   6
   8  -1  -6 4054.96 212.773   6
   8   1  -6 3474.63 203.729   6
   7  -1  -6 8641.05 293.864   6
   7   1  -6 8579.56 302.087   6
   6  -1  -6 832.541 106.891   6
   6   1  -6 840.138 109.479   6
   5  -1  -6 32402.8 605.477   6
   5   1  -6 31146.6 608.392   6
  -4   1   6 501.122 83.4376   6
   4  -1  -6 497.860 60.5414   5
   4   1  -6 696.491 99.4377   6
   4  -1  -6 634.388 95.6900   6
   3   1  -6 3505.45 173.028   6
   3  -1  -6 3506.56 163.704   6
  -3   1   6 3660.85 163.323   6
  -2   1   6 23688.2 472.958   6
   2   1  -6 24389.8 489.453   6
   2  -1  -6 23266.5 471.707   6
  -1   1   6 7726.96 244.993   6
   1   1  -6 7987.60 255.219   6
   1  -1  -6 7902.90 250.434   6
   0   1  -6 23068.3 484.116   6
   0  -1  -6 22892.9 478.369   6
  -1   1  -6 10744.6 315.082   6
  -1  -1  -6 10667.7 305.985   6
  -2   1  -6 170.317 75.3431   6
  -2  -1  -6 287.114 83.9589   6
  -2  -1  -6 180.474 21.0284   3
   2   1   6 200.051 44.3488   2
   2  -1   6 171.491 36.8829   2
  -3   1  -6 42263.7 768.229   6
  -3  -1  -6 41284.2 761.209   6
   3   1   6 40415.2 573.217   2
   3  -1   6 39831.2 535.695   2
  -4   1  -6 13628.6 406.802   6
  -4  -1  -6 13859.0 403.548   6
  -5   1  -6 19486.3 520.605   6
  -5  -1  -6 20164.6 525.399   6
  -6   1  -6 5673.45 279.025   6
  -6  -1  -6 5858.50 290.128   6
  -7   1  -6 4173.74 258.854   6
  -7  -1  -6 4587.80 271.911   6
  -8   1  -6 2699.67 226.439   6
  -8  -1  -6 2691.11 227.745   6
  -9   1  -6 5125.86 315.345   6
  -9  -1  -6 5271.52 321.272   6
 -10   1  -6 137.684 133.296   6
 -10  -1  -6 51.5996 120.756   6
  15  -2  -6 518.088 176.998   6
  14  -2  -6 345.214 162.531   6
  14   2  -6 629.673 174.448   6
  13  -2  -6 247.652 148.744   6
  13   2  -6-33.1697 137.561   6
  12  -2  -6 541.887 137.233   6
  12   2  -6 535.758 151.181   6
  11  -2  -6 618.266 134.692   6
  11   2  -6 476.967 135.838   6
  10  -2  -6 468.563 121.507   6
  10   2  -6 433.374 134.999   6
   9  -2  -6 5548.74 264.952   6
   9   2  -6 5122.83 264.477   6
   8  -2  -6 120.724 86.9304   6
   8   2  -6 172.871 98.2176   6
   7  -2  -6 152.285 86.5161   6
   7   2  -6 254.380 92.2567   6
   6  -2  -6 6815.16 244.562   6
   6   2  -6 7329.94 269.136   6
   5  -2  -6 2750.09 158.304   6
   5   2  -6 2974.64 174.559   6
   4  -2  -6 19702.1 358.972   5
   4   2  -6 19440.0 440.891   6
   4  -2  -6 20063.6 424.618   6
  -4   2   6 19595.9 419.534   6
  -3   2   6 1971.78 120.924   6
   3   2  -6 1535.72 126.038   6
   3  -2  -6 1865.89 125.042   6
   2   2  -6 34.0069 66.8765   6
   2  -2  -6 74.6082 63.9077   6
  -1   2   6 4095.40 170.880   6
   1   2  -6 4114.32 184.491   6
   1  -2  -6 3686.59 168.902   6
   0   2  -6 678.738 96.3079   6
   0  -2  -6 585.216 90.5125   6
  -1   2  -6 4364.76 199.402   6
  -1  -2  -6 4098.01 188.645   6
  -2   2  -6 852.338 109.018   6
  -2  -2  -6 1059.33 113.581   6
   2   2   6 1096.52 75.9857   2
  -2  -2  -6 921.478 36.0191   3
  -3   2  -6 3924.32 205.027   6
  -3  -2  -6 3890.78 198.892   6
   3   2   6 3694.28 119.508   2
  -4   2  -6 7136.55 284.313   6
  -4  -2  -6 7122.17 288.557   6
   4   2   6 7135.01 158.817   2
  -5   2  -6 3534.89 214.463   6
  -5  -2  -6 3561.69 219.801   6
  -6   2  -6 1831.65 181.230   6
  -6  -2  -6 1953.90 184.320   6
  -7   2  -6 3410.95 238.412   6
  -7  -2  -6 3695.58 247.039   6
  -8   2  -6 1622.47 190.732   6
  -8  -2  -6 1886.30 208.227   6
  -9   2  -6 109.800 116.934   6
  -9  -2  -6 183.298 127.769   6
 -10   2  -6 881.231 178.930   6
 -10  -2  -6 754.450 166.505   6
  15  -3  -6 400.671 171.580   6
  14  -3  -6 1550.26 216.657   6
  14   3  -6 1274.25 203.739   6
  13  -3  -6 4586.70 301.669   6
  13   3  -6 4329.94 310.117   6
  12  -3  -6 217.314 121.311   6
  12   3  -6 176.342 129.592   6
  11  -3  -6 5667.03 296.706   6
  11   3  -6 5631.42 313.491   6
  10  -3  -6 19706.6 539.005   6
  10   3  -6 20794.5 575.441   6
   9  -3  -6 481.292 116.269   6
   9   3  -6 351.644 122.726   6
   8  -3  -6 24473.8 549.671   6
   8   3  -6 24855.9 587.722   6
   7  -3  -6 10379.4 318.181   6
   7   3  -6 9958.59 337.810   6
   6  -3  -6 600.553 93.4214   6
   6   3  -6 634.643 105.699   6
   5  -3  -6 67623.7 1034.84   6
   5   3  -6 67145.8 1071.29   6
  -5   3   6 68398.7 1024.76   6
   4  -3  -6 3139.84 131.249   5
   4   3  -6 3416.38 177.027   6
   4  -3  -6 3014.28 152.931   6
  -4   3   6 3343.33 154.562   6
  -3   3   6 26511.8 497.438   6
   3   3  -6 25737.0 525.233   6
   3  -3  -6 26501.1 503.433   6
  -2   3   6 20176.9 414.164   6
   2   3  -6 19174.7 436.868   6
   2  -3  -6 20186.5 418.197   6
  -1   3   6 2731.19 141.234   6
   1   3  -6 2521.93 150.046   6
   1  -3  -6 2489.06 139.502   6
   0   3   6 61017.6 958.466   6
   0   3  -6 61693.4 981.182   6
   0  -3  -6 61469.8 954.359   6
  -1   3  -6 64840.1 1026.60   6
  -1  -3  -6 64293.5 855.407   3
  -1  -3  -6 63534.9 1000.34   6
   1   3   6 62994.8 923.069   2
  -2   3  -6 45.7756 69.6338   6
  -2  -3  -6 90.6680 77.5963   6
   2   3   6 66.9115 44.6973   2
  -3   3  -6 51959.1 913.035   6
  -3  -3  -6 52581.2 905.725   6
  -3   3  -6 51631.7 679.471   3
   3   3   6 53136.7 751.769   2
  -4   3  -6 14787.3 422.278   6
  -4  -3  -6 14911.3 424.137   6
   4   3   6 14576.7 275.166   2
  -5   3  -6 5111.79 259.319   6
  -5  -3  -6 5425.91 265.762   6
  -6   3  -6 50954.0 977.203   6
  -6  -3  -6 50784.6 988.282   6
  -7   3  -6 11697.1 431.132   6
  -7  -3  -6 12279.0 447.430   6
  -8   3  -6 13363.2 478.631   6
  -8  -3  -6 13089.9 482.958   6
  -9   3  -6 14546.7 521.858   6
  -9  -3  -6 15741.0 552.015   6
 -10   3  -6 65.1848 129.246   6
 -10  -3  -6 99.9044 135.218   6
  15  -4  -6 9395.81 460.411   6
  14  -4  -6 5248.65 332.479   6
  14   4  -6 5608.09 369.873   6
  13  -4  -6 331.153 149.228   6
  13   4  -6 233.218 149.223   6
  12  -4  -6 5607.47 306.250   6
  12   4  -6 5046.78 319.838   6
  11  -4  -6 5511.05 287.660   6
  11   4  -6 5881.56 319.987   6
  10  -4  -6 16911.5 487.555   6
  10   4  -6 17615.1 528.785   6
   9  -4  -6 17998.5 477.327   6
   9   4  -6 17370.1 501.623   6
   8  -4  -6 8241.83 293.834   6
   8   4  -6 8318.71 319.911   6
   7  -4  -6 38186.5 708.102   6
   7   4  -6 40344.5 768.886   6
   6  -4  -6 26734.1 534.042   6
   6   4  -6 27256.8 581.531   6
   5  -4  -6 6466.42 222.887   6
   5   4  -6 6313.10 246.801   6
  -5   4   6 6293.14 215.878   6
   4  -4  -6 56234.4 833.884   5
   4   4  -6 55236.7 919.730   6
   4  -4  -6 56993.5 876.963   6
  -4   4   6 57256.0 874.698   6
  -3   4   6 51465.7 811.409   6
   3  -4  -6 51989.2 798.737   5
   3   4  -6 52048.1 865.121   6
   3  -4  -6 53822.1 826.817   6
  -2   4   6 4409.60 173.670   6
   2   4  -6 4635.47 198.345   6
   2  -4  -6 4302.68 178.099   6
  -1   4   6 30546.6 552.794   6
   1   4  -6 29857.4 583.395   6
   1  -4  -6 29809.1 549.874   6
   0  -4  -6 18057.0 403.976   6
   0   4   6 18942.1 414.484   6
   0   4  -6 18756.3 437.629   6
   0  -4  -6 18314.9 344.205   3
  -1  -4  -6 12388.8 328.184   6
  -1  -4  -6 12171.4 237.571   3
   1   4   6 12552.4 291.402   2
  -1   4  -6 12623.2 348.642   6
  -2   4  -6 47734.2 836.596   6
   2   4   6 47925.2 725.350   2
  -2  -4  -6 46837.6 818.342   6
  -3   4  -6 1629.98 144.234   6
  -3  -4  -6 1451.58 130.304   6
   3   4   6 1382.57 90.2122   2
  -4   4  -6 7563.98 296.016   6
  -4  -4  -6 7642.19 295.537   6
   4   4   6 8073.83 198.141   2
  -5   4  -6 52195.4 971.926   6
  -5  -4  -6 52824.8 981.681   6
  -6   4  -6 4112.66 245.347   6
  -6  -4  -6 4381.70 261.160   6
  -7   4  -6 28296.8 697.556   6
  -7  -4  -6 28901.0 718.386   6
  -8   4  -6 4404.00 281.312   6
  -8  -4  -6 5257.35 309.790   6
  -9   4  -6 688.089 164.889   6
  -9  -4  -6 525.367 148.859   6
 -10   4  -6 13518.4 522.979   6
 -10  -4  -6 13443.8 540.844   6
  15  -5  -6 35.0283 137.067   6
  14  -5  -6 199.879 132.043   6
  14   5  -6 301.094 173.922   6
  13  -5  -6 1531.47 190.056   6
  13   5  -6 831.372 181.312   6
  12  -5  -6 684.555 141.765   6
  12   5  -6 705.774 165.243   6
  11  -5  -6 736.063 132.914   6
  11   5  -6 598.650 156.819   6
  10  -5  -6 5.26930 89.4943   6
  10   5  -6 290.384 129.949   6
   9  -5  -6-30.0878 85.5289   6
   9   5  -6 20.8960 101.870   6
   8   5  -6 542.123 131.005   6
   8  -5  -6 506.531 101.467   6
   7  -5  -6 257.235 86.4254   6
   7   5  -6 310.434 107.093   6
   6  -5  -6 1945.98 129.138   6
   6   5  -6 1988.29 158.688   6
  -6   5   6 1881.42 127.571   6
   5  -5  -6 4645.69 182.628   6
   5   5  -6 4585.48 216.566   6
  -5   5   6 4523.11 176.727   6
   4  -5  -6 2241.33 124.533   5
   4   5  -6 2346.05 156.426   6
   4  -5  -6 2234.58 130.485   6
  -4   5   6 2283.33 128.127   6
  -3   5   6 329.531 65.1012   6
   3  -5  -6 231.649 67.8277   5
   3   5  -6 153.260 79.2885   6
   3  -5  -6 320.063 67.3770   6
  -2   5   6 14673.9 332.799   6
   2   5  -6 14142.5 367.158   6
   2  -5  -6 14150.9 328.482   6
   1  -5  -6 158.059 62.6647   6
  -1   5   6 6.95221 53.1090   6
   1   5  -6 52.6321 67.3102   6
   1  -5  -6 65.2724 59.3486   3
   0  -5  -6 11132.5 298.731   6
   0  -5  -6 11172.0 253.514   3
   0   5   6 11125.7 299.348   6
   0   5   6 11342.9 290.013   2
   0   5  -6 11346.8 326.827   6
  -1   5  -6 1534.99 127.742   6
  -1  -5  -6 1652.43 121.975   6
  -1  -5  -6 1672.64 82.1809   3
   1   5   6 1491.13 102.408   2
  -2   5  -6 13713.0 375.390   6
  -2  -5  -6 13002.4 353.052   6
   2   5   6 12675.8 296.122   2
  -3   5  -6 3276.59 189.257   6
  -3  -5  -6 3319.29 189.331   6
   3   5   6 3117.59 133.883   2
  -4   5  -6 868.198 53.8271   3
  -4   5  -6 614.157 110.684   6
  -4  -5  -6 844.500 117.613   6
   4   5   6 880.548 79.9987   2
  -5   5  -6 201.444 107.184   6
  -5  -5  -6 95.2911 93.4866   6
  -6   5  -6 5586.93 281.652   6
  -6  -5  -6 5893.04 294.119   6
  -7   5  -6 1194.40 158.760   6
  -7  -5  -6 1042.51 164.626   6
  -8   5  -6 1789.97 190.160   6
  -8  -5  -6 1689.19 193.976   6
  -9   5  -6-66.2383 124.185   6
  -9  -5  -6-72.2916 134.029   6
 -10   5  -6 174.197 132.393   6
 -10  -5  -6 197.060 138.973   6
  15  -6  -6 2704.20 263.934   6
  14  -6  -6 799.658 186.939   3
  14  -6  -6 1032.95 184.418   6
  14   6  -6 875.506 193.160   6
  13  -6  -6 218.596 128.399   6
  13   6  -6-220.120 166.576   6
  12  -6  -6 1175.36 165.099   6
  12   6  -6 1293.72 191.568   6
  11  -6  -6 4223.87 248.753   6
  11   6  -6 4602.19 296.345   6
  10  -6  -6 5655.74 266.778   6
  10   6  -6 5499.41 296.723   6
   9  -6  -6 6357.70 268.009   6
   9   6  -6 6154.55 300.062   6
   8  -6  -6 3080.09 177.797   6
   8   6  -6 2887.21 204.332   6
   7  -6  -6 30552.3 590.683   6
   7   6  -6 30037.4 653.322   6
   6  -6  -6 6991.38 233.025   6
   6   6  -6 7287.46 281.851   6
  -6   6   6 6804.17 224.406   6
  -5   6   6 293.477 66.7913   6
   5  -6  -6 335.367 70.2709   6
   5   6  -6 392.350 99.3442   6
   4  -6  -6 40215.0 673.497   5
   4  -6  -6 41133.0 672.494   6
   4   6  -6 40736.9 743.597   6
  -4   6   6 41591.6 672.989   6
  -3   6   6 12767.5 301.399   6
   3  -6  -6 12537.9 313.454   5
   3   6  -6 12952.9 354.608   6
   3  -6  -6 13169.2 308.720   6
  -2   6   6 4317.19 165.133   6
   2   6  -6 3950.16 193.385   6
   2  -6  -6 4050.10 163.467   6
   1  -6  -6 12943.1 300.894   3
  -1   6   6 12861.0 313.616   6
   1   6  -6 12476.8 344.821   6
   1  -6  -6 12780.6 311.764   6
   0  -6  -6 287.837 72.7311   6
   0  -6  -6 325.087 57.6788   3
   0   6   6 384.109 74.8171   6
   0   6   6 320.414 66.5990   2
   0   6  -6 392.725 85.4594   6
  -1  -6  -6 3144.95 162.476   6
   1   6   6 3218.26 150.042   2
  -1   6  -6 3217.26 179.465   6
  -2   6  -6 18177.7 450.169   6
  -2  -6  -6 17330.9 420.593   6
   2   6   6 17483.5 371.956   2
  -3   6  -6 3416.02 196.497   6
  -3  -6  -6 3598.66 193.154   6
   3   6   6 3508.79 151.755   2
  -4   6  -6 31403.1 480.399   3
  -4   6  -6 30066.5 660.059   6
  -4  -6  -6 31491.3 667.216   6
   4   6   6 30297.8 531.803   2
  -5   6  -6 9972.48 358.434   6
  -5  -6  -6 10443.7 372.172   6
  -6   6  -6 3185.74 218.492   6
  -6  -6  -6 3280.76 235.711   6
  -7   6  -6 10841.3 409.536   6
  -7  -6  -6 11368.3 436.894   6
  -8   6  -6 3834.86 258.144   6
  -8  -6  -6 3529.07 262.455   6
  -9   6  -6 160.084 125.113   6
  -9  -6  -6 295.293 147.065   6
 -10   6  -6 6993.32 371.907   6
 -10  -6  -6 6999.38 398.383   6
  14  -7  -6 7178.44 407.518   3
  14  -7  -6 6447.43 355.817   6
  13  -7  -6 7976.36 372.685   6
  13   7  -6 8087.32 420.449   6
  13  -7  -6 8497.31 428.542   3
  12  -7  -6 1783.15 190.532   6
  12   7  -6 2003.55 224.882   6
  11  -7  -6 7617.27 323.870   6
  11   7  -6 7755.15 378.066   6
  10  -7  -6 4523.54 237.510   6
  10   7  -6 5244.86 298.721   6
   9  -7  -6 19.4599 81.3426   6
   9   7  -6-5.34348 115.862   6
   8  -7  -6 32672.8 639.184   6
   8   7  -6 32162.1 713.721   6
   7  -7  -6 20195.5 444.156   6
   7   7  -6 19344.6 507.835   6
   6  -7  -6 25039.0 493.447   6
   6   7  -6 25883.1 578.839   6
  -6   7   6 25950.0 493.110   6
   5  -7  -6 34164.1 593.034   6
   5   7  -6 33926.2 680.271   6
  -5   7   6 34336.8 590.114   6
  -4   7   6 2201.79 118.247   6
   4  -7  -6 2049.17 132.384   5
   4  -7  -6 2097.73 117.088   6
   4   7  -6 2014.38 154.393   6
  -3   7   6 28928.5 509.920   6
   3  -7  -6 28652.2 540.191   5
   3   7  -6 29571.9 586.230   6
   3  -7  -6 28619.7 511.477   6
   3  -7  -6 27521.1 551.294   3
   2  -7  -6 53459.8 854.088   3
  -2   7   6 54818.7 828.821   6
   2  -7  -6 53162.4 864.478   5
   2   7  -6 54116.6 904.058   6
   2  -7  -6 54569.1 827.902   6
   1  -7  -6 219.530 61.8880   6
   1  -7  -6 265.104 66.0265   3
  -1   7   6 368.393 71.8995   6
   1   7  -6 308.583 79.9765   6
   0  -7  -6 25887.4 501.732   6
   0  -7  -6 26677.6 468.226   3
   0   7   6 26958.1 516.779   6
   0   7   6 26490.7 517.161   2
   0   7  -6 26103.0 551.708   6
  -1  -7  -6 26623.4 528.797   6
   1   7   6 27481.2 520.861   2
  -1   7  -6 27689.9 577.617   6
  -2  -7  -6 4404.31 198.978   6
   2  -7   6 4565.80 128.742   2
   2   7   6 4645.74 181.902   2
  -2   7  -6 4758.71 224.504   6
  -3   7  -6 47897.8 862.368   6
  -3  -7  -6 47435.6 847.136   6
   3   7   6 46576.7 759.171   2
  -4   7  -6 20154.6 511.919   6
  -4   7  -6 21207.0 375.503   3
  -4  -7  -6 20505.3 518.136   6
   4   7   6 19815.4 412.350   2
  -5   7  -6 131.753 90.6482   6
  -5  -7  -6-0.13321 103.055   6
  -6   7  -6 57946.5 1066.96   6
  -6  -7  -6 56673.1 1089.54   6
  -7   7  -6 4329.33 264.179   6
  -7  -7  -6 4549.25 279.453   6
  -8   7  -6 10045.9 413.397   6
  -8  -7  -6 10343.9 436.681   6
  -9   7  -6 10935.5 451.648   6
  -9  -7  -6 12001.8 494.066   6
 -10   7  -6-24.4250 128.019   6
 -10  -7  -6-112.633 147.611   6
  14  -8  -6 1151.14 186.437   6
  13  -8  -6 252.269 151.670   3
  13  -8  -6 67.0684 121.731   6
  13   8  -6 223.265 164.081   6
  12  -8  -6 7432.81 336.490   6
  12   8  -6 7825.87 397.029   6
  12  -8  -6 7656.54 395.703   3
  11  -8  -6 1496.29 158.288   6
  11   8  -6 1378.88 192.251   6
  11  -8  -6 1161.51 181.716   3
  10  -8  -6 2262.26 170.896   6
  10   8  -6 2419.34 216.216   6
   9  -8  -6 2336.38 159.991   6
   9   8  -6 2130.02 189.789   6
   8  -8  -6 11486.8 337.086   6
   8   8  -6 12476.2 414.692   6
   7  -8  -6 15674.1 373.543   6
   7   8  -6 15326.8 451.247   6
  -7   8   6 14942.8 355.875   6
   6  -8  -6 11156.0 292.186   6
   6   8  -6 12024.1 372.603   6
  -6   8   6 11236.7 288.444   6
   5  -8  -6 12117.2 296.779   6
   5   8  -6 12606.2 376.404   6
  -5   8   6 12643.1 299.933   6
  -4   8   6 14983.0 322.337   6
   4  -8  -6 14024.1 349.388   5
   4  -8  -6 14512.8 319.962   6
   4   8  -6 14278.3 390.755   6
   4  -8  -6 14225.4 381.272   3
   3  -8  -6 5390.19 217.302   3
  -3   8   6 5565.02 183.900   6
   3  -8  -6 5889.82 219.766   5
   3   8  -6 5627.34 232.363   6
   3  -8  -6 5769.88 186.353   6
  -2   8   6 134.580 55.7805   6
   2  -8  -6 133.801 72.5212   3
   2  -8  -6 160.601 78.4771   5
   2   8  -6 189.294 81.2231   6
   2  -8  -6 203.208 60.3632   6
   1  -8  -6 12860.4 313.639   3
  -1   8   6 12686.1 309.673   6
   1   8  -6 12913.1 359.162   6
   1  -8  -6 12952.3 308.193   6
   0  -8  -6 458.196 75.7682   6
   0  -8  -6 487.020 68.9378   3
   0   8   6 507.403 78.5248   6
   0   8  -6 328.434 87.7005   6
  -1  -8  -6 13426.6 340.406   6
   1   8   6 13725.0 341.539   2
  -1   8  -6 13546.1 379.648   6
  -2  -8  -6 18807.5 438.373   6
   2  -8   6 19273.4 330.785   2
   2   8   6 18292.7 409.446   2
  -2   8  -6 19246.5 471.094   6
  -3   8  -6 4342.77 220.372   6
   3  -8   6 3797.35 88.5225   2
  -3  -8  -6 4507.00 217.105   6
   3   8   6 4624.56 186.427   2
  -4   8  -6 4960.77 242.088   6
  -4   8  -6 4839.84 165.319   3
  -4  -8  -6 4946.40 242.921   6
   4   8   6 4971.17 192.068   2
  -5   8  -6 16308.9 470.356   6
  -5  -8  -6 16219.5 475.018   6
  -6   8  -6 73.3407 108.723   6
  -6  -8  -6 275.519 134.404   6
  -7   8  -6 7042.49 330.288   6
  -7  -8  -6 6824.46 341.429   6
  -8   8  -6 1636.43 190.549   6
  -8  -8  -6 1841.47 203.016   6
  -9   8  -6 992.300 177.281   6
  -9  -8  -6 885.456 187.567   6
 -10   8  -6 2635.68 245.802   6
 -10  -8  -6 2471.81 262.516   6
  13  -9  -6 682.445 183.519   3
  13  -9  -6 783.837 159.802   6
  13   9  -6 723.670 176.135   6
  12  -9  -6 367.459 154.124   3
  12  -9  -6 482.004 124.636   6
  12   9  -6 586.884 171.710   6
  11  -9  -6 531.901 153.598   3
  11  -9  -6 609.161 123.271   6
  11   9  -6 340.051 139.996   6
  10  -9  -6 233.560 127.217   3
  10  -9  -6 114.700 86.8442   6
  10   9  -6 432.344 142.705   6
   9  -9  -6 169.162 128.539   3
   9  -9  -6 125.651 81.4391   6
   9   9  -6 234.445 124.633   6
   8  -9  -6 75.8067 104.456   3
   8  -9  -6 64.2823 64.7782   6
   8   9  -6-43.9623 101.833   6
   7  -9  -6 12858.3 326.231   6
   7   9  -6 12743.8 405.473   6
  -7   9   6 12212.6 310.307   6
   7  -9  -6 11873.4 399.904   3
   6  -9  -6 1989.77 168.707   3
   6  -9  -6 1958.08 120.022   6
   6   9  -6 2238.70 176.592   6
  -6   9   6 2213.92 124.827   6
  -5   9   6 355.253 64.3599   6
   5  -9  -6 259.634 93.0181   3
   5   9  -6 240.005 27.1291   5
   5  -9  -6 334.232 61.0483   6
   5   9  -6 370.311 102.550   6
   4  -9  -6 2029.00 154.863   3
  -4   9   6 2063.29 111.497   6
   4  -9  -6 2062.90 142.305   5
   4  -9  -6 2162.33 112.414   6
   4   9  -6 2362.29 167.728   6
  -3   9   6 765.079 73.7838   6
   3  -9  -6 747.425 104.883   3
   3  -9  -6 893.057 108.477   5
   3   9  -6 837.843 112.983   6
   3  -9  -6 859.135 78.7775   6
   2  -9  -6 12168.6 325.871   3
  -2   9   6 12075.8 285.877   6
   2  -9  -6 11973.8 336.038   5
   2   9  -6 12022.6 350.430   6
   2  -9  -6 12175.8 284.862   6
   1  -9  -6 690.285 78.7380   6
   1  -9  -6 658.584 88.3898   3
  -1   9   6 705.942 78.1083   6
   1   9  -6 717.017 102.604   6
   0  -9  -6 28.4046 48.2865   6
   0   9   6 134.199 58.6041   6
   0   9  -6-3.27571 73.4615   6
  -1  -9  -6 8491.82 262.520   6
   1  -9   6 9000.84 229.002   2
  -1   9  -6 8492.57 296.976   6
  -2   9  -6 1003.65 122.662   6
   2   9   6 1097.07 109.641   2
  -2  -9  -6 1121.60 113.011   6
   2  -9   6 1028.90 73.6734   2
  -3   9  -6 4953.46 237.206   6
   3  -9   6 4696.31 113.031   2
  -3  -9  -6 5153.90 231.015   6
   3   9   6 5029.99 200.072   2
  -4   9  -6 8318.31 318.591   6
  -4   9  -6 9002.97 248.058   3
  -4  -9  -6 8844.50 325.400   6
   4   9   6 8903.26 271.247   2
  -5   9  -6 211.243 101.575   6
  -5  -9  -6 190.247 108.348   6
  -6   9  -6 5528.59 281.804   6
  -6  -9  -6 5539.52 297.240   6
  -7   9  -6 267.329 125.457   6
  -7  -9  -6 216.684 124.778   6
  -8   9  -6 104.710 111.230   6
  -8  -9  -6 86.4265 140.055   6
  -9   9  -6 1394.28 186.032   6
  -9  -9  -6 1493.57 217.659   6
 -10   9  -6 859.230 171.181   6
 -10  -9  -6 724.021 170.642   6
  13 -10  -6 644.250 179.374   3
  13  10  -6 415.384 155.554   6
  12 -10  -6 9310.61 437.566   3
  12 -10  -6 9453.64 367.351   6
  12  10  -6 9221.22 446.268   6
  11 -10  -6 3618.46 272.439   3
  11 -10  -6 3458.66 214.263   6
  11  10  -6 3279.76 269.994   6
  10 -10  -6 729.592 158.534   3
  10 -10  -6 767.840 113.743   6
  10  10  -6 847.055 159.986   6
   9 -10  -6 15469.3 503.811   3
   9 -10  -6 15604.2 408.953   6
   9  10  -6 16546.7 512.917   6
   8 -10  -6 268.558 121.790   3
   8 -10  -6 149.060 71.5815   6
   8  10  -6 259.680 111.125   6
   7 -10  -6 27074.1 641.578   3
   7 -10  -6 27628.8 524.703   6
   7  10  -6 27455.7 637.804   6
  -7  10   6 27373.9 511.706   6
   6 -10  -6 23366.8 566.609   3
   6 -10  -6 23525.1 450.268   6
   6  10  -6 23446.4 566.048   6
  -6  10   6 23870.4 448.361   6
  -5  10   6 3822.52 148.286   6
   5 -10  -6 3687.45 208.004   3
   5  10  -6 3256.32 95.8355   5
   5 -10  -6 3953.01 149.819   6
   5  10  -6 3671.94 207.855   6
   4 -10  -6 36145.1 704.265   3
  -4  10   6 36393.0 585.408   6
   4 -10  -6 37084.7 677.095   5
   4 -10  -6 36200.0 584.889   6
   4  10  -6 35569.4 706.937   6
   3 -10  -6 44622.0 789.305   3
  -3  10   6 44166.9 684.859   6
   3 -10  -6 43968.5 779.241   5
   3  10  -6 43535.0 805.876   6
   3 -10  -6 45151.8 687.088   6
   2 -10  -6 5870.74 225.405   3
  -2  10   6 5855.58 187.543   6
   2 -10  -6 6032.08 237.319   5
   2  10  -6 6163.24 248.286   6
   2 -10  -6 6205.46 188.363   6
   1 -10  -6 30782.9 572.938   3
  -1  10   6 30088.9 538.454   6
   1 -10  -6 30095.7 614.065   5
   1  10  -6 30915.5 622.709   6
   1 -10  -6 30903.2 536.856   6
   0 -10  -6 18951.0 397.452   6
   0  10   6 18997.5 407.933   6
   0  10  -6 18853.0 462.424   6
  -1 -10  -6 43992.3 737.007   6
  -1 -10  -6 44222.4 757.410   6
   1 -10   6 42750.4 682.024   2
  -1  10  -6 43949.4 803.714   6
  -2 -10  -6 46541.6 805.575   6
   2 -10   6 47774.1 696.747   2
  -2  10  -6 46433.0 855.426   6
  -3  10  -6 286.945 89.5410   6
  -3 -10  -6 532.753 101.660   6
   3 -10   6 347.496 39.9052   2
  -4  10  -6 28387.8 633.936   6
  -4  10  -6 27805.6 525.047   3
  -4 -10  -6 28047.8 629.726   6
  -5  10  -6 19110.5 520.061   6
  -5 -10  -6 19367.7 532.728   6
  -6  10  -6 366.186 114.853   6
  -6 -10  -6 393.309 123.959   6
  -7  10  -6 24059.0 635.491   6
  -7 -10  -6 22803.9 655.835   6
  -8  10  -6 2124.04 209.378   6
  -8 -10  -6 1896.22 211.903   6
  -9  10  -6 3742.91 271.381   6
  -9 -10  -6 3357.09 277.151   6
 -10  10  -6 6023.10 348.160   6
 -10 -10  -6 6268.32 379.325   6
  13 -11  -6 6401.24 386.353   3
  13  11  -6 6797.82 403.650   6
  12 -11  -6 786.317 169.547   3
  12  11  -6 463.909 163.458   6
  11 -11  -6 4635.53 309.864   3
  11 -11  -6 4827.44 245.177   6
  11  11  -6 4800.58 316.822   6
  10 -11  -6 9679.32 411.010   3
  10 -11  -6 9361.30 323.131   6
  10  11  -6 8858.88 396.895   6
   9 -11  -6 230.828 125.362   3
   9 -11  -6 379.888 83.0172   6
   9  11  -6 425.420 131.207   6
   8 -11  -6 15498.5 488.394   3
   8 -11  -6 16063.9 386.707   6
   8  11  -6 16015.2 491.518   6
   7 -11  -6 7945.31 332.121   3
   7 -11  -6 8424.11 249.768   6
   7  11  -6 8737.64 343.003   6
  -7  11   6 8273.12 239.530   6
  -6  11   6 827.084 84.6392   6
   6 -11  -6 1059.50 143.435   3
   6 -11  -6 898.940 82.1090   6
   6  11  -6 838.159 126.678   6
  -5  11   6 49144.9 723.831   6
   5 -11  -6 48399.3 885.807   3
   5  11  -6 46067.4 653.774   5
   5 -11  -6 47849.8 722.035   6
   5  11  -6 48246.8 883.322   6
  -4  11   6 1633.79 95.0131   6
   4 -11  -6 1673.22 148.216   3
   4 -11  -6 1467.80 133.092   5
   4 -11  -6 1603.53 93.5614   6
   4  11  -6 1582.28 145.813   6
   3 -11  -6 18044.3 440.867   3
  -3  11   6 17408.5 343.289   6
   3 -11  -6 17146.2 432.712   5
   3  11  -6 18311.7 456.240   6
   3 -11  -6 17731.0 343.932   6
   2 -11  -6 27585.3 563.604   3
  -2  11   6 26870.5 482.174   6
   2 -11  -6 28887.1 591.490   5
   2  11  -6 27761.1 588.923   6
   2 -11  -6 28582.5 485.384   6
   1 -11  -6 447.591 65.4146   6
   1 -11  -6 668.710 93.9099   3
  -1  11   6 563.798 73.0908   6
   1 -11  -6 602.455 106.470   5
   1  11  -6 623.887 103.431   6
   0 -11  -6 40177.8 668.299   6
   0 -11   6 39730.2 680.019   2
   0  11  -6 41342.1 761.993   6
  -1 -11  -6 32637.3 594.945   6
  -1 -11  -6 32537.3 613.773   6
   1 -11   6 32433.7 560.703   2
  -1  11  -6 33151.5 668.625   6
  -2 -11  -6 5311.49 217.970   6
   2 -11   6 5595.01 171.394   2
  -2  11  -6 5409.87 244.862   6
   3 -11   6 26933.8 421.796   2
  -3 -11  -6 26992.1 578.065   6
  -3  11  -6 26779.7 603.746   6
  -4  11  -6 17157.6 476.695   6
  -4  11  -6 17487.3 401.535   3
  -4 -11  -6 17165.3 467.137   6
  -5  11  -6 13174.9 419.328   6
  -5 -11  -6 13258.6 431.147   6
  -6  11  -6 20698.7 563.138   6
  -6 -11  -6 20772.6 587.381   6
  -7  11  -6 6654.61 319.504   6
  -7 -11  -6 6711.56 346.251   6
  -8  11  -6 7193.41 349.331   6
  -8 -11  -6 5934.13 340.850   6
  -9  11  -6 3705.45 274.319   6
  -9 -11  -6 3028.38 270.516   6
 -10  11  -6 18.7305 125.737   6
 -10 -11  -6-79.4499 145.194   6
  13 -12  -6 487.943 178.508   3
  12 -12  -6-110.815 144.253   3
  12  12  -6 224.534 147.695   6
  11 -12  -6 140.529 138.883   3
  11  12  -6 87.1325 131.922   6
  10 -12  -6 736.992 161.943   3
  10 -12  -6 586.788 104.197   6
  10  12  -6 824.491 156.723   6
   9 -12  -6 1443.88 184.606   3
   9 -12  -6 1357.47 119.780   6
   9  12  -6 1199.81 164.698   6
   8 -12  -6 1677.20 182.822   3
   8 -12  -6 1693.35 120.418   6
   8  12  -6 1292.78 168.437   6
  -7  12   6 789.490 83.8722   6
   7 -12  -6 701.515 134.094   3
   7 -12  -6 680.366 80.8063   6
   7  12  -6 759.345 140.837   6
  -6  12   6 744.425 73.3279   6
   6 -12  -6 828.819 139.592   3
   6 -12  -6 781.961 72.3682   6
   6  12  -6 1132.93 142.889   6
  -5  12   6 4301.05 147.726   6
   5 -12  -6 4079.47 224.459   3
   5  12  -6 4232.37 130.900   5
   5 -12  -6 4468.36 149.858   6
   5  12  -6 4365.07 228.344   6
   4 -12  -6 3789.63 208.208   3
  -4  12   6 4515.42 145.288   6
   4  12  -6 4211.43 149.750   5
   4 -12  -6 4163.26 139.313   6
   4  12  -6 4457.68 224.387   6
   3 -12  -6 151.657 79.7859   3
  -3  12   6 148.706 45.0528   6
   3 -12  -6 228.574 93.5765   5
   3  12  -6 141.014 88.9885   6
   3 -12  -6 222.582 48.3636   6
   2 -12  -6 274.873 86.3216   3
  -2  12   6 165.254 54.9658   6
   2 -12  -6 285.405 101.130   5
   2  12  -6 344.356 100.133   6
   2 -12  -6 146.098 47.4378   6
   1 -12  -6 85.8800 45.6587   6
  -1  12   6 11.3162 49.7167   6
   1 -12  -6-92.2484 94.9191   5
   1  12  -6 76.3009 77.5423   6
   0 -12  -6 1821.88 115.656   6
   0 -12  -6 1732.89 117.087   6
   0 -12   6 1777.44 127.082   2
   0 -12  -6 1763.58 165.262   5
   0  12  -6 1553.37 143.336   6
  -1 -12  -6 12305.4 315.941   6
  -1 -12  -6 11822.0 324.250   6
   1 -12   6 12207.3 301.255   2
  -1  12  -6 12653.1 376.753   6
  -2 -12  -6 14069.5 367.432   6
   2 -12   6 14317.9 311.102   2
  -2  12  -6 14388.3 412.875   6
  -3  12  -6 160.222 81.8900   6
  -3 -12  -6 149.206 89.0168   6
   3 -12   6 144.532 45.9943   2
  -4 -12  -6 3542.41 210.829   6
  -4  12  -6 3517.92 216.718   6
  -5  12  -6 687.517 128.696   6
  -5 -12  -6 679.010 125.250   6
  -6  12  -6-25.4861 97.9952   6
  -6 -12  -6 199.794 118.223   6
  -7  12  -6 325.445 124.704   6
  -7 -12  -6 217.806 121.397   6
  -8  12  -6 1193.16 177.933   6
  -8 -12  -6 845.988 170.794   6
  -9  12  -6 138.092 119.472   6
  -9 -12  -6 19.2107 138.146   6
 -10  12  -6 245.304 137.580   6
 -10 -12  -6 98.9396 155.132   6
  12 -13  -6-29.7288 135.953   3
  12  13  -6 74.2285 136.277   6
  11 -13  -6 3727.76 288.098   3
  11  13  -6 3862.70 295.113   6
  10 -13  -6 8172.38 391.851   3
  10  13  -6 7653.79 383.078   6
   9 -13  -6 733.778 161.139   3
   9 -13  -6 516.047 91.0238   6
   9  13  -6 656.146 140.783   6
   8 -13  -6 3362.26 236.791   3
   8 -13  -6 3269.46 153.769   6
   8  13  -6 3395.12 239.968   6
   7 -13  -6 6250.48 305.172   3
   7 -13  -6 5902.36 193.147   6
   7  13  -6 5705.05 286.271   6
  -6  13   6 1195.69 83.6897   6
   6 -13  -6 1442.39 158.557   3
   6 -13  -6 1281.45 87.7423   6
   6  13  -6 1170.82 150.569   6
   5 -13  -6 19697.2 514.607   3
  -5  13   6 19680.7 352.764   6
   5  13  -6 19906.1 355.296   5
   5 -13  -6 19843.1 356.582   6
   5  13  -6 19699.7 510.654   6
  -4  13   6 1379.36 81.4122   6
   4 -13  -6 1328.18 139.729   3
   4  13  -6 1428.31 99.7259   5
   4 -13  -6 1389.08 79.8880   6
   4  13  -6 1410.12 146.719   6
  -3  13   6 1683.10 90.1113   6
   3 -13  -6 1617.85 145.523   3
   3 -13  -6 1689.83 153.632   5
   3 -13  -6 1696.95 85.8816   6
   3  13  -6 1759.06 154.014   6
   2 -13  -6 21109.6 491.988   3
  -2  13   6 20506.9 382.501   6
   2 -13  -6 20714.2 507.727   5
   2  13  -6 21181.7 507.616   6
   2 -13  -6 21307.9 383.598   6
   1 -13  -6 18.2518 47.4807   6
  -1 -13   6-15.9415 72.2630   2
   1 -13  -6 0.56404 92.8314   5
   1  13  -6 77.7832 89.9119   6
   1 -13  -6 119.923 47.8187   6
   0 -13  -6 20673.5 410.382   6
   0 -13  -6 19942.8 417.906   6
   0 -13   6 20072.0 440.578   2
   0 -13  -6 20206.4 511.017   5
   0  13  -6 20010.7 490.918   6
  -1 -13  -6 23112.2 473.441   6
  -1 -13  -6 23705.3 494.694   6
   1 -13   6 24545.4 475.456   2
  -1  13  -6 24362.6 555.606   6
  -2 -13  -6 3236.03 173.776   6
   2 -13   6 2867.89 135.443   2
  -2  13  -6 3065.23 195.430   6
   3 -13   6 11875.6 257.948   2
  -3 -13  -6 11288.3 348.963   6
  -3  13  -6 11549.4 377.624   6
  -4 -13  -6 17699.8 476.107   6
  -4  13  -6 17405.9 487.415   6
  -5  13  -6-18.8495 106.905   6
  -5 -13  -6-103.973 104.832   6
  -6  13  -6 15192.3 475.652   6
  -6 -13  -6 15106.3 496.499   6
  -7  13  -6 3287.13 234.194   6
  -7 -13  -6 3018.94 246.936   6
  -8  13  -6 2890.50 233.057   6
  -8 -13  -6 2445.45 238.512   6
  -9  13  -6 3039.90 251.065   6
  -9 -13  -6 2796.06 265.929   6
 -10  13  -6 150.246 120.606   6
  12 -14  -6 12180.4 515.826   3
  12  14  -6 12221.2 525.747   6
  11 -14  -6 1083.74 192.515   3
  11  14  -6 1254.93 199.536   6
  10 -14  -6 6657.49 359.920   3
  10  14  -6 6722.19 357.801   6
   9 -14  -6 18230.5 575.262   3
   9  14  -6 18264.6 562.939   6
   8 -14  -6 1201.82 170.119   3
   8 -14  -6 1325.52 101.175   6
   8  14  -6 1534.68 176.511   6
   7 -14  -6 13057.9 443.425   3
   7 -14  -6 12585.3 284.674   6
   7  14  -6 12900.5 431.613   6
   6 -14  -6 26587.1 645.073   3
   6 -14  -6 26254.9 441.427   6
   6  14  -6 26163.0 627.120   6
   5 -14  -6 2605.60 196.446   3
  -5  14   6 2396.66 96.1969   6
   5  14  -6 2498.67 117.432   5
   5 -14  -6 2663.88 101.035   6
   5  14  -6 2550.27 188.883   6
   4 -14  -6 47238.8 872.117   3
  -4  14   6 43453.6 634.459   6
   4  14  -6 45616.8 712.255   5
   4 -14  -6 44100.3 634.439   6
   4  14  -6 46620.1 865.854   6
  -3  14   6 1115.23 71.3921   6
   3 -14  -6 1250.83 139.113   3
   3 -14  -6 1015.65 133.579   5
   3 -14  -6 1229.39 70.7032   6
   3  14  -6 1117.00 130.410   6
  -2 -14   6 2837.11 175.262   2
   2 -14  -6 2608.18 114.316   6
   2 -14  -6 2889.16 191.588   5
   2  14  -6 2654.32 178.747   6
   2 -14  -6 2625.33 110.623   6
   1 -14  -6 40603.1 651.495   6
  -1 -14   6 40397.5 740.745   2
   1 -14  -6 39828.4 796.187   5
   1  14  -6 40104.4 777.025   6
   1 -14  -6 41939.5 644.349   6
   0 -14  -6 14577.1 325.679   6
   0 -14  -6 13935.8 331.740   6
   0 -14   6 14388.7 366.397   2
   0 -14  -6 13828.0 419.463   5
   0  14  -6 14330.0 409.324   6
  -1 -14  -6 29498.8 548.277   6
  -1 -14  -6 29462.2 570.893   6
  -1 -14  -6 29238.8 668.899   5
   1 -14   6 29653.3 556.865   2
  -1  14  -6 29090.3 629.858   6
  -2 -14  -6 34012.4 641.387   6
   2 -14   6 34652.7 595.346   2
  -2  14  -6 34418.3 711.424   6
  -3 -14  -6 4119.18 206.171   6
   3 -14   6 4197.75 152.867   2
  -3  14  -6 4041.27 226.864   6
  -4 -14  -6 17225.1 471.983   6
  -4  14  -6 17575.8 491.647   6
  -5 -14  -6 18780.5 528.471   6
  -5  14  -6 18809.6 523.821   6
  -6  14  -6 432.131 116.117   6
  -6 -14  -6 722.832 143.029   6
  -7  14  -6 13777.1 465.241   6
  -7 -14  -6 12231.6 475.216   6
  -8  14  -6 9673.81 408.468   6
  -8 -14  -6 8833.79 421.877   6
  -9  14  -6 4117.24 289.158   6
  -9 -14  -6 4288.41 314.228   6
 -10  14  -6 6563.45 362.033   6
  12 -15  -6 519.450 166.998   3
  12  15  -6 133.897 163.314   6
  11 -15  -6 2810.20 254.297   3
  11  15  -6 2805.70 269.338   6
  10  15  -6 2782.31 247.470   6
  10 -15  -6 2867.01 258.309   3
   9 -15  -6 4358.08 285.193   3
   9  15  -6 4957.94 298.877   6
   8 -15  -6 5844.73 312.433   3
   8  15  -6 5407.52 296.764   6
   7 -15  -6 3290.66 235.409   3
   7  15  -6 3534.20 237.091   6
   6 -15  -6 6.63288 111.775   3
   6 -15  -6 28.5269 31.2310   6
   6  15  -6-70.4182 96.7081   6
   5 -15  -6 8566.78 343.043   3
   5  15  -6 9271.06 238.216   5
   5 -15  -6 8278.54 177.589   6
   5  15  -6 8336.10 330.372   6
   4 -15  -6 3461.21 216.561   3
  -4  15   6 3297.74 101.328   6
   4  15  -6 3825.61 162.998   5
   4 -15  -6 3547.73 102.782   6
   4  15  -6 3970.52 226.473   6
   3 -15  -6 6352.26 275.523   3
  -3 -15   6 6667.74 276.787   2
   3 -15  -6 6306.02 280.086   5
   3 -15  -6 6183.04 150.074   6
   3  15  -6 6541.85 275.837   6
  -2 -15   6 14642.0 408.109   2
   2 -15  -6 13937.1 280.342   6
   2 -15  -6 14416.2 426.837   5
   2  15  -6 14439.9 415.256   6
   2 -15  -6 14015.8 274.495   6
   1 -15  -6 976.718 80.1220   6
   1 -15  -6 991.740 142.968   5
  -1 -15   6 1044.26 120.698   2
   1  15  -6 1087.74 126.773   6
   1 -15  -6 1077.05 80.0457   6
   0 -15  -6 9023.58 243.478   6
   0 -15  -6 8667.91 250.161   6
   0 -15  -6 8530.30 333.350   5
   0 -15   6 9138.50 291.941   2
   0  15  -6 9824.27 330.951   6
  -1 -15  -6 6147.19 210.894   6
  -1 -15  -6 6030.00 223.313   6
  -1 -15  -6 6207.61 290.557   5
   1 -15   6 6354.89 230.130   2
  -1  15  -6 6250.05 266.515   6
   2 -15   6 782.150 87.7233   2
  -2 -15  -6 849.782 99.0087   6
  -2 -15  -6 972.563 150.793   5
  -2  15  -6 1034.15 129.651   6
  -3 -15  -6 3561.33 194.606   6
   3 -15   6 4183.15 158.674   2
  -3  15  -6 3861.97 221.653   6
  -4  15  -6 17.5614 91.2499   6
  -4 -15  -6 186.995 97.1124   6
  -5 -15  -6 2436.38 197.310   6
  -5  15  -6 2698.34 199.947   6
  -6  15  -6 8374.19 353.635   6
  -6 -15  -6 8272.83 363.842   6
  -7  15  -6 1261.57 164.999   6
  -7 -15  -6 1369.67 187.622   6
  -8  15  -6 1115.32 165.249   6
  -8 -15  -6 1044.32 188.272   6
  -9  15  -6 7700.32 376.237   6
  -9 -15  -6 6962.73 391.220   6
 -10  15  -6 830.936 174.476   6
  11 -16  -6 972.042 200.539   3
  11  16  -6 930.926 189.220   6
  10 -16  -6 214.474 149.759   3
  10  16  -6 205.871 143.921   6
   9 -16  -6 5219.71 322.377   3
   9  16  -6 4629.48 294.705   6
   8 -16  -6 232.955 139.762   3
   8  16  -6 350.143 132.377   6
   7 -16  -6 6585.96 330.963   3
   7  16  -6 6332.81 311.192   6
   6 -16  -6 6305.12 312.006   3
   6  16  -6 6154.85 298.050   6
   5 -16  -6 116.959 116.540   3
   5  16  -6 263.575 121.529   6
   4 -16  -6 9010.84 343.439   3
  -4 -16   6 9465.27 345.757   2
   4  16  -6 8779.65 253.343   5
   4  16  -6 8548.47 323.311   6
  -3 -16   6 4319.61 231.163   2
   3 -16  -6 3812.03 104.049   6
   3 -16  -6 3743.40 100.635   6
   3  16  -6 4105.14 224.454   6
   2 -16  -6 256.568 43.2300   6
   2 -16  -6 291.254 126.657   5
  -2 -16   6 186.615 90.0234   2
   2  16  -6 411.118 106.401   6
   2 -16  -6 329.615 43.7913   6
   1 -16  -6 5572.37 172.914   6
   1 -16  -6 5089.99 265.784   5
  -1 -16   6 5514.41 240.668   2
   1  16  -6 5612.90 258.344   6
   1 -16  -6 5522.56 165.517   6
   0 -16  -6 2531.41 132.951   6
   0 -16  -6 2507.15 203.954   5
   0 -16   6 2669.48 164.687   2
   0  16   6 2561.21 146.094   4
   0  16  -6 2683.93 182.964   6
   0 -16  -6 2849.12 129.387   6
  -1 -16  -6 1141.40 98.2815   6
  -1 -16  -6 1167.93 111.435   6
  -1 -16  -6 1262.69 161.740   5
  -1  16  -6 1292.21 139.968   6
   1 -16   6 1138.49 114.976   2
  -2 -16  -6 1965.00 134.709   6
  -2 -16  -6 2780.25 214.124   5
  -2  16  -6 2286.64 174.923   6
   2 -16   6 2138.02 134.055   2
  -3 -16  -6 2430.09 163.946   6
   3 -16   6 2489.10 132.132   2
  -3 -16  -6 2367.71 211.271   5
  -3  16  -6 2635.04 191.978   6
  -4 -16  -6 3591.26 211.522   6
  -4  16  -6 3538.06 222.640   6
  -5  16  -6 1292.56 153.559   6
  -5 -16  -6 1572.84 165.346   6
  -6  16  -6 304.062 117.590   6
  -6 -16  -6 425.906 135.389   6
  -7  16  -6 1389.47 177.639   6
  -7 -16  -6 1712.50 201.914   6
  -8  16  -6 1306.92 180.561   6
  -8 -16  -6 1007.63 177.638   6
  -9  16  -6 2370.21 230.861   6
  -9 -16  -6 2034.02 241.898   6
  11 -17  -6 2478.05 256.830   3
  11  17  -6 3153.19 284.123   6
  10 -17  -6 9563.10 446.133   3
  10  17  -6 9397.47 439.467   6
   9 -17  -6 198.322 151.424   3
   9  17  -6 239.672 136.779   6
   8 -17  -6 16589.3 549.132   3
   8  17  -6 15903.8 525.072   6
   7 -17  -6 11739.8 443.661   3
   7  17  -6 11403.1 424.470   6
   6 -17  -6 1969.92 197.575   3
  -6 -17   6 1658.42 179.978   2
   6  17  -6 1384.76 165.055   6
   5 -17  -6 28136.6 684.583   3
  -5 -17   6 28458.6 684.071   2
   5  17  -6 28705.7 674.304   6
  -4 -17   6 5663.41 280.397   2
   4  17  -6 5822.29 276.444   6
  -3 -17   6 23525.2 578.371   2
   3  17  -6 23391.0 570.300   6
   2 -17  -6 20667.3 538.868   5
  -2 -17   6 19958.8 503.651   2
   2  17  -6 20617.5 512.934   6
   2 -17  -6 17932.4 301.601   6
   1 -17  -6 225.460 112.158   5
  -1 -17   6 130.355 85.0386   2
   1  17  -6-57.0315 85.9808   6
   1 -17  -6 36.1908 37.5650   6
   0 -17  -6 8248.32 343.034   5
   0 -17   6 8316.18 292.736   2
   0  17  -6 8419.38 317.551   6
   0 -17  -6 8737.59 229.696   6
  -1 -17  -6 22017.4 444.598   6
  -1 -17  -6 22013.6 588.314   5
   1 -17   6 22401.9 496.897   2
  -1  17  -6 22401.3 550.890   6
  -2 -17  -6 238.559 68.1012   6
   2 -17   6 162.770 73.8311   2
  -2 -17  -6 225.408 125.922   5
  -2  17  -6 135.251 91.4345   6
  -3 -17  -6 44484.3 810.206   6
   3 -17   6 44649.2 738.486   2
  -3 -17  -6 43960.2 937.088   5
  -3  17  -6 45095.7 875.419   6
  -4 -17  -6 13186.5 405.772   6
  -4 -17  -6 13781.0 481.940   5
  -4  17  -6 13158.0 425.185   6
  -5 -17  -6 2397.83 191.459   6
  -5  17  -6 2675.33 202.289   6
  -6 -17  -6 22863.7 632.118   6
  -6  17  -6 23423.8 623.074   6
  -7  17  -6 78.2365 113.079   6
  -7 -17  -6 167.165 119.672   6
  -8  17  -6 7913.74 372.160   6
  -8 -17  -6 7646.77 395.346   6
  -9  17  -6 19319.0 611.863   6
  -9 -17  -6 19269.7 660.310   6
  11 -18  -6 1317.98 211.190   3
 -11 -18   6 558.253 175.811   2
  11  18  -6 1309.53 205.006   6
  10 -18  -6 4872.36 331.847   3
 -10 -18   6 5519.12 341.949   2
  10  18  -6 5342.14 342.075   6
   9 -18  -6 13030.1 512.392   3
  -9 -18   6 13147.8 507.346   2
   9  18  -6 13441.3 505.408   6
   8 -18  -6 1261.51 183.552   3
  -8 -18   6 1675.63 207.500   2
   8  18  -6 1229.03 176.164   6
   7 -18  -6 13738.9 488.591   3
  -7 -18   6 13602.3 486.042   2
   7  18  -6 13755.1 470.075   6
   6 -18  -6 9641.90 399.998   3
  -6 -18   6 9853.83 400.740   2
   6  18  -6 10242.9 388.785   6
  -5 -18   6 2791.48 221.265   2
   5  18  -6 2333.05 189.716   6
  -4 -18   6 16503.9 495.116   2
   4  18  -6 17004.6 485.835   6
  -3 -18   6 6625.90 296.227   2
   3  18  -6 6575.29 288.044   6
   2 -18  -6 9303.39 366.433   5
  -2 -18   6 9510.53 343.680   2
   2  18  -6 9709.68 347.870   6
   1 -18  -6 11728.3 412.497   5
  -1 -18   6 11972.4 377.418   2
   1  18  -6 11831.3 383.313   6
   1 -18  -6 11370.6 235.334   6
   0 -18  -6 2119.64 201.696   5
   0 -18   6 2486.92 173.158   2
   0  18  -6 2371.83 179.016   6
   0 -18  -6 2380.73 114.911   6
   1 -18   6 863.172 108.052   2
  -1 -18  -6 893.726 86.9890   6
  -1 -18  -6 939.784 153.581   5
  -1  18  -6 746.199 117.196   6
  -2 -18  -6 24433.3 506.986   6
  -2 -18  -6 24022.3 648.596   5
  -2  18  -6 25256.1 598.190   6
   2 -18   6 24966.0 524.446   2
  -3 -18  -6 1824.33 144.574   6
   3 -18   6 1801.81 128.256   2
  -3 -18  -6 1848.10 201.412   5
  -3  18  -6 2081.57 177.073   6
  -4 -18  -6 16377.2 458.744   6
  -4 -18  -6 16651.6 552.254   5
  -4  18  -6 16622.8 486.940   6
  -5 -18  -6 16795.4 495.846   6
  -5 -18  -6 17023.3 560.619   5
  -5  18  -6 15980.6 489.359   6
  -6  18  -6 1310.34 161.011   6
  -6 -18  -6 1454.52 174.741   6
  -7 -18  -6 8450.82 394.018   6
  -7  18  -6 9636.80 397.050   6
  -8 -18  -6 9670.08 444.276   6
  -8  18  -6 10409.1 426.249   6
  -9  18  -6 1230.12 188.572   6
  -9 -18  -6 1156.12 202.956   6
  11  19  -6-76.7969 132.650   6
  10 -19  -6 163.056 152.550   3
 -10 -19   6 299.990 156.570   2
  10  19  -6-31.3189 141.161   6
   9 -19  -6 288.237 162.516   3
  -9 -19   6 281.871 163.214   2
   9  19  -6 59.9923 144.086   6
   8 -19  -6 1164.30 183.474   3
  -8 -19   6 1378.63 192.641   2
   8  19  -6 1003.83 165.476   6
   7 -19  -6 65.1897 133.933   3
  -7 -19   6 150.451 133.074   2
   7  19  -6 114.147 116.979   6
  -6 -19   6 2614.06 229.013   2
   6  19  -6 2649.58 213.472   6
  -5 -19   6 702.647 141.184   2
   5  19  -6 699.085 129.876   6
  -4 -19   6 649.952 125.012   2
   4  19  -6 598.723 131.325   6
  -3 -19   6 332.349 112.693   2
   3  19  -6 312.591 103.597   6
   2 -19  -6 3103.54 228.573   5
  -2 -19   6 2993.29 203.932   2
   2  19  -6 2891.64 194.527   6
   1 -19  -6 1891.31 188.611   5
   1  19  -6 1985.72 167.704   6
  -1 -19   6 1750.87 163.905   2
   0 -19  -6 947.041 75.2738   6
   0 -19  -6 830.518 149.483   5
   0  19  -6 969.513 134.292   6
   0 -19   6 954.453 129.965   2
   1 -19   6-33.0813 85.2537   2
  -1 -19  -6 13.1805 47.3802   6
  -1  19  -6-29.0621 92.4027   6
  -2 -19  -6 245.994 69.5204   6
   2 -19   6 325.372 89.5663   2
  -2 -19  -6-79.2996 135.803   5
  -2  19  -6 145.504 89.1008   6
  -3 -19  -6 115.089 69.8236   6
  -3 -19  -6 108.633 132.053   5
   3 -19   6 169.579 79.0250   2
  -3  19  -6 111.527 93.2637   6
  -4 -19  -6 773.800 118.159   6
  -4 -19  -6 436.094 153.254   5
  -4  19  -6 779.211 139.237   6
  -5 -19  -6 688.594 130.983   6
  -5 -19  -6 470.272 172.203   5
  -5  19  -6 743.764 141.230   6
  -6  19  -6 1104.97 155.959   6
  -6 -19  -6 738.833 137.175   6
  -6 -19  -6 1251.57 192.607   5
  -7  19  -6 225.408 139.686   6
  -7 -19  -6 39.5262 126.567   6
   7  19   6 14.7286 128.777   1
  -7 -19  -6 66.6937 147.908   5
  -8  19  -6 238.609 129.852   6
  -8 -19  -6-8.17139 145.005   6
  -9  19  -6 150.286 141.230   6
  -9 -19  -6-3.22389 136.469   6
  10 -20  -6 2937.39 275.707   3
 -10 -20   6 3309.07 291.780   2
  10  20  -6 3423.02 291.451   6
   9 -20  -6 10594.2 474.871   3
  -9 -20   6 10026.5 460.902   2
   9  20  -6 10328.4 454.745   6
  -8 -20   6 469.982 157.434   2
   8  20  -6 222.301 125.437   6
  -7 -20   6 6722.35 358.165   2
   7  20  -6 7055.76 348.442   6
  -6 -20   6 11297.1 446.939   2
   6  20  -6 11414.0 426.489   6
  -5 -20   6 111.051 115.480   2
   5  20  -6 79.8898 101.721   6
  -4 -20   6 9577.36 385.067   2
   4  20  -6 9938.21 378.486   6
  -3 -20   6 4757.44 266.550   2
   3  20  -6 5230.42 265.509   6
  -2 -20   6 3059.13 210.838   2
   2  20  -6 3242.10 214.196   6
   1 -20  -6 8044.38 363.257   5
  -1 -20   6 9173.71 343.465   2
   1  20  -6 9452.53 347.436   6
   0 -20  -6 15135.7 497.910   5
   0 -20   6 15258.3 440.726   2
   0  20  -6 16248.6 463.040   6
  -1 -20  -6 4448.07 281.179   5
  -1  20  -6 5046.32 253.427   6
   1 -20   6 5722.55 253.536   2
   2 -20   6 10707.4 338.716   2
  -2 -20  -6 10888.7 304.808   6
  -2 -20  -6 11313.0 440.404   5
  -2  20  -6 11050.8 381.929   6
  -3 -20  -6 256.928 79.2432   6
  -3 -20  -6 202.173 140.991   5
   3 -20   6 225.632 82.1063   2
  -3  20  -6 347.847 113.913   6
  -4 -20  -6 7683.85 304.081   6
  -4 -20  -6 8190.47 393.084   5
  -4  20  -6 7721.43 326.688   6
  -5 -20  -6 7387.42 320.270   6
  -5 -20  -6 7354.74 386.854   5
  -5  20  -6 7088.35 323.802   6
  -6 -20  -6 99.8346 104.755   6
  -6 -20  -6-150.050 157.316   5
  -6  20  -6 286.022 122.613   6
  -7 -20  -6 8344.34 394.632   6
  -7 -20  -6 9182.60 450.116   5
   7  20   6 8817.91 429.681   1
  -7  20  -6 8528.18 377.703   6
  -8  20  -6 3147.94 245.553   6
  -8 -20  -6 3331.71 276.055   6
  10  21  -6 2496.24 261.721   6
  -9 -21   6 385.595 170.260   2
   9  21  -6 307.942 160.653   6
  -8 -21   6 7749.50 402.917   2
   8  21  -6 8238.03 395.199   6
  -7 -21   6 6006.00 344.772   2
   7  21  -6 5824.46 329.627   6
  -6 -21   6 4879.30 303.491   2
   6  21  -6 4803.47 287.198   6
  -5 -21   6 24570.1 672.617   2
   5  21  -6 24646.6 641.436   6
  -4 -21   6 8643.52 374.181   2
   4  21  -6 8146.27 347.722   6
  -3 -21   6 7226.89 331.392   2
   3  21  -6 7316.93 318.085   6
  -2 -21   6 34182.7 763.293   2
   2  21  -6 34631.6 750.522   6
   1 -21  -6-211.676 138.446   5
   1  21  -6 102.323 98.8775   6
  -1 -21   6-20.8242 99.3222   2
   0 -21  -6 7929.50 368.591   5
   0  21  -6 7841.91 319.673   6
   0 -21   6 8070.40 320.444   2
  -1 -21  -6 14635.6 509.273   5
  -1  21  -6 14867.8 449.382   6
   1 -21   6 14805.8 428.545   2
   2 -21   6 1800.57 154.590   2
  -2 -21  -6 2060.15 219.645   5
  -2  21  -6 1866.01 171.684   6
  -3 -21  -6 16676.5 566.546   5
  -3  21  -6 17193.7 497.059   6
  -4 -21  -6 7366.56 379.264   5
  -4  21  -6 6978.78 315.423   6
  -5 -21  -6 5556.52 279.435   6
  -5 -21  -6 5842.49 355.751   5
  -5  21  -6 4973.63 273.600   6
  -6 -21  -6 22599.2 617.648   6
  -6 -21  -6 21253.3 675.947   5
   6  21   6 20877.6 680.008   1
  -6  21  -6 21108.9 596.677   6
  -7 -21  -6 503.968 145.636   6
   7  21   6 302.146 159.716   1
  -7  21  -6 487.097 139.439   6
  -8 -21  -6 5910.13 351.098   6
  10  22  -6 530.420 175.833   6
  -9 -22   6 4330.24 322.157   2
   9  22  -6 4976.25 337.217   6
  -9  22   6 4735.21 319.374   1
  -8 -22   6 40.4584 143.420   2
   8  22  -6 202.200 143.898   6
  -7 -22   6 974.561 183.397   2
   7  22  -6 1431.79 191.135   6
  -6 -22   6 372.006 151.835   2
   6  22  -6 368.442 134.669   6
  -5 -22   6 164.769 134.424   2
   5  22  -6 141.502 119.170   6
  -4 -22   6 3055.07 242.459   2
   4  22  -6 2888.67 216.833   6
   3  22  -6 1615.69 173.517   6
  -3 -22   6 1644.13 184.115   2
   2  22  -6 533.967 124.777   6
  -2 -22   6 393.374 125.652   2
  -1 -22   6 7732.20 333.635   2
   1  22  -6 8572.48 337.155   6
   0 -22   6 864.095 138.292   2
   0 -22  -6 874.749 167.578   5
   0  22  -6 904.630 136.661   6
  -1 -22  -6 3773.95 279.230   5
  -1  22  -6 4252.59 242.497   6
   1 -22   6 4239.94 230.499   2
   2 -22   6 4957.78 241.761   2
  -2 -22  -6 4462.20 300.008   5
  -2  22  -6 5030.70 262.296   6
  -3 -22  -6 405.759 161.195   5
  -3  22  -6 323.769 117.220   6
  -4 -22  -6 4469.54 313.673   5
  -4  22  -6 3606.12 235.161   6
  -5 -22  -6 4780.26 326.210   5
   5  22   6 4688.96 328.284   1
  -5  22  -6 4422.35 261.205   6
   6  22   6 235.299 154.778   1
  -6 -22  -6 69.7114 145.055   5
  -6  22  -6 67.2636 116.845   6
   7  22   6 2130.61 246.625   1
  -9  23   6 39.5578 140.842   1
   9  23  -6 532.439 172.878   6
   8  23  -6 2562.10 241.556   6
  -8 -23   6 2766.85 267.086   2
  -8  23   6 2391.30 245.108   1
   7  23  -6 815.146 166.868   6
  -7 -23   6 396.850 147.576   2
   6  23  -6 561.273 144.286   6
  -6 -23   6 1016.70 184.237   2
   5  23  -6 289.519 131.262   6
  -5 -23   6 382.110 150.931   2
   4  23  -6 1047.82 152.605   6
  -4 -23   6 842.994 161.885   2
   3  23  -6 1311.58 154.769   6
  -3 -23   6 1353.07 175.532   2
  -2 -23   6 5538.48 298.226   2
   2  23  -6 6147.68 295.662   6
  -1 -23   6 212.273 125.330   2
   1  23  -6 63.6972 107.627   6
   0 -23   6-224.118 112.811   2
   0 -23  -6-117.810 140.067   5
   0  23  -6-75.2946 110.818   6
   1 -23   6 1190.21 148.170   2
  -1 -23  -6 1093.09 186.353   5
  -1  23  -6 1460.39 153.499   6
   2 -23   6 134.860 96.7276   2
  -2 -23  -6 14.8269 137.884   5
  -2  23  -6 178.579 99.1624   6
  -3 -23  -6 1240.74 210.218   5
  -3  23  -6 1650.46 166.445   6
  -4 -23  -6 1901.08 233.782   5
  -4  23  -6 2088.80 193.766   6
   5  23   6 1267.72 205.028   1
  -5 -23  -6 1104.57 201.850   5
  -5  23  -6 1564.63 178.738   6
   6  23   6 2308.85 260.039   1
   7  23   6 1739.62 230.759   1
   9  24  -6 6683.02 388.236   6
  -9  24   6 5419.03 351.159   1
  -8  24   6 1399.99 206.878   1
   8  24  -6 1506.80 200.273   6
  -8 -24   6 1580.60 222.608   2
  -7 -24   6 13822.3 537.732   2
   7  24  -6 13511.2 508.938   6
  -7  24   6 12487.6 536.555   1
  -6 -24   6 10912.9 475.104   2
   6  24  -6 11762.1 462.353   6
   5  24  -6 88.2017 111.524   6
  -5 -24   6-129.784 133.358   2
  -4 -24   6 9654.82 419.543   2
   4  24  -6 9817.91 393.970   6
  -3 -24   6 10673.5 434.181   2
   3  24  -6 11295.1 416.305   6
   2  24  -6 2763.98 213.862   6
  -2 -24   6 2528.25 221.744   2
   1  24  -6 21497.0 575.064   6
  -1 -24   6 20899.6 589.107   2
   0 -24   6 1735.52 175.647   2
   0 -24  -6 1500.92 211.112   5
   0  24  -6 1805.54 174.173   6
   1 -24   6 4714.10 260.843   2
  -1 -24  -6 4750.73 312.969   5
  -1  24  -6 4737.58 263.402   6
   2 -24   6 12160.1 401.320   2
  -2 -24  -6 12383.6 496.522   5
  -2  24  -6 11778.3 412.215   6
  -3 -24  -6 2039.71 235.200   5
  -3  24  -6 2343.39 195.253   6
  -4 -24  -6 18533.9 636.280   5
  -4  24  -6 18906.6 542.679   6
   4  24   6 18061.5 656.239   1
  -5 -24  -6 11717.9 514.625   5
   5  24   6 10739.6 505.215   1
   6  24   6 79.5706 138.966   1
  -9  25   6 33.0614 144.508   1
  -8  25   6 3407.07 290.489   1
   8  25  -6 2807.14 264.585   6
  -7  25   6 1644.10 227.871   1
   7  25  -6 1784.48 219.076   6
  -7 -25   6 1868.98 231.097   2
  -6 -25   6 3901.35 300.865   2
   6  25  -6 3208.39 261.164   6
  -6  25   6 2989.14 278.101   1
  -5 -25   6 8878.88 423.408   2
   5  25  -6 8798.58 391.339   6
   4  25  -6 876.551 160.553   6
  -4 -25   6 764.644 164.583   2
   3  25  -6 2814.55 224.322   6
  -3 -25   6 3481.29 262.438   2
   2  25  -6 10463.2 397.183   6
  -2 -25   6 10064.8 417.973   2
  -1 -25   6-16.5770 120.668   2
   1  25  -6 392.428 121.458   6
   0  25  -6 19396.6 542.645   6
   0 -25   6 18388.1 546.315   2
   1 -25   6 2459.18 205.025   2
  -1 -25  -6 2298.20 242.076   5
  -1  25  -6 2621.47 201.507   6
  -2 -25  -6 371.407 158.046   5
   2  25   6 206.707 141.735   1
  -2  25  -6 237.973 110.760   6
  -3 -25  -6 9653.27 454.647   5
  -3  25  -6 10372.1 390.252   6
   3  25   6 9007.88 475.038   1
   4  25   6 1368.70 224.094   1
  -4 -25  -6 1481.76 216.518   5
   5  25   6 852.203 190.630   1
   6  25   6 3390.94 312.697   1
   8  26  -6 183.711 160.245   6
  -8  26   6 130.386 138.316   1
  -7  26   6 698.513 171.838   1
   7  26  -6 791.429 166.041   6
  -6  26   6 203.299 134.180   1
   6  26  -6 211.002 132.412   6
  -6 -26   6 84.1663 144.013   2
  -5  26   6-84.0525 139.265   1
   5  26  -6 99.1572 130.028   6
  -5 -26   6 199.886 145.711   2
   4  26  -6-95.8886 124.233   6
  -4  26   6-183.205 150.952   1
   3  26  -6 93.9794 107.850   6
  -3 -26   6 53.2655 130.489   2
  -2 -26   6-7.79301 127.598   2
   2  26  -6 82.4996 105.539   6
  -1 -26   6 424.726 131.809   2
   1  26  -6 613.823 131.729   6
   0 -26   6 187.823 125.583   2
   0  26  -6 129.310 102.613   6
   1 -26   6 1696.82 186.206   2
  -1  26  -6 1517.55 171.757   6
   1  26   6 1901.82 236.206   1
   2  26   6-114.983 160.028   1
  -2 -26  -6-242.373 171.581   5
   3  26   6 212.160 168.263   1
  -3 -26  -6 156.928 168.422   5
   4  26   6 90.7575 156.794   1
  -8  27   6 6968.86 418.796   1
  -7  27   6 2321.04 264.918   1
   7  27  -6 1632.24 216.575   6
  -6  27   6 761.365 173.464   1
   6  27  -6 893.370 181.131   6
   5  27  -6 10412.9 441.203   6
  -5 -27   6 10608.0 478.738   2
  -5  27   6 9593.78 487.968   1
  -4  27   6 682.268 177.076   1
   4  27  -6 1119.94 179.842   6
  -4 -27   6 782.346 181.365   2
   3  27  -6 5476.61 303.154   6
  -3 -27   6 5001.02 322.082   2
  -3  27   6 4002.41 339.512   1
   2  27  -6 4595.56 274.969   6
  -2  27   6 4094.86 330.545   1
  -2 -27   6 4113.70 289.630   2
  -1 -27   6 871.584 180.285   2
  -1  27   6 1281.51 226.349   1
   1  27  -6 1070.02 156.284   6
   0 -27   6 3475.82 259.029   2
   0  27  -6 4395.18 263.709   6
   0  27   6 3626.22 317.960   1
   1 -27   6 2952.45 235.781   2
   1  27   6 3249.45 312.797   1
   2  27   6 1020.52 214.791   1
   7  28  -6 5606.79 359.112   6
   6  28  -6 7023.77 379.975   6
   5  28  -6 257.906 137.643   6
   4  28  -6 13865.0 499.796   6
  -4 -28   6 12684.2 525.043   2
  -3 -28   6 2224.76 234.799   2
   3  28  -6 2642.09 227.488   6
  -2 -28   6 2177.33 231.513   2
   2  28  -6 2330.69 210.735   6
  -1 -28   6 9675.24 424.137   2
   0 -28   6 3680.62 270.716   2
   6  29  -6 244.482 165.817   6
   5  29  -6 1652.62 214.296   6
  -3 -29   6 3487.81 284.680   2
  -2 -29   6 47.0905 130.027   2
  -1 -29   6-180.746 137.921   2
   0 -29   6 305.687 137.768   2
  -2 -30   6 707.516 184.504   2
  -1 -30   6 3633.25 287.919   2
   0 -30   6-135.299 152.341   2
  14   0  -7-119.017 147.023   6
  13   0  -7 133.825 133.203   6
  12   0  -7 46.4395 128.898   6
  11   0  -7 79.1731 116.684   6
  10   0  -7 274.034 126.765   6
   9   0  -7 107.796 101.755   6
   8   0  -7-28.1183 84.8366   6
   7   0  -7-21.7131 81.2958   6
   6   0  -7 273.207 93.6690   6
   5   0  -7 81.1010 42.0789   5
   5   0  -7-35.7267 76.1340   6
   4   0  -7 454.037 100.064   6
   3   0  -7 102.457 76.4709   6
   2   0  -7-29.3166 70.5278   6
   1   0  -7 230.337 89.6819   6
   0   0  -7 37.3050 73.8073   6
  -1   0  -7 44.2144 78.3490   6
  -2   0  -7 118.018 102.002   6
   2   0   7-33.2140 54.8410   2
   3   0   7-10.0722 30.6967   2
  -3   0  -7-53.6910 91.4191   6
  -4   0  -7 88.4930 93.4586   6
  -5   0  -7-72.9608 95.6456   6
  -6   0  -7-120.233 104.479   6
  -7   0  -7-2.82123 110.581   6
  -8   0  -7 21.5470 114.798   6
  -9   0  -7 94.7263 132.788   6
  14  -1  -7 573.581 173.314   6
  14   1  -7 324.671 163.436   6
  13  -1  -7 296.655 155.251   6
  13   1  -7 67.2285 139.134   6
  12  -1  -7 5501.28 319.397   6
  12   1  -7 5986.73 333.909   6
  11  -1  -7 1934.73 203.262   6
  11   1  -7 1470.10 191.589   6
  10  -1  -7 24079.4 618.645   6
  10   1  -7 22733.9 612.511   6
   9  -1  -7 7482.25 311.502   6
   9   1  -7 7323.28 319.282   6
   8  -1  -7 1924.17 168.558   6
   8   1  -7 2134.42 173.557   6
   7  -1  -7 16119.7 431.056   6
   7   1  -7 15681.5 435.267   6
   6  -1  -7 11347.6 346.477   6
   6   1  -7 11816.3 359.971   6
   5  -1  -7 1910.00 94.8978   5
   5   1  -7 1391.64 72.0328   5
   5  -1  -7 1573.95 136.253   6
   5   1  -7 1590.45 138.397   6
   4  -1  -7 43835.7 673.418   5
   4   1  -7 43547.3 780.552   6
   4  -1  -7 43342.6 768.585   6
   3   1  -7 15171.7 392.242   6
   3  -1  -7 14775.0 382.817   6
   2   1  -7 12150.3 347.121   6
   2  -1  -7 12638.9 345.556   6
   1   1  -7 25620.2 546.958   6
   1  -1  -7 26121.9 543.442   6
   0   1  -7 239.291 81.5753   6
   0  -1  -7 84.9537 81.9653   6
  -1  -1  -7 42637.2 781.009   6
  -1   1  -7 42554.9 787.627   6
  -2   1  -7 99328.5 1474.07   6
  -2  -1  -7 99521.2 1467.31   6
  -2  -1  -7 91137.7 1174.72   3
   2   1   7 99556.3 1281.58   2
   2  -1   7 101260. 1261.40   2
  -3   1  -7 4364.15 229.489   6
  -3  -1  -7 4406.68 231.915   6
   3   1   7 4531.78 132.176   2
   3  -1   7 4423.53 111.687   2
  -4   1  -7 13533.9 425.626   6
  -4  -1  -7 14720.5 441.524   6
  -5   1  -7 9368.61 366.105   6
  -5  -1  -7 9839.55 375.594   6
  -6   1  -7 2630.70 212.017   6
  -6  -1  -7 2771.70 214.864   6
  -7   1  -7 11375.8 443.593   6
  -7  -1  -7 11639.7 446.919   6
  -8   1  -7 3415.29 265.557   6
  -8  -1  -7 3495.81 267.476   6
  -9   1  -7 3457.55 274.236   6
  -9  -1  -7 4028.17 298.707   6
  14  -2  -7 4487.50 322.480   6
  14   2  -7 5385.80 353.986   6
  13  -2  -7 7948.59 394.473   6
  13   2  -7 7363.43 393.676   6
  12  -2  -7 156.216 127.922   6
  12   2  -7 210.793 138.932   6
  11  -2  -7 16181.1 516.497   6
  11   2  -7 16596.8 539.544   6
  10  -2  -7 8088.31 342.546   6
  10   2  -7 7618.54 344.847   6
   9  -2  -7 14564.6 442.512   6
   9   2  -7 14966.6 463.645   6
   8  -2  -7 27710.4 617.673   6
   8   2  -7 28337.2 643.987   6
   7  -2  -7 809.058 117.473   6
   7   2  -7 587.988 108.710   6
   6  -2  -7 7601.64 275.550   6
   6   2  -7 7759.39 292.415   6
   5  -2  -7 46304.6 685.945   5
   5   2  -7 44905.5 622.868   5
   5  -2  -7 47095.4 804.090   6
   5   2  -7 46486.8 827.336   6
   4  -2  -7 3183.84 138.934   5
   4   2  -7 3210.52 180.168   6
   4  -2  -7 3305.57 174.226   6
   3   2  -7 14878.0 392.435   6
   3  -2  -7 14752.2 376.989   6
   2   2  -7 23345.6 516.738   6
   2  -2  -7 23375.1 500.088   6
   1   2  -7 1500.36 133.805   6
   1  -2  -7 1321.65 123.590   6
   0   2  -7 70138.4 1130.68   6
   0  -2  -7 71537.8 1118.09   6
  -1  -2  -7 64384.8 1060.45   6
   1   2   7 64794.8 955.999   2
  -1  -2  -7 66367.3 889.997   3
  -1   2  -7 66382.2 1083.81   6
  -2   2  -7 15297.7 416.831   6
  -2  -2  -7 15177.7 412.647   6
   2   2   7 14641.9 303.395   2
  -2  -2  -7 13571.6 209.054   3
  -3   2  -7 94028.0 1393.77   6
  -3  -2  -7 91499.2 1378.19   6
   3   2   7 95197.0 1157.72   2
  -4   2  -7 1850.27 166.818   6
  -4  -2  -7 1633.08 159.341   6
   4   2   7 1530.24 72.2896   2
  -5  -2  -7 2133.92 193.550   6
  -5   2  -7 2011.01 186.646   6
  -6   2  -7 30132.7 731.726   6
  -6  -2  -7 30889.7 745.320   6
  -7   2  -7 2479.24 219.936   6
  -7  -2  -7 2754.56 231.798   6
  -8   2  -7 11320.1 463.414   6
  -8  -2  -7 11745.9 476.720   6
  -9   2  -7 15712.5 566.734   6
  -9  -2  -7 15053.7 566.024   6
  14  -3  -7 24.5920 141.192   6
  14   3  -7-40.0824 145.157   6
  13  -3  -7 101.699 135.483   6
  13   3  -7 333.766 148.527   6
  12  -3  -7 3556.53 258.236   6
  12   3  -7 3704.88 280.188   6
  11  -3  -7 591.263 141.697   6
  11   3  -7 589.876 147.412   6
  10  -3  -7 25.3698 104.202   6
  10   3  -7 110.568 118.574   6
   9  -3  -7 5984.67 275.121   6
   9   3  -7 5971.68 297.342   6
   8  -3  -7 207.129 95.6973   6
   8   3  -7 239.477 117.851   6
   7  -3  -7 865.501 116.925   6
   7   3  -7 1068.21 136.002   6
   6  -3  -7 561.667 97.9900   6
   6   3  -7 792.299 116.880   6
   5  -3  -7 21.8911 54.5349   5
   5   3  -7 19.3122 26.5619   5
   5  -3  -7 202.734 77.5843   6
   5   3  -7 129.070 95.5482   6
   4  -3  -7 15056.9 329.306   5
   4   3  -7 14818.1 401.889   6
   4  -3  -7 15027.4 375.748   6
   3   3  -7 12360.2 356.051   6
   3  -3  -7 12271.4 336.833   6
   2   3  -7 1298.01 126.459   6
   2  -3  -7 1308.07 115.566   6
   1   3  -7 25129.4 549.294   6
   1  -3  -7 24892.1 523.037   6
   0   3  -7 1941.03 154.046   6
   0  -3  -7 1980.47 145.783   6
  -1  -3  -7 9268.69 306.572   6
  -1  -3  -7 9861.00 211.088   3
   1   3   7 9729.92 259.351   2
  -1   3  -7 10135.1 334.275   6
  -2   3  -7 994.657 120.090   6
  -2  -3  -7 1037.85 121.726   6
   2   3   7 1027.36 82.8672   2
  -3   3  -7 1308.85 149.787   6
  -3   3  -7 878.967 44.2630   3
  -3  -3  -7 1304.87 145.496   6
   3   3   7 1197.89 85.8585   2
  -4   3  -7 16330.6 474.874   6
  -4  -3  -7 16996.8 479.364   6
   4   3   7 16227.1 303.153   2
  -5   3  -7 3550.97 228.119   6
  -5  -3  -7 3463.95 227.869   6
  -6   3  -7 3755.08 246.391   6
  -6  -3  -7 3637.21 251.001   6
  -7   3  -7 1011.10 164.542   6
  -7  -3  -7 764.032 152.996   6
  -8   3  -7 2970.69 251.861   6
  -8  -3  -7 2944.13 250.278   6
  -9   3  -7-157.473 142.349   6
  -9  -3  -7-159.796 150.226   6
  15  -4  -7 366.745 163.641   6
  14  -4  -7 761.430 180.786   6
  14   4  -7 217.114 158.965   6
  13  -4  -7 1641.15 203.326   6
  13   4  -7 1991.22 231.498   6
  12  -4  -7 64.1713 116.968   6
  12   4  -7 203.913 156.158   6
  11  -4  -7 4931.52 278.366   6
  11   4  -7 5139.30 308.651   6
  10  -4  -7 1043.28 142.301   6
  10   4  -7 954.022 155.819   6
   9  -4  -7 454.101 109.030   6
   9   4  -7 481.357 130.255   6
   8  -4  -7 349.817 95.6934   6
   8   4  -7 540.120 125.163   6
   7  -4  -7 19793.8 475.485   6
   7   4  -7 20309.5 519.234   6
   6  -4  -7 8210.94 278.183   6
   6   4  -7 8389.11 313.151   6
   5  -4  -7 1749.53 108.821   5
   5   4  -7 1622.36 58.0875   5
   5  -4  -7 1842.48 132.052   6
   5   4  -7 1797.09 148.634   6
   4  -4  -7 1548.81 112.141   5
   4  -4  -7 1480.70 129.377   6
   4   4  -7 1255.03 138.136   6
   3   4  -7 6294.50 256.931   6
   3  -4  -7 7025.96 244.526   6
   2   4  -7 253.639 91.3373   6
   2  -4  -7 419.304 84.3081   6
   1  -4  -7 1790.74 134.172   6
   1   4  -7 1600.23 142.559   6
   0   4  -7 6656.89 266.819   6
   0  -4  -7 6976.48 250.946   6
   0  -4  -7 6843.02 196.539   3
  -1  -4  -7 20576.8 479.685   6
  -1  -4  -7 21096.5 358.522   3
   1   4   7 21001.9 426.325   2
  -1   4  -7 20998.3 506.793   6
   2   4   7 1390.82 98.9281   2
  -2   4  -7 1523.27 145.791   6
  -2  -4  -7 1492.61 137.807   6
  -3   4  -7 44853.7 857.725   6
  -3  -4  -7 44235.6 847.612   6
  -3   4  -7 44739.8 619.814   3
   3   4   7 45249.2 700.147   2
  -4   4  -7 7399.55 311.877   6
  -4  -4  -7 7196.95 306.853   6
   4   4   7 6958.74 189.511   2
  -5   4  -7 755.289 134.714   6
  -5  -4  -7 914.123 141.638   6
  -6   4  -7 4105.29 261.366   6
  -6  -4  -7 4116.57 266.014   6
  -7   4  -7 1614.87 192.590   6
  -7  -4  -7 1134.90 172.322   6
  -8   4  -7 3549.43 267.746   6
  -8  -4  -7 4145.03 296.397   6
  -9   4  -7 830.096 169.921   6
  -9  -4  -7 448.051 147.786   6
  14  -5  -7 2066.20 227.979   6
  13  -5  -7 1327.06 187.876   6
  13   5  -7 998.037 187.044   6
  12  -5  -7 11033.1 428.999   6
  12   5  -7 10456.3 452.504   6
  11  -5  -7 1426.10 166.966   6
  11   5  -7 1441.67 188.922   6
  10  -5  -7 10947.5 388.463   6
  10   5  -7 11196.6 427.490   6
   9  -5  -7 25850.9 599.092   6
   9   5  -7 26051.9 656.991   6
   8  -5  -7 351.275 95.7043   6
   8   5  -7 457.022 116.675   6
   7  -5  -7 46868.9 830.193   6
   7   5  -7 47452.3 896.788   6
   6  -5  -7 21582.0 478.690   6
   6   5  -7 20839.9 523.459   6
   5  -5  -7 10671.0 270.971   5
   5  -5  -7 10386.5 296.803   6
   5   5  -7 10143.9 332.085   6
   4  -5  -7 50328.4 795.855   5
   4   5  -7 48527.6 877.981   6
   4  -5  -7 49725.9 822.522   6
   3  -5  -7 29685.1 551.749   5
   3   5  -7 28077.9 599.865   6
   3  -5  -7 28648.0 556.093   6
   2   5  -7 24182.3 542.595   6
   2  -5  -7 24059.4 496.334   6
   1   5  -7 28593.2 601.852   6
   1  -5  -7 28416.0 562.798   6
   1  -5  -7 28274.5 517.590   3
   0  -5  -7 14933.1 315.618   3
   0   5   7 14574.3 356.643   2
   0   5  -7 14862.4 408.629   6
   0  -5  -7 14215.9 374.052   6
  -1  -5  -7 59439.8 990.668   6
  -1  -5  -7 62970.4 852.366   3
   1   5   7 59509.0 932.043   2
  -1   5  -7 60846.0 1041.59   6
  -2   5  -7 19388.0 490.938   6
  -2  -5  -7 18413.3 459.690   6
   2   5   7 18188.3 388.369   2
  -3   5  -7 564.996 115.711   6
  -3  -5  -7 437.282 102.405   6
   3   5   7 592.946 80.2445   2
  -4   5  -7 55117.7 1021.43   6
  -4  -5  -7 55764.6 1020.84   6
   4   5   7 55412.9 819.281   2
  -5   5  -7 22041.8 590.386   6
  -5  -5  -7 22786.9 596.292   6
  -6   5  -7 5417.82 291.898   6
  -6  -5  -7 5420.61 297.986   6
  -7   5  -7 34218.9 827.265   6
  -7  -5  -7 36546.2 864.303   6
  -8   5  -7 9762.43 423.283   6
  -8  -5  -7 10421.2 457.712   6
  -9   5  -7 3487.57 275.704   6
  -9  -5  -7 2689.86 264.005   6
  14  -6  -7 1012.53 187.179   6
  13  -6  -7 7495.87 368.845   6
  13   6  -7 7748.30 422.862   6
  12  -6  -7 2583.00 219.292   6
  12   6  -7 2690.70 259.488   6
  11  -6  -7 346.337 121.014   6
  11   6  -7 240.369 117.501   6
  10  -6  -7 4789.13 256.728   6
  10   6  -7 5559.70 304.505   6
   9  -6  -7 868.406 128.832   6
   9   6  -7 949.253 156.673   6
   8  -6  -7 24544.2 550.007   6
   8   6  -7 24290.6 609.359   6
   7  -6  -7 1503.31 131.333   6
   7   6  -7 1726.38 167.279   6
   6  -6  -7 24748.9 519.763   6
   6   6  -7 25306.1 587.032   6
   5  -6  -7 15362.1 351.815   5
   5  -6  -7 14481.1 362.684   6
   5   6  -7 14395.1 414.455   6
   4  -6  -7 1106.59 109.527   5
   4   6  -7 1083.46 126.303   6
   4  -6  -7 1149.64 109.087   6
   3  -6  -7 15094.1 368.045   5
   3   6  -7 14582.0 407.541   6
   3  -6  -7 14977.4 363.169   6
   2   6  -7 39696.8 758.261   6
   2  -6  -7 40694.8 701.104   6
   2  -6  -7 39630.2 692.460   3
   1  -6  -7 32.8618 61.6148   6
   1  -6  -7 1.77183 57.4417   3
   1   6  -7-30.2172 79.1388   6
   0  -6  -7 35827.3 590.492   3
   0   6  -7 35360.8 709.923   6
   0  -6  -7 35966.3 664.432   6
  -1  -6  -7 2481.58 160.217   6
   1   6   7 2315.21 135.764   2
  -1   6  -7 2078.96 165.608   6
  -2  -6  -7 5123.82 232.347   6
   2   6   7 5052.19 191.931   2
  -2   6  -7 5300.45 250.079   6
  -3   6  -7 29601.5 662.428   6
  -3  -6  -7 30255.3 649.185   6
   3   6   7 29693.8 545.915   2
  -4   6  -7 15973.6 468.838   6
  -4  -6  -7 16229.4 468.598   6
   4   6   7 15945.5 348.773   2
  -5   6  -7 41766.2 867.964   6
  -5  -6  -7 41634.6 871.240   6
  -6   6  -7 26386.2 676.358   6
  -6  -6  -7 26694.6 688.386   6
  -7   6  -7 1884.18 196.438   6
  -7  -6  -7 1808.77 205.933   6
  -8   6  -7 6030.78 341.078   6
  -8  -6  -7 5642.17 345.092   6
  -9   6  -7 4539.10 315.713   6
  -9  -6  -7 4538.92 323.877   6
  14  -7  -7 186.609 139.334   6
  13  -7  -7 315.366 144.307   6
  13   7  -7 231.767 157.801   6
  13  -7  -7 612.890 185.578   3
  12  -7  -7 184.369 117.730   6
  12   7  -7 36.5499 128.518   6
  11  -7  -7 246.834 106.179   6
  11   7  -7 266.848 141.158   6
  10  -7  -7 752.997 131.338   6
  10   7  -7 955.893 163.155   6
   9  -7  -7 377.934 98.8031   6
   9   7  -7 294.951 128.498   6
   8  -7  -7 8702.21 298.763   6
   8   7  -7 8374.99 345.338   6
   7  -7  -7 187.211 76.9500   6
   7   7  -7 316.561 115.640   6
   6  -7  -7 2796.28 157.343   6
   6   7  -7 2654.98 188.125   6
   5  -7  -7 405.803 80.6154   6
   5   7  -7 432.788 107.760   6
  -4   7   7 404.751 71.9353   6
   4  -7  -7 466.892 91.7450   5
   4   7  -7 543.789 106.687   6
   4  -7  -7 457.016 75.5007   6
  -3   7   7 367.432 77.8137   6
   3  -7  -7 405.058 94.8107   3
   3  -7  -7 437.774 94.9009   5
   3   7  -7 489.684 110.315   6
   3  -7  -7 415.878 80.0258   6
   2  -7  -7 2634.47 153.074   3
  -2   7   7 2739.25 149.293   6
   2   7  -7 2918.66 185.459   6
   2  -7  -7 3022.57 155.955   6
   1  -7  -7 104.301 64.1275   6
   1  -7  -7 84.9339 60.3677   3
   1   7  -7 198.457 88.5227   6
   0  -7  -7 88.8296 73.4749   6
   0  -7  -7 105.256 55.1794   3
   0   7  -7 187.717 95.3846   6
  -1   7  -7 682.604 112.925   6
  -1  -7  -7 487.028 91.0415   6
  -2   7  -7 121.238 87.6067   6
  -2  -7  -7 202.347 86.9721   6
   2   7   7 73.7489 59.9066   2
   2  -7   7 215.318 45.9029   2
  -3   7  -7 869.918 125.172   6
  -3  -7  -7 959.068 128.755   6
   3   7   7 965.160 103.522   2
  -4   7  -7 3505.80 220.476   6
  -4  -7  -7 3544.40 217.112   6
  -5   7  -7 360.289 115.631   6
  -5  -7  -7 373.220 124.514   6
  -6   7  -7 1027.90 157.708   6
  -6  -7  -7 1328.31 171.976   6
  -7   7  -7 49.4209 113.382   6
  -7  -7  -7 37.9070 118.729   6
  -8   7  -7 316.037 130.647   6
  -8  -7  -7 114.046 142.726   6
  -9   7  -7 60.0524 123.763   6
  -9  -7  -7 142.681 141.000   6
  13  -8  -7 3760.36 264.882   6
  13   8  -7 3901.22 315.450   6
  13  -8  -7 4164.64 321.956   3
  12  -8  -7 448.672 170.109   3
  12  -8  -7 264.571 120.883   6
  12   8  -7 250.097 151.748   6
  11  -8  -7 5282.76 271.361   6
  11   8  -7 5287.18 325.050   6
  10  -8  -7 12277.6 395.161   6
  10   8  -7 11928.0 459.114   6
   9  -8  -7 4526.02 227.386   6
   9   8  -7 4475.27 276.557   6
   8  -8  -7 15163.1 399.789   6
   8   8  -7 14352.2 466.695   6
   7  -8  -7 889.262 106.815   6
   7   8  -7 813.100 141.523   6
   6  -8  -7 1280.00 108.267   6
   6   8  -7 941.021 130.718   6
  -5   8   7 13018.5 328.869   6
   5  -8  -7 13470.3 337.084   6
   5   8  -7 13200.0 399.704   6
  -4   8   7 411.061 75.0549   6
   4  -8  -7 466.937 111.230   3
   4  -8  -7 563.434 103.300   5
   4   8  -7 548.172 119.283   6
   4  -8  -7 580.954 81.8432   6
   3  -8  -7 27260.8 566.877   3
  -3   8   7 27951.2 525.370   6
   3  -8  -7 27148.5 555.996   5
   3   8  -7 27046.2 597.796   6
   3  -8  -7 27445.6 523.585   6
   2  -8  -7 23663.5 494.512   3
  -2   8   7 22901.1 471.385   6
   2  -8  -7 22662.6 508.091   5
   2   8  -7 23176.4 540.084   6
   2  -8  -7 22945.6 468.936   6
   1  -8  -7 5805.36 211.068   3
   1   8  -7 5923.30 254.838   6
   1  -8  -7 5726.98 217.570   6
   0  -8  -7 48553.6 761.756   3
   0   8  -7 48133.5 884.421   6
   0  -8  -7 48089.2 814.291   6
  -1  -8  -7 22355.5 493.721   6
  -1   8  -7 22622.5 548.026   6
  -2  -8  -7 16448.0 429.091   6
   2  -8   7 16661.9 306.471   2
  -2   8  -7 16399.5 462.378   6
  -3   8  -7 25746.5 607.374   6
  -3  -8  -7 24745.0 574.789   6
   3   8   7 24587.6 510.238   2
  -4   8  -7 2353.25 187.262   6
  -4  -8  -7 2908.08 198.878   6
  -5   8  -7 20353.5 563.362   6
  -5  -8  -7 20620.2 568.095   6
  -6   8  -7 17331.7 531.163   6
  -6  -8  -7 17298.4 542.741   6
  -7   8  -7 5668.44 313.047   6
  -7  -8  -7 5585.99 324.772   6
  -8   8  -7 1989.20 212.305   6
  -8  -8  -7 1853.21 215.319   6
  -9   8  -7 3750.20 289.803   6
  -9  -8  -7 4048.14 312.347   6
  13  -9  -7 3301.85 288.288   3
  13   9  -7 3096.32 290.174   6
  12  -9  -7 5666.73 356.121   3
  12  -9  -7 5508.45 290.941   6
  12   9  -7 5680.99 356.312   6
  11  -9  -7 2554.18 246.446   3
  11  -9  -7 2114.57 177.581   6
  11   9  -7 2668.97 242.505   6
  10  -9  -7 13497.5 413.338   6
  10   9  -7 13611.5 492.340   6
  10  -9  -7 13760.1 500.448   3
   9  -9  -7 15536.3 425.553   6
   9   9  -7 15301.2 506.566   6
   9  -9  -7 15468.4 513.106   3
   8  -9  -7 158.322 107.775   3
   8  -9  -7 168.769 78.0828   6
   8   9  -7 152.157 112.314   6
   7  -9  -7 41445.8 729.433   6
   7   9  -7 41257.0 849.672   6
   7  -9  -7 41267.1 851.546   3
   6  -9  -7 5921.88 213.009   6
   6   9  -7 5420.85 269.257   6
  -6   9   7 5429.54 207.496   6
   6  -9  -7 5994.73 276.179   3
  -5   9   7 6377.61 216.981   6
   5  -9  -7 6979.75 225.915   6
   5   9  -7 6748.93 284.335   6
   5  -9  -7 6609.82 278.373   3
   4  -9  -7 65085.5 1091.84   3
  -4   9   7 66826.4 1000.16   6
   4  -9  -7 67893.1 1061.21   5
   4   9  -7 66294.9 1117.55   6
   4  -9  -7 66141.0 996.853   6
   3  -9  -7 19606.2 465.558   3
  -3   9   7 18880.0 407.355   6
   3  -9  -7 19492.3 460.828   5
   3   9  -7 19874.0 495.347   6
   3  -9  -7 19494.7 413.159   6
   2  -9  -7 11826.4 331.892   3
  -2   9   7 11396.7 306.059   6
   2  -9  -7 11694.4 349.628   5
   2   9  -7 12110.8 371.575   6
   2  -9  -7 11957.1 307.997   6
   1  -9  -7 45921.6 764.741   3
   1   9  -7 44499.6 843.027   6
   1  -9  -7 45683.2 765.144   6
   0  -9  -7 2956.14 145.075   3
   0   9  -7 2817.49 187.640   6
   0  -9  -7 2930.29 160.387   6
  -1  -9  -7 42838.9 762.932   6
   1  -9   7 42724.3 675.854   2
  -1   9  -7 42990.6 827.712   6
  -2  -9  -7 24714.7 548.968   6
   2  -9   7 24876.4 417.061   2
  -2   9  -7 24504.5 589.404   6
  -3   9  -7-60.5517 89.1335   6
  -3  -9  -7 144.019 92.7563   6
  -4   9  -7 17598.9 503.373   6
  -4  -9  -7 17641.3 495.505   6
  -5   9  -7 11247.4 405.671   6
  -5  -9  -7 11559.6 415.235   6
  -6   9  -7 11072.6 416.916   6
  -6  -9  -7 10866.8 428.266   6
  -7   9  -7 21817.4 626.886   6
  -7  -9  -7 21477.2 649.722   6
  -8   9  -7 12507.8 483.087   6
  -8  -9  -7 11753.2 491.410   6
  -9   9  -7 2863.62 252.426   6
  -9  -9  -7 3048.50 303.920   6
  12 -10  -7 246.574 164.030   3
  12  10  -7 397.104 167.358   6
  11 -10  -7 74.0741 88.5770   6
  11  10  -7 186.392 128.794   6
  10 -10  -7 3384.81 262.054   3
  10 -10  -7 3190.60 196.725   6
  10  10  -7 3406.60 252.344   6
   9 -10  -7 4890.77 294.318   3
   9 -10  -7 4800.25 226.502   6
   9  10  -7 5377.66 299.970   6
   8 -10  -7 1627.97 184.226   3
   8 -10  -7 1488.70 126.722   6
   8  10  -7 1280.02 166.398   6
   7 -10  -7 1100.08 163.988   3
   7 -10  -7 996.198 104.840   6
   7  10  -7 1004.02 155.234   6
  -6  10   7 1580.46 115.894   6
   6 -10  -7 1691.17 165.796   3
   6 -10  -7 1775.73 118.683   6
   6  10  -7 1738.63 169.069   6
  -5  10   7 1683.55 113.865   6
   5 -10  -7 1801.28 159.082   3
   5 -10  -7 1854.50 117.268   6
   5  10  -7 1861.52 168.558   6
  -4  10   7 195.412 66.9367   6
   4 -10  -7 185.356 98.6238   3
   4 -10  -7 182.677 102.828   5
   4 -10  -7 214.250 63.3267   6
   4  10  -7 245.581 105.894   6
   3 -10  -7 5529.49 238.634   3
  -3  10   7 5465.85 196.264   6
   3 -10  -7 5829.29 244.618   5
   3  10  -7 5809.57 256.820   6
   3 -10  -7 5512.40 196.808   6
   2 -10  -7 8749.70 285.998   3
  -2  10   7 9103.54 263.830   6
   2 -10  -7 8973.40 305.722   5
   2  10  -7 8792.71 321.593   6
   2 -10  -7 8457.51 252.182   6
   1 -10  -7 575.471 93.7812   3
  -1  10   7 582.647 88.1963   6
   1  10  -7 541.308 112.012   6
   1 -10  -7 831.255 98.9890   6
   0  10  -7 8352.74 313.684   6
   0 -10  -7 8466.53 267.184   6
  -1 -10  -7 4419.67 202.338   6
   1 -10   7 4484.77 167.425   2
  -1  10  -7 4315.35 235.622   6
  -2 -10  -7 2071.88 154.384   6
   2 -10   7 1942.01 99.9342   2
  -2  10  -7 2073.87 172.578   6
   3 -10   7 5013.79 119.446   2
  -3 -10  -7 5123.23 245.023   6
  -3  10  -7 5111.93 261.914   6
  -4  10  -7-47.0383 96.0793   6
  -4 -10  -7-13.2089 91.8354   6
  -5  10  -7 235.205 106.894   6
  -5 -10  -7-87.6354 105.621   6
  -6  10  -7 3000.25 226.696   6
  -6 -10  -7 2811.59 232.712   6
  -7  10  -7 263.660 121.673   6
  -7 -10  -7 232.519 138.596   6
  -8  10  -7 4069.65 280.559   6
  -8 -10  -7 4381.98 316.293   6
  -9  10  -7 578.275 147.747   6
  -9 -10  -7 308.772 147.485   6
  12 -11  -7 2172.51 244.545   3
  12  11  -7 2410.34 258.367   6
  11 -11  -7-56.5067 138.273   3
  11  11  -7 134.927 151.176   6
  10 -11  -7 312.620 141.805   3
  10 -11  -7 438.723 101.674   6
  10  11  -7 676.893 154.657   6
   9 -11  -7 4157.17 279.596   3
   9 -11  -7 3923.90 199.210   6
   9  11  -7 3995.52 270.492   6
   8 -11  -7 446.813 137.928   3
   8 -11  -7 373.060 85.2113   6
   8  11  -7 353.241 122.178   6
   7 -11  -7 15661.6 485.298   3
   7 -11  -7 15432.7 366.731   6
   7  11  -7 15099.8 472.516   6
  -6  11   7 1838.55 119.653   6
   6 -11  -7 1520.35 162.117   3
   6 -11  -7 2094.16 123.642   6
   6  11  -7 1898.31 172.546   6
  -5  11   7 1480.95 106.647   6
   5 -11  -7 1471.10 152.268   3
   5 -11  -7 1478.39 102.373   6
   5  11  -7 1423.11 152.899   6
   4 -11  -7 14324.3 411.474   3
  -4  11   7 13646.1 318.162   6
   4 -11  -7 13617.2 387.268   5
   4 -11  -7 13682.7 316.719   6
   4  11  -7 13390.5 412.304   6
   3 -11  -7 8365.02 296.095   3
  -3  11   7 7816.10 234.312   6
   3 -11  -7 8312.18 300.482   5
   3  11  -7 7913.53 309.993   6
   3 -11  -7 8120.42 236.055   6
   2 -11  -7 263.929 92.1730   3
  -2  11   7 245.797 69.9671   6
   2 -11  -7 367.266 114.598   5
   2  11  -7 392.047 104.412   6
   2 -11  -7 348.410 68.8510   6
   1 -11  -7 57837.4 933.038   3
  -1  11   7 55158.6 898.825   6
   1 -11  -7 57444.4 1000.18   5
   1  11  -7 56898.7 1003.61   6
   1 -11  -7 57328.7 896.320   6
   0 -11  -7 85.4228 67.7740   6
   0 -11   7 105.629 67.3673   2
   0  11  -7 203.835 104.815   6
  -1 -11  -7 2860.09 162.331   6
   1 -11   7 2562.00 131.572   2
  -1  11  -7 2573.62 186.836   6
  -2 -11  -7 6989.37 267.669   6
   2 -11   7 6991.82 195.853   2
  -2  11  -7 6736.41 291.443   6
  -3  11  -7 30.6833 96.0391   6
  -3 -11  -7 4.56144 85.5931   6
   3 -11   7 58.1943 34.8664   2
  -4 -11  -7 22123.1 566.542   6
  -4  11  -7 21753.7 578.920   6
  -5  11  -7 7859.77 340.559   6
  -5 -11  -7 7686.53 340.995   6
  -6  11  -7 7090.69 336.444   6
  -6 -11  -7 6773.73 342.719   6
  -7  11  -7 5098.71 297.197   6
  -7 -11  -7 3674.91 272.485   6
  -8  11  -7 4183.99 288.458   6
  -8 -11  -7 3291.15 282.623   6
  -9  11  -7 406.801 138.607   6
  -9 -11  -7 537.968 177.288   6
  12 -12  -7 278.136 152.543   3
  12  12  -7 109.199 150.839   6
  11 -12  -7 9510.13 445.095   3
  11  12  -7 9901.52 449.507   6
  10 -12  -7 3723.25 286.706   3
  10  12  -7 3684.39 274.593   6
   9 -12  -7 40.1392 124.966   3
   9 -12  -7 17.8945 69.2370   6
   9  12  -7 291.792 119.714   6
   8 -12  -7 24450.4 654.510   3
   8 -12  -7 23544.9 496.796   6
   8  12  -7 23657.8 635.474   6
   7 -12  -7 1607.01 175.992   3
   7 -12  -7 1614.67 115.714   6
   7  12  -7 1457.01 173.104   6
   6 -12  -7 11718.0 405.986   3
   6 -12  -7 11878.9 293.610   6
   6  12  -7 12398.5 413.823   6
   5 -12  -7 9541.06 349.920   3
  -5  12   7 9899.37 256.345   6
   5  12  -7 9707.45 213.621   5
   5 -12  -7 9814.62 254.789   6
   5  12  -7 9689.76 362.920   6
  -4  12   7 1139.37 94.9987   6
   4 -12  -7 863.736 123.072   3
   4 -12  -7 908.799 129.347   5
   4 -12  -7 1011.51 84.6132   6
   4  12  -7 998.253 132.909   6
   3 -12  -7 10297.1 339.788   3
  -3  12   7 9901.27 260.967   6
   3 -12  -7 9829.67 335.681   5
   3  12  -7 9685.84 346.338   6
   3 -12  -7 9853.92 258.587   6
   2 -12  -7 63021.7 1027.58   3
  -2  12   7 60551.6 933.456   6
   2 -12  -7 61224.7 1056.96   5
   2  12  -7 61478.7 1071.62   6
   2 -12  -7 61763.9 928.914   6
  -1  12   7 64.5849 63.2795   6
   1 -12  -7 318.429 106.500   5
   1  12  -7 190.391 96.4093   6
   1 -12  -7 168.822 62.4951   6
   0 -12   7 34974.2 641.460   2
   0  12  -7 34706.3 732.193   6
   0 -12  -7 36687.4 649.205   6
  -1 -12  -7 25008.5 527.641   6
   1 -12   7 25700.9 490.487   2
  -1  12  -7 26283.9 610.185   6
  -2 -12  -7 2232.93 158.033   6
   2 -12   7 2026.14 110.464   2
  -2  12  -7 2238.72 185.481   6
  -3 -12  -7 45078.9 841.726   6
   3 -12   7 43301.9 628.169   2
  -3  12  -7 44338.2 882.330   6
  -4 -12  -7 7276.90 310.106   6
  -4  12  -7 7023.31 318.674   6
  -5  12  -7 9694.50 384.899   6
  -5 -12  -7 9366.73 376.346   6
  -6  12  -7 23254.4 638.893   6
  -6 -12  -7 23549.7 654.586   6
  -7  12  -7 1334.41 175.358   6
  -7 -12  -7 1613.32 203.702   6
  -8  12  -7 9715.92 425.907   6
  -8 -12  -7 8416.35 423.151   6
  -9  12  -7 17383.0 593.465   6
  -9 -12  -7 15787.1 605.142   6
  12 -13  -7 7608.90 412.177   3
  12  13  -7 8077.46 430.889   6
  11 -13  -7 361.889 170.374   3
  11  13  -7 211.237 145.691   6
  10 -13  -7 6921.94 369.997   3
  10  13  -7 6755.16 360.134   6
   9 -13  -7 1168.52 176.262   3
   9  13  -7 1400.18 185.241   6
   8 -13  -7 3109.71 243.676   3
   8 -13  -7 2978.95 155.443   6
   8  13  -7 2900.96 229.860   6
   7 -13  -7 10115.1 394.519   3
   7 -13  -7 9896.09 271.037   6
   7  13  -7 10006.0 392.578   6
   6 -13  -7 11808.4 413.239   3
   6 -13  -7 11849.0 284.720   6
   6  13  -7 11452.6 410.651   6
   5 -13  -7 5670.73 277.732   3
   5 -13  -7 5473.05 177.523   6
   5  13  -7 5472.91 276.716   6
   4 -13  -7 8815.83 328.065   3
  -4  13   7 8369.30 226.154   6
   4 -13  -7 8214.39 311.576   5
   4 -13  -7 8195.40 221.844   6
   4  13  -7 8017.26 321.978   6
   3 -13  -7 10654.3 352.722   3
  -3  13   7 10180.7 261.436   6
   3 -13  -7 10351.6 352.685   5
   3  13  -7 10222.6 357.395   6
   3 -13  -7 10069.8 255.163   6
   2 -13  -7 11746.1 360.239   3
  -2  13   7 11330.7 289.411   6
   2 -13  -7 11816.8 387.671   5
   2  13  -7 11850.2 384.798   6
   2 -13  -7 12148.2 293.889   6
  -1 -13   7 18892.8 450.502   2
   1 -13  -7 19050.2 506.720   5
   1  13  -7 18855.1 505.831   6
   1 -13  -7 19322.5 407.653   6
   0 -13  -7 466.927 78.4833   6
   0 -13   7 608.489 90.4741   2
   0 -13  -7 572.576 126.902   5
   0  13  -7 428.740 105.197   6
  -1 -13  -7 21644.2 479.188   6
   1 -13   7 22439.3 456.156   2
  -1  13  -7 22383.6 558.601   6
  -2 -13  -7 48552.2 862.869   6
   2 -13   7 49837.7 765.854   2
  -2  13  -7 49266.4 944.148   6
  -3  13  -7 842.463 141.730   6
  -3 -13  -7 625.521 108.724   6
  -4 -13  -7 8418.17 333.184   6
  -4  13  -7 8570.70 349.685   6
  -5 -13  -7 4511.40 266.416   6
  -5  13  -7 4007.20 253.127   6
  -6  13  -7 293.674 126.252   6
  -6 -13  -7 279.051 125.156   6
  -7  13  -7 9497.55 408.962   6
  -7 -13  -7 8983.33 418.372   6
  -8  13  -7 5455.47 325.283   6
  -8 -13  -7 4247.39 308.373   6
  -9  13  -7 2034.38 220.835   6
  -9 -13  -7 1644.20 225.645   6
  11 -14  -7 173.894 142.221   3
  11  14  -7 328.233 150.416   6
  10 -14  -7 751.151 185.826   3
  10  14  -7 878.300 170.064   6
   9 -14  -7 86.7494 134.143   3
   9  14  -7 269.124 139.871   6
   8 -14  -7 396.480 134.741   3
   8  14  -7 500.609 131.185   6
   7 -14  -7 396.897 140.094   3
   7 -14  -7 397.733 68.1977   6
   7  14  -7 297.672 116.493   6
   6 -14  -7 4505.10 263.608   3
   6 -14  -7 4846.11 163.760   6
   6  14  -7 4913.89 269.365   6
   5 -14  -7 188.354 105.286   3
   5 -14  -7 44.8473 45.9496   6
   5  14  -7 97.8580 91.2545   6
   4 -14  -7 1397.25 159.056   3
   4 -14  -7 1051.08 78.9925   6
   4  14  -7 1094.43 142.934   6
   3 -14  -7 329.898 103.810   3
  -3  14   7 361.294 61.8066   6
   3 -14  -7 680.038 131.089   5
   3  14  -7 264.051 100.910   6
   3 -14  -7 449.447 60.0118   6
  -2  14   7-55.7841 57.6981   6
   2 -14  -7 114.971 106.378   5
   2  14  -7 18.9745 88.0422   6
   2 -14  -7 34.8465 48.5640   6
   1 -14  -7 367.909 75.5626   6
  -1 -14   7 342.356 92.2573   2
   1 -14  -7 449.610 122.672   5
   1  14  -7 317.632 107.330   6
   1 -14  -7 589.263 78.8175   6
   0 -14  -7 313.017 71.8720   6
   0 -14  -7 110.302 110.997   5
   0 -14   7 317.780 81.8560   2
   0  14  -7 256.195 98.3817   6
  -1 -14  -7 495.827 91.1816   6
  -1 -14  -7 114.848 111.199   5
   1 -14   7 379.497 87.3308   2
  -1  14  -7 376.274 111.005   6
   2 -14   7 1243.87 101.900   2
  -2 -14  -7 751.403 111.481   6
  -2  14  -7 849.399 136.715   6
  -3 -14  -7 37.5698 81.4009   6
  -3  14  -7-99.8626 93.2259   6
  -4 -14  -7 2282.17 181.869   6
  -4  14  -7 2345.78 205.958   6
  -5  14  -7 124.516 116.963   6
  -5 -14  -7 160.520 104.409   6
  -6  14  -7 45.5501 110.053   6
  -6 -14  -7 147.219 114.395   6
  -7  14  -7 3095.34 245.528   6
  -7 -14  -7 2760.04 253.840   6
  -8  14  -7 508.911 149.250   6
  -8 -14  -7 329.996 142.417   6
  -9  14  -7 2554.05 249.703   6
  -9 -14  -7 2309.54 253.630   6
  11 -15  -7 838.687 192.034   3
  11  15  -7 1070.76 195.681   6
  10 -15  -7 8813.18 422.015   3
  10  15  -7 7766.97 398.101   6
   9 -15  -7 12532.1 486.886   3
   9  15  -7 11792.7 472.476   6
   8 -15  -7-38.3961 135.900   3
   8  15  -7 171.865 119.967   6
   7 -15  -7 11561.9 437.234   3
   7  15  -7 11456.9 425.736   6
   6 -15  -7 17496.0 528.553   3
   6  15  -7 17394.9 521.045   6
   5 -15  -7 9367.60 368.543   3
   5 -15  -7 8746.85 209.809   6
   5  15  -7 9473.41 363.449   6
   4 -15  -7 18636.7 510.395   3
   4 -15  -7 17713.4 331.636   6
   4  15  -7 17294.0 496.193   6
   3 -15  -7 5705.65 266.901   3
   3 -15  -7 5457.95 267.714   5
   3 -15  -7 5276.10 162.477   6
   3  15  -7 5523.74 269.778   6
  -2 -15   7 13234.3 395.974   2
   2 -15  -7 13250.5 423.792   5
   2  15  -7 13255.7 420.207   6
   2 -15  -7 13485.1 301.401   6
  -1 -15   7 31497.7 645.341   2
   1 -15  -7 31074.8 713.502   5
   1  15  -7 32450.8 709.403   6
   1 -15  -7 32491.7 566.737   6
   0 -15   7 7910.90 276.394   2
   0 -15  -7 7832.86 335.321   5
   0  15  -7 8359.56 327.533   6
   0 -15  -7 8186.37 252.765   6
  -1 -15  -7 25333.0 523.010   6
  -1 -15  -7 25829.6 654.313   5
   1 -15   7 25997.4 527.447   2
  -1  15  -7 26137.4 621.009   6
  -2 -15  -7 29969.0 613.289   6
   2 -15   7 29820.0 550.759   2
  -2  15  -7 30925.0 700.497   6
  -3 -15  -7 1688.20 153.233   6
  -3  15  -7 1646.96 167.245   6
  -4 -15  -7 13001.1 420.858   6
  -4  15  -7 13002.1 444.232   6
  -5 -15  -7 6921.05 325.218   6
  -5  15  -7 7114.39 332.058   6
  -6  15  -7 379.295 138.381   6
  -6 -15  -7 457.494 146.463   6
  -7  15  -7 20695.4 619.676   6
  -7 -15  -7 18989.3 620.789   6
  -8  15  -7 218.587 135.892   6
  -8 -15  -7 160.363 130.947   6
  11 -16  -7 5280.24 354.066   3
  11  16  -7 5841.23 369.977   6
  10 -16  -7 4348.19 312.684   3
  10  16  -7 4648.75 321.507   6
   9 -16  -7 3772.34 288.889   3
   9  16  -7 3833.69 280.604   6
   8 -16  -7 19075.4 594.585   3
   8  16  -7 18873.1 588.789   6
   7 -16  -7 3390.48 249.511   3
   7  16  -7 3634.68 255.456   6
   6 -16  -7 10169.4 401.980   3
   6  16  -7 9647.96 387.597   6
   5 -16  -7 22037.1 594.194   3
   5  16  -7 22367.2 590.923   6
   4 -16  -7 147.491 112.232   3
   4  16  -7-74.6504 98.5393   6
  -3 -16   7 10236.5 362.404   2
   3 -16  -7 10723.2 382.144   5
   3 -16  -7 9989.60 224.105   6
   3  16  -7 9971.77 368.090   6
  -2 -16   7 7217.39 294.806   2
   2 -16  -7 7156.99 320.192   5
   2  16  -7 7276.42 312.505   6
   2 -16  -7 7441.18 203.649   6
   1 -16  -7 16.3770 117.492   5
  -1 -16   7 88.0227 83.7731   2
   1  16  -7-57.5704 107.658   6
   1 -16  -7 88.1536 56.0382   6
   0 -16  -7 13165.8 445.820   5
   0 -16   7 13642.7 379.872   2
   0  16  -7 13874.8 437.560   6
   0 -16  -7 14525.9 344.671   6
  -1 -16  -7 13685.6 353.211   6
  -1 -16  -7 12802.5 448.693   5
   1 -16   7 13254.5 358.168   2
  -1  16  -7 14328.0 444.290   6
  -2 -16  -7 2176.99 150.394   6
  -2 -16  -7 2005.99 203.170   5
  -2  16  -7 2375.33 189.973   6
   2 -16   7 2533.16 142.569   2
  -3 -16  -7 22359.7 538.908   6
  -3  16  -7 22909.7 598.185   6
  -4 -16  -7 3612.92 223.711   6
  -4  16  -7 3755.81 242.278   6
  -5 -16  -7 7172.41 331.407   6
  -5  16  -7 7304.03 347.754   6
  -6 -16  -7 20106.0 606.840   6
  -6  16  -7 20396.8 603.320   6
  -7  16  -7 598.081 154.901   6
  -7 -16  -7 512.969 154.393   6
  -8 -16  -7 4613.60 329.010   6
  -8  16  -7 4628.53 309.716   6
  11  17  -7 210.576 143.063   6
  10 -17  -7 969.969 191.576   3
  10  17  -7 804.975 186.074   6
   9 -17  -7 1892.19 224.316   3
   9  17  -7 1681.21 206.653   6
   8 -17  -7 377.498 150.242   3
   8  17  -7 657.126 155.512   6
   7 -17  -7 202.072 136.456   3
   7  17  -7 74.4935 113.029   6
   6 -17  -7 274.622 128.729   3
   6  17  -7 357.040 122.827   6
   5 -17  -7 236.711 123.067   3
   5  17  -7 253.249 110.275   6
  -4 -17   7 9384.94 367.240   2
   4  17  -7 9430.87 372.029   6
  -3 -17   7 1029.67 141.637   2
   3 -17  -7 1019.41 151.633   5
   3  17  -7 1066.95 144.673   6
   2 -17  -7 336.540 118.104   5
  -2 -17   7 224.270 92.7730   2
   2  17  -7 552.575 119.090   6
   2 -17  -7 386.535 55.3846   6
   1 -17  -7 1397.15 173.545   5
  -1 -17   7 1267.86 136.402   2
   1  17  -7 1348.74 152.326   6
   1 -17  -7 1210.80 89.9009   6
   0 -17  -7-10.0581 52.4636   6
   0 -17  -7-186.581 126.274   5
   0 -17   7-7.29578 83.2836   2
   0  17  -7 60.1624 100.256   6
  -1 -17  -7 7338.64 249.027   6
  -1 -17  -7 7781.45 354.889   5
   1 -17   7 7616.50 273.101   2
  -1  17  -7 7712.82 322.934   6
  -2 -17  -7 3074.80 173.474   6
  -2 -17  -7 2810.60 234.988   5
  -2  17  -7 3168.52 214.114   6
   2 -17   7 3067.06 163.260   2
  -3 -17  -7 0.92160 79.8498   6
  -3 -17  -7-64.5535 137.028   5
  -3  17  -7 84.3530 96.4154   6
  -4 -17  -7 1401.28 147.915   6
  -4  17  -7 1186.41 163.376   6
  -5 -17  -7 5407.83 287.451   6
  -5  17  -7 5154.39 293.213   6
  -6  17  -7 143.586 124.713   6
  -6 -17  -7 162.077 122.120   6
  -7  17  -7 230.354 133.488   6
  -7 -17  -7 174.951 125.672   6
  -8  17  -7 1618.37 200.012   6
  -8 -17  -7 1644.87 226.208   6
  10 -18  -7 1960.50 238.775   3
  10  18  -7 1480.52 210.739   6
   9 -18  -7 2396.13 251.445   3
   9  18  -7 2470.71 247.203   6
   8 -18  -7 4444.33 301.441   3
   8  18  -7 3795.62 276.094   6
   7 -18  -7 415.941 152.099   3
   7  18  -7 129.011 118.766   6
   6 -18  -7 4756.46 295.981   3
  -6 -18   7 3846.77 259.446   2
   6  18  -7 4635.94 284.396   6
  -5 -18   7 1023.94 154.756   2
   5  18  -7 943.304 151.072   6
  -4 -18   7 1155.40 159.294   2
   4  18  -7 1248.67 170.718   6
  -3 -18   7 2716.68 204.999   2
   3  18  -7 2480.70 199.904   6
   2 -18  -7 6608.54 318.446   5
  -2 -18   7 7122.91 301.071   2
   2  18  -7 6681.62 306.627   6
   1 -18  -7 656.693 153.920   5
  -1 -18   7 490.178 108.777   2
   1  18  -7 681.921 124.243   6
   0 -18  -7 12261.9 447.280   5
   0 -18   7 11899.8 368.454   2
   0  18  -7 12601.1 419.300   6
   0 -18  -7 12451.6 307.013   6
  -1 -18  -7 15303.8 373.070   6
  -1 -18  -7 15020.0 502.839   5
   1 -18   7 15824.7 413.925   2
  -1  18  -7 15720.3 479.758   6
  -2 -18  -7 1771.94 136.357   6
   2 -18   7 1508.39 128.345   2
  -2 -18  -7 1456.78 193.503   5
  -2  18  -7 1772.24 172.240   6
  -3 -18  -7 12492.6 380.143   6
  -3 -18  -7 12190.3 473.663   5
  -3  18  -7 12421.0 433.282   6
  -4 -18  -7 2749.16 197.206   6
  -4 -18  -7 2878.40 254.530   5
  -4  18  -7 2925.92 224.507   6
  -5 -18  -7 873.988 143.866   6
  -5 -18  -7 650.587 174.219   5
  -5  18  -7 537.271 130.484   6
  -6 -18  -7 6130.10 328.771   6
  -6  18  -7 6559.56 336.865   6
  -7  18  -7 1385.00 187.115   6
  -7 -18  -7 1657.30 210.987   6
  -8 -18  -7 2890.47 264.866   6
  -8  18  -7 4178.32 298.949   6
  10 -19  -7 4713.61 338.394   3
 -10 -19   7 4498.38 336.030   2
  10  19  -7 4908.47 334.664   6
   9 -19  -7 9019.43 437.610   3
  -9 -19   7 8619.57 424.323   2
   9  19  -7 8074.06 407.191   6
   8 -19  -7 164.045 153.732   3
  -8 -19   7-3.02316 129.157   2
   8  19  -7 304.371 141.136   6
   7 -19  -7 10509.8 445.563   3
  -7 -19   7 10324.4 438.022   2
   7  19  -7 10539.4 433.344   6
  -6 -19   7 13427.5 493.014   2
   6  19  -7 13964.8 487.968   6
  -5 -19   7 42.2768 115.741   2
   5  19  -7 172.192 114.696   6
  -4 -19   7 27816.2 695.660   2
   4  19  -7 29549.5 708.682   6
  -3 -19   7 4205.51 248.801   2
   3  19  -7 4083.50 249.788   6
   2 -19  -7 7183.24 341.107   5
  -2 -19   7 7062.56 307.193   2
   2  19  -7 7286.76 323.954   6
   1 -19  -7 29789.5 738.496   5
  -1 -19   7 30044.3 670.787   2
   1  19  -7 30856.5 712.412   6
   0 -19  -7 4693.89 293.104   5
   0 -19   7 4296.33 226.591   2
   0  19  -7 4424.26 253.555   6
  -1 -19  -7 14532.1 506.835   5
   1 -19   7 15298.4 414.021   2
  -1  19  -7 15219.8 475.282   6
   2 -19   7 26151.6 551.515   2
  -2 -19  -7 25516.0 544.823   6
  -2 -19  -7 26462.3 713.894   5
  -2  19  -7 25549.5 648.654   6
  -3 -19  -7 367.997 92.3584   6
  -3 -19  -7 626.181 173.760   5
  -3  19  -7 669.772 137.673   6
  -4 -19  -7 39298.7 806.855   6
  -4 -19  -7 39535.5 943.248   5
  -4  19  -7 39564.9 871.424   6
  -5 -19  -7 13941.2 461.238   6
  -5 -19  -7 13976.4 538.899   5
  -5  19  -7 13611.8 480.270   6
  -6 -19  -7 101.701 113.694   6
  -6 -19  -7 123.031 150.171   5
  -6  19  -7 18.7813 118.339   6
  -7 -19  -7 7285.40 378.194   6
  -7  19  -7 7649.42 377.494   6
  -8 -19  -7 6457.94 378.518   6
  -8  19  -7 6932.82 371.375   6
  10  20  -7 2275.22 257.722   6
   9 -20  -7 1162.60 204.815   3
  -9 -20   7 1490.42 219.140   2
   9  20  -7 1326.14 198.602   6
   8 -20  -7 7882.71 409.483   3
  -8 -20   7 8055.21 409.518   2
   8  20  -7 7583.57 389.598   6
  -7 -20   7 159.063 139.974   2
   7  20  -7 61.8799 128.427   6
  -6 -20   7 1896.93 206.479   2
   6  20  -7 1501.23 190.621   6
  -5 -20   7 11836.2 449.325   2
   5  20  -7 12005.2 442.166   6
  -4 -20   7 1485.65 185.037   2
   4  20  -7 1000.48 152.334   6
  -3 -20   7 4615.16 264.212   2
   3  20  -7 4395.44 265.094   6
   2 -20  -7 3295.58 252.459   5
  -2 -20   7 3373.66 225.236   2
   2  20  -7 3351.17 231.134   6
   1 -20  -7 149.763 137.272   5
  -1 -20   7 254.095 110.816   2
   1  20  -7 77.5055 99.3384   6
   0 -20  -7 6243.54 336.232   5
   0 -20   7 6448.24 281.866   2
   0  20  -7 6605.73 309.137   6
  -1 -20  -7 2131.87 221.765   5
  -1  20  -7 2465.86 200.837   6
   1 -20   7 2410.89 173.010   2
  -2 -20  -7 1365.18 196.439   5
  -2  20  -7 1471.51 171.695   6
  -3 -20  -7 11271.0 469.675   5
  -3  20  -7 10429.8 399.394   6
  -4 -20  -7 1403.73 211.206   5
  -4  20  -7 1349.95 172.901   6
  -5 -20  -7 2413.96 196.269   6
  -5 -20  -7 1998.19 236.100   5
  -5  20  -7 1810.72 202.537   6
  -6 -20  -7 5791.08 316.532   6
  -6  20  -7 5340.70 308.857   6
  -7 -20  -7 1932.60 217.923   6
  -7  20  -7 1942.65 212.430   6
  -9 -21   7 115.864 154.497   2
   9  21  -7-193.456 146.761   6
  -8 -21   7 248.468 153.965   2
   8  21  -7 212.389 155.856   6
  -7 -21   7 3174.25 261.380   2
   7  21  -7 2962.43 256.243   6
  -6 -21   7 2302.41 228.904   2
   6  21  -7 2088.58 218.175   6
  -5 -21   7-52.4278 125.917   2
   5  21  -7 211.914 140.296   6
  -4 -21   7 615.309 148.476   2
   4  21  -7 683.864 140.749   6
  -3 -21   7 1067.65 160.189   2
   3  21  -7 1078.95 160.394   6
  -2 -21   7 164.640 115.141   2
   2  21  -7 143.828 100.123   6
   1 -21  -7 716.866 158.105   5
   1  21  -7 744.647 138.625   6
  -1 -21   7 924.674 140.691   2
   0 -21   7 656.975 124.244   2
   0 -21  -7 792.448 175.373   5
   0  21  -7 789.391 138.998   6
   1 -21   7 991.304 131.918   2
  -1 -21  -7 682.983 166.037   5
  -1  21  -7 808.770 142.579   6
  -2 -21  -7 50.4506 134.794   5
  -2  21  -7-70.0513 124.979   6
  -3 -21  -7 2167.44 240.606   5
  -3  21  -7 2001.79 194.364   6
  -4 -21  -7 1399.24 219.908   5
  -4  21  -7 948.038 159.702   6
  -5 -21  -7 701.842 174.707   5
  -5  21  -7 377.612 130.287   6
  -6  21  -7-0.54611 121.092   6
   7  21   7-26.1006 152.145   1
  -7  21  -7 344.447 133.699   6
   9  22  -7 1414.67 212.392   6
  -8 -22   7 10162.4 469.769   2
   8  22  -7 9591.23 442.150   6
  -7 -22   7 26.9676 136.200   2
   7  22  -7-38.1473 133.637   6
  -6 -22   7 3601.32 280.317   2
   6  22  -7 3804.72 273.502   6
  -5 -22   7 15055.5 527.148   2
   5  22  -7 15208.3 513.873   6
  -4 -22   7 75.7936 122.094   2
   4  22  -7 364.919 129.676   6
  -3 -22   7 7033.85 339.720   2
   3  22  -7 6725.53 333.777   6
  -2 -22   7 6828.84 325.176   2
   2  22  -7 7539.02 343.510   6
   1 -22  -7 414.306 152.525   5
   1  22  -7 311.153 111.561   6
  -1 -22   7 98.8750 103.186   2
   0 -22  -7 18203.1 596.078   5
   0  22  -7 19017.8 550.113   6
   0 -22   7 18453.1 515.112   2
  -1 -22  -7 6287.61 356.321   5
  -1  22  -7 6316.72 310.960   6
   1 -22   7 6053.16 276.329   2
  -2 -22  -7 4145.57 305.369   5
  -2  22  -7 4278.47 262.038   6
  -3 -22  -7 21055.1 670.655   5
  -3  22  -7 21072.8 596.817   6
  -4 -22  -7 6643.46 387.821   5
  -4  22  -7 6932.09 337.423   6
  -5  22  -7 7514.54 359.751   6
   6  22   7 8903.24 462.112   1
  -6  22  -7 9105.35 405.117   6
   8  23  -7 738.660 184.499   6
  -7 -23   7 4829.08 328.143   2
   7  23  -7 3961.38 285.622   6
  -6 -23   7 5309.62 333.313   2
   6  23  -7 5179.07 321.403   6
  -5 -23   7 983.961 184.339   2
   5  23  -7 1156.62 182.148   6
  -4 -23   7 12250.4 471.561   2
   4  23  -7 12177.3 456.160   6
  -3 -23   7 5874.08 319.460   2
   3  23  -7 5940.07 318.769   6
  -2 -23   7 4693.68 281.846   2
   2  23  -7 4754.96 283.300   6
   1 -23  -7 16346.2 569.195   5
  -1 -23   7 15914.9 503.499   2
   1  23  -7 16959.7 522.490   6
   0 -23   7 25.0764 104.433   2
   0 -23  -7 181.185 153.583   5
   0  23  -7 55.9759 115.865   6
   1 -23   7 10566.2 373.335   2
  -1 -23  -7 10011.0 455.291   5
  -1  23  -7 10418.7 406.616   6
  -2 -23  -7 9975.29 456.493   5
  -2  23  -7 9587.27 391.648   6
  -3 -23  -7 224.152 146.154   5
  -3  23  -7 234.523 119.514   6
  -4 -23  -7 10242.7 478.172   5
  -4  23  -7 10135.0 415.090   6
  -5  23  -7 4755.01 293.135   6
   6  23   7 1090.77 205.525   1
  -9  24   7 94.9215 161.541   1
   8  24  -7 199.713 152.023   6
   7  24  -7 876.584 180.707   6
  -7 -24   7 1230.55 204.186   2
   6  24  -7 1637.59 201.802   6
  -6 -24   7 1397.46 202.877   2
   5  24  -7 267.435 131.168   6
  -5 -24   7 269.707 143.718   2
   4  24  -7 289.860 134.598   6
  -4 -24   7 152.179 144.806   2
   3  24  -7 1062.37 160.542   6
  -3 -24   7 767.546 153.322   2
   2  24  -7 1510.97 179.590   6
  -2 -24   7 1182.82 173.294   2
  -1 -24   7 1160.04 166.788   2
   1  24  -7 781.838 148.484   6
   0 -24   7 874.621 147.460   2
   0 -24  -7 1226.34 199.747   5
   0  24  -7 757.024 138.873   6
  -1 -24  -7 694.417 174.542   5
  -1  24  -7 798.622 150.732   6
  -2 -24  -7 127.373 150.524   5
  -2  24  -7 22.6041 116.010   6
  -3 -24  -7-81.2155 152.763   5
  -3  24  -7-141.934 134.997   6
  -4  24  -7 166.866 126.942   6
  -8  25   7 815.569 194.047   1
   7  25  -7 3772.67 292.785   6
   6  25  -7 2495.69 249.939   6
  -6 -25   7 2346.35 247.313   2
   5  25  -7 108.523 128.695   6
  -5 -25   7-284.963 153.433   2
  -4 -25   7 5059.10 319.828   2
   4  25  -7 5178.38 308.057   6
   3  25  -7 1441.59 185.581   6
  -3 -25   7 1274.39 188.966   2
   2  25  -7 2847.19 237.598   6
  -2 -25   7 2251.50 220.965   2
   1  25  -7 3037.46 238.380   6
  -1 -25   7 3103.50 237.515   2
   0 -25   7 1413.70 174.844   2
   0 -25  -7 1562.45 225.978   5
   0  25  -7 1838.62 192.560   6
  -1 -25  -7 8052.51 423.993   5
  -1  25  -7 8300.28 370.482   6
  -2 -25  -7 7555.77 429.234   5
  -2  25  -7 6933.22 338.629   6
  -3  25  -7-76.3734 124.705   6
   7  26  -7 2116.21 239.555   6
   6  26  -7 5480.45 339.193   6
  -5 -26   7 8132.03 417.061   2
   5  26  -7 7495.60 384.827   6
   4  26  -7 83.3332 129.071   6
  -4 -26   7 50.9888 137.799   2
   3  26  -7 8920.80 402.269   6
  -3 -26   7 8689.05 412.152   2
   2  26  -7 15960.7 526.714   6
  -2 -26   7 14177.7 517.535   2
  -1 -26   7-288.235 145.999   2
   1  26  -7-129.651 128.895   6
   0  26  -7 9652.60 403.576   6
   0 -26   7 9919.52 402.625   2
  -1  26  -7 13972.7 485.423   6
  -2  26  -7 1353.99 176.094   6
   6  27  -7 1096.09 188.682   6
   5  27  -7 431.390 153.146   6
   4  27  -7 1436.82 194.181   6
  -4 -27   7 1441.94 204.928   2
   3  27  -7 1719.05 203.030   6
  -3 -27   7 1322.65 202.682   2
  -2 -27   7 1963.46 226.002   2
   2  27  -7 2816.27 237.158   6
   1  27  -7 6756.70 346.285   6
  -1 -27   7 6652.07 352.469   2
   0  27  -7 1674.33 198.508   6
   6  28  -7 436.217 163.914   6
   5  28  -7 263.195 150.330   6
   4  28  -7 100.059 138.838   6
  -3 -28   7 191.039 146.996   2
   3  28  -7-52.0300 128.569   6
  -2 -28   7 648.192 166.851   2
   2  28  -7 770.500 161.790   6
  -1 -28   7-124.731 129.581   2
  -2 -29   7 10282.7 459.376   2
  -1 -29   7 11522.8 476.962   2
  14   0  -8 2148.85 247.276   6
  13   0  -8 3452.11 283.283   6
  12   0  -8 15815.5 556.995   6
  11   0  -8 130.801 131.814   6
  10   0  -8 19183.7 561.919   6
   9   0  -8 19208.2 538.567   6
   8   0  -8 594.739 120.404   6
   7   0  -8 28152.6 639.915   6
   6   0  -8 4962.62 246.181   6
   5   0  -8 7983.78 206.995   5
   5   0  -8 7618.56 292.285   6
   4   0  -8 79900.9 1266.29   6
   3   0  -8 3467.86 200.390   6
   2   0  -8 36136.1 715.303   6
   1   0  -8 90621.3 1399.34   6
   0   0  -8 19091.5 487.785   6
  -1   0  -8 93724.9 1461.53   6
  -2   0  -8 6941.52 291.227   6
  -2   0  -8 6015.95 127.729   3
   2   0   8 6424.00 186.289   2
  -3   0  -8 2715.44 196.158   6
  -4   0  -8 26691.1 662.924   6
  -5   0  -8 6827.43 331.936   6
  -6   0  -8 5193.88 305.782   6
  -7   0  -8 42463.1 979.223   6
  -8   0  -8 8221.54 415.787   6
  14  -1  -8 5098.81 350.392   6
  14   1  -8 6088.05 381.897   6
  13  -1  -8 3761.63 295.967   6
  13   1  -8 3642.75 292.975   6
  12  -1  -8 2749.09 240.987   6
  12   1  -8 2633.96 243.400   6
  11  -1  -8 4677.28 288.339   6
  11   1  -8 5082.69 299.347   6
  10  -1  -8 393.872 125.353   6
  10   1  -8 217.208 127.268   6
   9  -1  -8 2612.65 205.666   6
   9   1  -8 3136.18 222.995   6
   8  -1  -8 6781.49 295.787   6
   8   1  -8 6896.37 304.043   6
   7  -1  -8 3307.72 207.502   6
   7   1  -8 3424.45 211.591   6
   6  -1  -8 4505.88 227.433   6
   6   1  -8 4200.21 229.970   6
   5  -1  -8 11293.2 267.374   5
   5   1  -8 11769.6 251.082   5
   5  -1  -8 11370.8 357.810   6
   5   1  -8 11238.8 362.985   6
   4   1  -8 365.822 100.552   6
   4  -1  -8 334.698 104.563   6
   3   1  -8 40234.6 775.759   6
   3  -1  -8 41083.6 770.689   6
   2   1  -8 19058.0 481.159   6
   2  -1  -8 18157.8 464.898   6
   1   1  -8 3474.82 209.745   6
   1  -1  -8 3393.77 197.005   6
   0   1  -8 36514.9 735.013   6
   0  -1  -8 35159.2 718.946   6
   1   1   8 12173.5 301.120   2
  -1   1  -8 12818.3 395.656   6
  -1  -1  -8 11888.2 381.924   6
  -2   1  -8 507.475 115.523   6
  -2  -1  -8 485.934 110.045   6
   2   1   8 694.254 77.1135   2
   2  -1   8 556.309 64.1706   2
  -3   1  -8 27025.7 643.249   6
  -3  -1  -8 27247.1 643.856   6
  -4   1  -8 388.497 117.846   6
  -4  -1  -8 127.065 102.898   6
  -5   1  -8 1725.77 184.542   6
  -5  -1  -8 1247.24 166.077   6
  -6   1  -8 6685.33 341.934   6
  -6  -1  -8 6498.90 343.942   6
  -7   1  -8 962.689 172.662   6
  -7  -1  -8 1279.55 200.558   6
  -8   1  -8 6532.98 375.264   6
  -8  -1  -8 5656.89 350.893   6
  14  -2  -8 246.320 157.230   6
  13  -2  -8 294.628 148.311   6
  13   2  -8 405.868 160.133   6
  12  -2  -8 1018.67 169.050   6
  12   2  -8 1255.63 192.627   6
  11  -2  -8 639.520 160.028   6
  11   2  -8 398.522 137.646   6
  10  -2  -8 57.5222 103.315   6
  10   2  -8 114.554 109.721   6
   9  -2  -8 2852.96 210.234   6
   9   2  -8 3431.76 231.781   6
   8  -2  -8 464.486 111.110   6
   8   2  -8 399.216 121.668   6
   7  -2  -8 508.857 110.558   6
   7   2  -8 478.142 117.233   6
   6  -2  -8 1446.70 140.000   6
   6   2  -8 1454.83 153.797   6
   5  -2  -8 2526.12 128.723   5
   5   2  -8 2477.87 103.991   5
   5  -2  -8 2424.72 171.011   6
   5   2  -8 2650.59 184.606   6
   4  -2  -8 459.521 81.5466   5
   4   2  -8 560.944 107.438   6
   4  -2  -8 486.839 101.422   6
   3   2  -8 570.102 124.601   6
   3  -2  -8 726.519 122.149   6
   2   2  -8 6599.59 271.474   6
   2  -2  -8 5729.60 247.826   6
   1   2  -8 23043.4 545.640   6
   1  -2  -8 22818.7 529.712   6
   0   2  -8 21284.6 527.323   6
   0  -2  -8 20661.3 508.350   6
  -1  -2  -8 3063.06 116.591   3
   1   2   8 3045.12 148.050   2
  -1   2  -8 3367.50 208.036   6
  -1  -2  -8 3266.47 199.000   6
  -2   2  -8 28.9121 97.1462   6
  -2  -2  -8 168.313 96.0176   6
   2   2   8 61.7145 53.3538   2
   2  -2   8 69.6023 44.8247   2
  -3   2  -8 1093.44 142.994   6
  -3  -2  -8 1185.24 148.042   6
  -4   2  -8 1411.64 166.299   6
  -4  -2  -8 1348.13 153.760   6
  -5   2  -8 2080.70 192.155   6
  -5  -2  -8 1742.92 186.913   6
  -6   2  -8 2038.70 207.202   6
  -6  -2  -8 2361.23 225.202   6
  -7   2  -8 3554.16 267.088   6
  -7  -2  -8 3018.31 255.187   6
  -8   2  -8 2060.95 231.954   6
  -8  -2  -8 1694.35 214.995   6
  14  -3  -8 4629.81 320.347   6
  13  -3  -8 8839.72 418.551   6
  13   3  -8 9507.46 458.710   6
  12  -3  -8 2935.40 245.539   6
  12   3  -8 2974.80 266.039   6
  11  -3  -8 15477.0 514.135   6
  11   3  -8 15601.0 533.027   6
  10  -3  -8 3015.44 222.641   6
  10   3  -8 3079.93 242.816   6
   9  -3  -8 7341.64 312.654   6
   9   3  -8 6992.76 330.608   6
   8  -3  -8 12463.0 395.200   6
   8   3  -8 11384.3 405.639   6
   7  -3  -8 3269.97 204.606   6
   7   3  -8 3491.42 225.482   6
   6  -3  -8 4650.02 227.611   6
   6   3  -8 4298.39 237.636   6
   5  -3  -8 23337.2 448.345   5
   5   3  -8 23317.4 379.603   5
   5  -3  -8 22666.2 523.561   6
   5   3  -8 22267.4 547.476   6
   4  -3  -8 13880.4 334.932   5
   4   3  -8 12977.5 396.449   6
   4  -3  -8 13177.1 376.472   6
   3   3  -8 36240.5 736.192   6
   3  -3  -8 37547.9 714.387   6
   2   3  -8 41190.1 798.649   6
   2  -3  -8 42056.4 772.244   6
   1   3  -8 6.78960 96.6886   6
   1  -3  -8 166.242 80.6554   6
   0   3  -8 105233. 1594.92   6
   0  -3  -8 103469. 1559.35   6
  -1  -3  -8 28260.9 455.684   3
   1   3   8 27927.8 530.318   2
  -1   3  -8 28880.7 643.595   6
  -1  -3  -8 27351.2 613.071   6
  -2  -3  -8 10436.0 357.919   6
   2   3   8 10712.3 275.075   2
  -2   3  -8 10394.5 371.629   6
  -3   3  -8 14398.9 448.763   6
  -3  -3  -8 13920.2 438.183   6
  -4   3  -8 5523.61 286.829   6
  -4  -3  -8 5794.86 290.008   6
  -5   3  -8 5320.18 292.146   6
  -5  -3  -8 5580.68 304.264   6
  -6   3  -8 26389.1 705.553   6
  -6  -3  -8 26614.6 715.376   6
  -7   3  -8 2567.48 242.045   6
  -7  -3  -8 2544.66 233.897   6
  -8   3  -8 11350.1 483.689   6
  -8  -3  -8 11159.9 484.002   6
  14  -4  -8 503.454 158.882   6
  13  -4  -8 932.147 172.916   6
  13   4  -8 1119.53 206.113   6
  12  -4  -8 7158.20 356.722   6
  12   4  -8 7196.00 383.050   6
  11  -4  -8 700.677 157.554   6
  11   4  -8 1000.57 176.935   6
  10  -4  -8 11039.6 401.537   6
  10   4  -8 12027.1 447.353   6
   9  -4  -8 8614.59 337.090   6
   9   4  -8 9102.61 371.548   6
   8  -4  -8 458.322 105.767   6
   8   4  -8 299.384 118.366   6
   7  -4  -8 32397.0 672.519   6
   7   4  -8 32161.4 720.135   6
   6  -4  -8 6337.34 258.719   6
   6   4  -8 5901.83 279.456   6
   5  -4  -8 5744.18 202.105   5
   5  -4  -8 5720.56 240.636   6
   5   4  -8 5493.02 262.657   6
   4  -4  -8 56241.6 888.096   5
   4   4  -8 55255.5 986.556   6
   4  -4  -8 56088.2 946.480   6
   3   4  -8 25191.9 585.683   6
   3  -4  -8 25989.9 558.767   6
   2   4  -8 3260.46 200.298   6
   2  -4  -8 3831.27 199.265   6
   1   4  -8 24700.4 583.780   6
   1  -4  -8 25582.7 558.336   6
   0  -4  -8 2961.05 136.899   3
   0   4  -8 3072.67 198.273   6
   0  -4  -8 2687.61 175.799   6
  -1  -4  -8 48263.1 890.564   6
  -1  -4  -8 50078.8 709.116   3
   1   4   8 46819.2 792.111   2
  -1   4  -8 48513.9 918.112   6
   2   4   8 39816.8 679.539   2
  -2  -4  -8 42164.6 811.566   6
  -2   4  -8 41783.6 836.375   6
  -3   4  -8 200.939 103.412   6
  -3  -4  -8 228.247 96.7209   6
  -4   4  -8 25472.7 648.039   6
  -4  -4  -8 24728.1 636.812   6
  -5   4  -8 19473.7 572.542   6
  -5  -4  -8 19715.7 581.782   6
  -6   4  -8 6513.20 335.648   6
  -6  -4  -8 6388.00 345.091   6
  -7   4  -8 17545.0 587.684   6
  -7  -4  -8 17910.4 601.532   6
  -8   4  -8 6925.89 379.510   6
  -8  -4  -8 6754.51 385.531   6
  14  -5  -8 1266.21 201.889   6
  13  -5  -8 630.887 164.964   6
  13   5  -8 847.375 185.235   6
  12  -5  -8 662.879 152.729   6
  12   5  -8 652.719 178.232   6
  11  -5  -8-199.655 114.897   6
  11   5  -8-64.3000 124.013   6
  10  -5  -8 203.009 112.370   6
  10   5  -8 271.136 143.625   6
   9  -5  -8 4330.72 242.114   6
   9   5  -8 4192.27 267.785   6
   8  -5  -8 978.939 125.200   6
   8   5  -8 1025.15 147.784   6
   7  -5  -8 336.621 100.789   6
   7   5  -8 303.763 123.952   6
   6  -5  -8 1118.64 127.910   6
   6   5  -8 1163.15 148.429   6
   5  -5  -8 3749.98 172.742   5
   5  -5  -8 4164.53 201.978   6
   5   5  -8 3530.71 216.067   6
   4  -5  -8 10986.1 311.064   5
   4   5  -8 11597.1 377.115   6
   4  -5  -8 11032.3 334.550   6
   3   5  -8 1326.64 146.683   6
   3  -5  -8 1275.65 128.970   6
   2   5  -8 7403.68 300.104   6
   2  -5  -8 7448.96 273.259   6
   1  -5  -8 1815.43 150.988   6
   1   5  -8 1717.21 160.880   6
   1  -5  -8 2026.72 129.783   3
   0  -5  -8 381.499 96.8046   6
   0  -5  -8 455.268 71.4259   3
   0   5  -8 225.680 96.2961   6
  -1   5  -8 329.457 109.666   6
  -1  -5  -8 214.872 93.9620   6
  -1  -5  -8 64.3188 49.5139   3
  -2   5  -8 166.599 102.368   6
  -2  -5  -8 185.895 97.4363   6
   2   5   8 114.812 71.8900   2
  -3   5  -8 14064.8 450.839   6
  -3  -5  -8 13386.1 424.340   6
  -4   5  -8 914.156 140.562   6
  -4  -5  -8 622.867 133.287   6
  -5   5  -8 201.033 125.263   6
  -5  -5  -8 63.3293 106.494   6
  -6   5  -8 1814.85 191.044   6
  -6  -5  -8 1734.43 202.340   6
  -7   5  -8 370.756 142.775   6
  -7  -5  -8 560.529 170.931   6
  -8   5  -8-3.37229 125.543   6
  -8  -5  -8 73.0780 135.512   6
  13  -6  -8 1885.04 210.319   6
  13   6  -8 2303.73 260.319   6
  12  -6  -8 4544.28 283.402   6
  12   6  -8 4648.43 320.699   6
  11  -6  -8-128.957 107.616   6
  11   6  -8 146.732 144.373   6
  10  -6  -8 5488.92 278.816   6
  10   6  -8 5461.88 313.812   6
   9  -6  -8 6721.59 289.608   6
   9   6  -8 7335.40 347.655   6
   8  -6  -8 763.968 119.931   6
   8   6  -8 390.261 127.535   6
   7  -6  -8 20019.0 486.256   6
   7   6  -8 20251.9 550.275   6
   6  -6  -8 12101.7 354.214   6
   6   6  -8 11744.6 403.994   6
   5  -6  -8 7754.83 254.810   5
   5  -6  -8 7725.75 274.407   6
   5   6  -8 7552.09 311.230   6
   4  -6  -8 22343.5 486.657   5
   4   6  -8 22750.4 560.972   6
   4  -6  -8 22962.5 504.194   6
   3  -6  -8 19357.5 451.130   5
   3   6  -8 17975.6 489.703   6
   3  -6  -8 18797.4 448.876   6
   2   6  -8 12700.7 398.315   6
   2  -6  -8 13055.2 363.411   6
   2  -6  -8 12454.8 341.718   3
   1  -6  -8 38152.8 660.460   3
   1   6  -8 36763.6 758.676   6
   1  -6  -8 36966.9 708.430   6
   0  -6  -8 63.0830 80.0713   6
   0  -6  -8-15.1585 60.8488   3
   0   6  -8 10.0219 92.5884   6
  -1  -6  -8 18817.2 481.969   6
  -1   6  -8 19499.4 520.866   6
  -2  -6  -8 35084.9 722.803   6
  -2   6  -8 34982.2 762.621   6
  -3   6  -8 735.278 136.319   6
  -3  -6  -8 605.523 124.122   6
  -4   6  -8 7613.85 337.161   6
  -4  -6  -8 7318.29 329.382   6
  -5   6  -8 8081.98 361.443   6
  -5  -6  -8 8511.75 373.052   6
  -6   6  -8 3394.97 260.904   6
  -6  -6  -8 3556.97 264.479   6
  -7   6  -8 11878.2 475.466   6
  -7  -6  -8 13110.4 512.194   6
  -8   6  -8 3161.62 269.182   6
  -8  -6  -8 2736.92 263.478   6
  13  -7  -8 4473.64 292.343   6
  13   7  -8 5559.59 370.606   6
  12  -7  -8 950.169 156.161   6
  12   7  -8 1255.66 199.104   6
  11  -7  -8 10507.3 398.554   6
  11   7  -8 10689.9 452.293   6
  10  -7  -8 5106.34 265.238   6
  10   7  -8 5226.27 305.403   6
   9  -7  -8 13994.8 417.096   6
   9   7  -8 13468.4 478.562   6
   8  -7  -8 20400.5 503.118   6
   8   7  -8 20608.5 578.427   6
   7  -7  -8 269.558 95.2590   6
   7   7  -8 242.365 120.750   6
   6  -7  -8 25357.8 544.777   6
   6   7  -8 24660.3 619.842   6
   5  -7  -8 45310.6 781.667   5
   5  -7  -8 45081.9 794.336   6
   5   7  -8 45540.9 882.663   6
   4  -7  -8 878.449 115.355   5
   4   7  -8 1007.60 136.744   6
   4  -7  -8 798.991 105.682   6
   3  -7  -8 23473.9 517.452   5
   3   7  -8 23117.5 564.870   6
   3  -7  -8 22943.5 503.886   6
   3  -7  -8 22458.8 516.111   3
   2  -7  -8 37987.3 696.866   3
   2   7  -8 38244.6 778.670   6
   2  -7  -8 37974.1 706.182   6
   1  -7  -8 26062.7 514.353   3
   1   7  -8 25879.9 607.668   6
   1  -7  -8 25809.4 552.640   6
   0  -7  -8 17428.8 370.770   3
   0   7  -8 16429.4 473.736   6
   0  -7  -8 16508.0 431.037   6
  -1  -7  -8 3692.43 205.520   6
  -1   7  -8 3575.86 225.123   6
  -2  -7  -8 20950.7 527.394   6
   2  -7   8 21047.1 366.524   2
  -2   7  -8 22094.0 572.029   6
  -3  -7  -8 59367.3 1067.94   6
  -3   7  -8 59081.6 1100.10   6
  -4   7  -8 7447.56 338.113   6
  -4  -7  -8 7725.51 339.843   6
  -5   7  -8 4277.01 268.620   6
  -5  -7  -8 4521.20 278.271   6
  -6   7  -8 20636.7 614.093   6
  -6  -7  -8 21640.4 640.776   6
  -7   7  -8 1101.89 169.495   6
  -7  -7  -8 1371.29 198.479   6
  -8   7  -8 11143.6 473.213   6
  -8  -7  -8 10861.2 487.530   6
  12  -8  -8 2449.09 263.552   3
  12  -8  -8 2424.24 208.836   6
  12   8  -8 2864.14 264.233   6
  11  -8  -8-78.4440 99.6870   6
  11   8  -8 434.091 153.534   6
  10  -8  -8 2275.81 189.806   6
  10   8  -8 2364.47 225.002   6
   9  -8  -8 5466.03 255.186   6
   9   8  -8 5366.68 302.474   6
   8  -8  -8 978.299 121.412   6
   8   8  -8 857.143 150.722   6
   7  -8  -8 15281.5 403.705   6
   7   8  -8 15236.7 477.359   6
   6  -8  -8 3288.68 179.843   6
   6   8  -8 3371.47 226.300   6
   5  -8  -8 2487.75 163.497   5
   5  -8  -8 2665.71 159.156   6
   5   8  -8 2863.13 207.105   6
   5  -8  -8 2515.31 193.588   3
   4  -8  -8 12111.5 351.436   5
   4   8  -8 11753.2 392.338   6
   4  -8  -8 12009.2 334.686   6
   4  -8  -8 11864.1 373.089   3
   3  -8  -8 8248.14 292.765   3
   3  -8  -8 7733.44 283.920   5
   3   8  -8 7884.20 315.668   6
   3  -8  -8 8062.54 273.102   6
   2  -8  -8 18236.9 438.069   3
   2   8  -8 18441.8 501.183   6
   2  -8  -8 18590.9 439.321   6
   1  -8  -8 1729.88 127.332   3
   1   8  -8 1774.93 166.803   6
   1  -8  -8 1828.47 143.033   6
   0  -8  -8 189.212 86.5365   6
   0  -8  -8 48.4700 59.7858   3
   0   8  -8 242.295 105.385   6
  -1  -8  -8 7682.74 289.826   6
  -1   8  -8 7499.48 314.769   6
  -2  -8  -8 13621.0 411.693   6
   2  -8   8 13857.0 275.881   2
  -2   8  -8 14598.4 457.625   6
  -3   8  -8 250.979 112.605   6
  -3  -8  -8 318.535 124.470   6
  -4   8  -8 18496.4 549.602   6
  -4  -8  -8 19580.9 549.616   6
  -5   8  -8 3194.11 238.443   6
  -5  -8  -8 2625.82 221.772   6
  -6   8  -8 2844.19 230.762   6
  -6  -8  -8 2761.67 244.204   6
  -7   8  -8 3524.85 264.588   6
  -7  -8  -8 3454.44 275.499   6
  -8   8  -8 3634.38 285.961   6
  -8  -8  -8 3287.21 285.638   6
  12  -9  -8 335.528 163.918   3
  12   9  -8 600.590 166.824   6
  11  -9  -8 2167.44 241.006   3
  11  -9  -8 2200.74 189.138   6
  11   9  -8 2843.24 259.802   6
  10  -9  -8 270.991 155.468   3
  10  -9  -8 132.015 101.051   6
  10   9  -8 166.599 132.346   6
   9  -9  -8 63.6665 133.551   3
   9  -9  -8 234.363 96.9639   6
   9   9  -8 195.791 120.293   6
   8  -9  -8 347.024 144.248   3
   8  -9  -8 362.009 92.4117   6
   8   9  -8 454.633 130.506   6
   7  -9  -8 323.416 135.164   3
   7  -9  -8 266.165 90.7875   6
   7   9  -8 347.725 139.256   6
   6  -9  -8 3774.88 187.698   6
   6   9  -8 3759.39 237.195   6
   6  -9  -8 3501.81 229.607   3
   5  -9  -8 5300.49 262.858   3
   5  -9  -8 5320.21 232.410   5
   5  -9  -8 5709.44 220.915   6
   5   9  -8 5191.15 268.428   6
   4  -9  -8 3355.41 207.071   3
   4  -9  -8 3636.80 203.056   5
   4   9  -8 3797.18 231.995   6
   4  -9  -8 3347.66 174.151   6
   3  -9  -8 1871.79 155.684   3
   3  -9  -8 2001.31 157.689   5
   3   9  -8 2185.44 184.151   6
   3  -9  -8 1995.60 140.362   6
   2  -9  -8 1196.86 125.666   3
   2  -9  -8 1033.38 136.406   5
   2   9  -8 1130.90 141.116   6
   2  -9  -8 1280.32 117.588   6
   1  -9  -8 2564.74 152.540   3
   1   9  -8 2647.38 193.572   6
   1  -9  -8 2555.04 160.040   6
   0   9  -8 3441.87 217.832   6
   0  -9  -8 3273.03 184.697   6
  -1  -9  -8 1231.12 135.185   6
  -1   9  -8 1230.89 159.899   6
  -2  -9  -8 2984.85 193.234   6
   2  -9   8 2858.50 116.116   2
  -2   9  -8 2714.44 207.171   6
  -3  -9  -8 17333.0 491.462   6
  -3   9  -8 17137.4 520.888   6
  -4   9  -8 1505.63 172.533   6
  -4  -9  -8 1840.89 189.904   6
  -5   9  -8 385.580 132.666   6
  -5  -9  -8 509.433 137.242   6
  -6   9  -8 346.458 120.523   6
  -6  -9  -8 637.852 145.170   6
  -7   9  -8 3.12123 122.657   6
  -7  -9  -8 101.207 133.716   6
  -8   9  -8 149.505 118.940   6
  -8  -9  -8 462.882 154.733   6
  12 -10  -8 2151.23 250.833   3
  12  10  -8 2787.53 268.662   6
  11 -10  -8 1180.86 204.421   3
  11  10  -8 1191.20 184.020   6
  10 -10  -8 19965.7 633.810   3
  10 -10  -8 19726.6 516.470   6
  10  10  -8 19281.2 617.632   6
   9 -10  -8 7005.98 358.379   3
   9 -10  -8 6954.14 280.158   6
   9  10  -8 7168.04 358.259   6
   8 -10  -8 4325.37 282.101   3
   8 -10  -8 4100.13 203.974   6
   8  10  -8 4722.72 283.047   6
   7 -10  -8 27467.3 681.853   3
   7 -10  -8 26347.4 552.412   6
   7  10  -8 27574.0 685.136   6
   6 -10  -8 23901.0 611.653   3
   6 -10  -8 24632.4 511.433   6
   6  10  -8 24427.0 626.125   6
   5 -10  -8 432.767 117.947   3
   5 -10  -8 369.388 100.002   5
   5 -10  -8 257.891 69.0991   6
   5  10  -8 419.835 119.188   6
   4 -10  -8 35984.8 734.619   3
   4 -10  -8 35697.3 707.265   5
   4  10  -8 34815.9 755.662   6
   4 -10  -8 35063.1 644.505   6
   3 -10  -8 38218.6 751.038   3
   3 -10  -8 39393.6 763.092   5
   3  10  -8 37926.6 800.889   6
   3 -10  -8 39327.5 697.916   6
   2 -10  -8 18910.3 457.272   3
   2 -10  -8 18718.4 487.598   5
   2  10  -8 18254.1 507.320   6
   2 -10  -8 18509.4 431.629   6
   1 -10  -8 40652.6 718.824   3
   1  10  -8 38112.8 803.678   6
   1 -10  -8 38910.9 718.629   6
   0  10  -8 1729.91 167.068   6
   0 -10  -8 1978.23 147.360   6
  -1 -10  -8 44743.0 818.326   6
   1 -10   8 43898.1 711.142   2
  -1  10  -8 43673.8 888.861   6
  -2 -10  -8 33087.0 694.420   6
   2 -10   8 33148.6 532.188   2
  -2  10  -8 32902.3 746.986   6
  -3  10  -8 1392.18 168.976   6
  -3 -10  -8 1139.35 140.452   6
  -4 -10  -8 40120.0 854.239   6
  -4  10  -8 39321.1 871.104   6
  -5  10  -8 13478.6 482.328   6
  -5 -10  -8 13990.3 487.024   6
  -6  10  -8 1369.33 183.889   6
  -6 -10  -8 1535.49 194.751   6
  -7  10  -8 20925.2 642.594   6
  -7 -10  -8 19938.0 647.454   6
  -8  10  -8 3745.36 286.155   6
  -8 -10  -8 3458.28 289.107   6
  12 -11  -8 2650.43 273.997   3
  12  11  -8 3139.51 289.818   6
  11 -11  -8 2237.04 240.755   3
  11  11  -8 2034.64 228.987   6
  10 -11  -8 2891.59 260.475   3
  10  11  -8 2707.37 243.261   6
   9 -11  -8 8259.84 388.855   3
   9 -11  -8 8500.08 304.662   6
   9  11  -8 8264.22 383.289   6
   8 -11  -8 14725.8 506.764   3
   8 -11  -8 15142.9 394.894   6
   8  11  -8 14885.0 500.621   6
   7 -11  -8 1758.74 190.931   3
   7 -11  -8 1623.24 127.537   6
   7  11  -8 1863.48 190.925   6
   6 -11  -8 3533.97 233.494   3
   6 -11  -8 3614.58 171.979   6
   6  11  -8 3686.31 242.708   6
   5 -11  -8 11195.9 388.265   3
   5 -11  -8 10368.6 295.578   6
   5  11  -8 10316.1 387.481   6
   4 -11  -8 21.1284 93.4792   3
   4 -11  -8 10.2669 92.6471   5
   4  11  -8 254.330 113.095   6
   4 -11  -8 25.4208 62.0071   6
   3 -11  -8 41880.4 805.920   3
   3 -11  -8 43262.3 825.672   5
   3  11  -8 42154.5 858.808   6
   3 -11  -8 42565.5 736.100   6
   2 -11  -8 17732.1 452.539   3
   2 -11  -8 18246.4 487.171   5
   2  11  -8 18083.2 508.304   6
   2 -11  -8 17768.0 417.031   6
   1 -11  -8 1468.77 132.437   3
   1 -11  -8 1267.20 151.487   5
   1  11  -8 1355.98 157.424   6
   1 -11  -8 1198.79 118.038   6
   0  11  -8 20891.7 559.767   6
   0 -11  -8 21274.8 489.698   6
  -1 -11  -8 2436.29 168.371   6
   1 -11   8 2414.33 134.508   2
  -1  11  -8 2400.79 194.519   6
  -2 -11  -8 3556.37 206.930   6
   2 -11   8 3201.13 129.829   2
  -2  11  -8 3125.89 224.010   6
  -3 -11  -8 17993.2 502.587   6
  -3  11  -8 18529.0 542.244   6
  -4  11  -8 1192.62 160.238   6
  -4 -11  -8 1220.85 160.409   6
  -5 -11  -8 15937.7 521.634   6
  -5  11  -8 15812.7 523.982   6
  -6  11  -8 17430.3 569.596   6
  -6 -11  -8 16527.7 561.313   6
  -7  11  -8 1384.94 185.643   6
  -7 -11  -8 1422.35 199.750   6
  -8  11  -8 6311.50 356.991   6
  -8 -11  -8 5084.40 344.036   6
  11 -12  -8-141.580 153.780   3
  11  12  -8 229.854 145.183   6
  10 -12  -8-96.1682 139.741   3
  10  12  -8-11.9926 129.059   6
   9 -12  -8-41.5859 128.381   3
   9  12  -8 177.440 125.932   6
   8 -12  -8 216.365 135.384   3
   8 -12  -8 610.939 96.7148   6
   8  12  -8 337.404 127.448   6
   7 -12  -8 2194.86 207.737   3
   7 -12  -8 2215.16 136.704   6
   7  12  -8 2385.71 215.623   6
   6 -12  -8 332.554 128.771   3
   6 -12  -8 134.496 62.2284   6
   6  12  -8 362.973 117.448   6
   5 -12  -8 324.835 117.599   3
   5 -12  -8 93.4315 54.7291   6
   5  12  -8 217.942 105.726   6
   4 -12  -8 1125.68 141.630   3
   4 -12  -8 1020.77 138.551   5
   4 -12  -8 1094.23 96.0914   6
   4  12  -8 1172.09 149.539   6
   3 -12  -8 4102.37 225.930   3
   3 -12  -8 4703.82 250.731   5
   3  12  -8 5020.06 264.624   6
   3 -12  -8 4527.11 190.581   6
   2 -12  -8 188.072 90.4082   3
   2 -12  -8 410.717 119.964   5
   2  12  -8 356.760 113.419   6
   2 -12  -8 398.052 81.7182   6
   1 -12  -8 1828.74 177.301   5
   1  12  -8 2122.03 189.566   6
   1 -12  -8 1977.63 137.351   6
   0 -12   8 7279.12 253.375   2
   0  12  -8 7218.08 320.096   6
   0 -12  -8 7299.66 267.605   6
  -1 -12  -8 3907.75 203.421   6
   1 -12   8 3928.37 169.686   2
  -1  12  -8 3574.41 230.593   6
  -2 -12  -8 931.599 122.626   6
  -2  12  -8 1015.02 155.217   6
  -3  12  -8 408.098 128.311   6
  -3 -12  -8 164.071 107.642   6
  -4  12  -8 1725.89 192.914   6
  -4 -12  -8 1728.18 176.264   6
  -5  12  -8 45.9591 110.357   6
  -5 -12  -8 190.710 128.012   6
  -6  12  -8 2395.16 229.121   6
  -6 -12  -8 2051.87 217.131   6
  -7  12  -8 280.900 131.805   6
  -7 -12  -8-52.3331 129.779   6
  -8  12  -8 922.736 177.854   6
  -8 -12  -8 1078.62 195.411   6
  11 -13  -8 3953.02 312.184   3
  11  13  -8 4377.56 316.860   6
  10 -13  -8 180.078 157.393   3
  10  13  -8 351.283 151.420   6
   9 -13  -8 5078.98 319.218   3
   9  13  -8 4925.43 318.027   6
   8 -13  -8 13762.8 496.278   3
   8  13  -8 14019.9 495.981   6
   7 -13  -8 623.656 142.579   3
   7 -13  -8 363.549 75.6898   6
   7  13  -8 447.095 133.899   6
   6 -13  -8 2385.03 204.514   3
   6 -13  -8 2430.26 137.050   6
   6  13  -8 2840.71 224.586   6
   5 -13  -8 4369.53 251.790   3
   5 -13  -8 4176.57 171.159   6
   5  13  -8 4616.34 263.805   6
   4 -13  -8 1718.18 165.979   3
   4 -13  -8 2070.63 184.847   5
   4 -13  -8 1826.71 118.594   6
   4  13  -8 1676.14 172.385   6
   3 -13  -8 19783.7 514.598   3
   3 -13  -8 19661.5 523.512   5
   3  13  -8 19251.8 537.432   6
   3 -13  -8 19733.5 422.652   6
   2 -13  -8 15780.5 437.165   3
   2 -13  -8 15661.8 468.391   5
   2  13  -8 15014.3 469.308   6
   2 -13  -8 15794.1 378.428   6
  -1 -13   8 1543.69 138.010   2
   1 -13  -8 1504.69 174.609   5
   1  13  -8 1509.91 169.984   6
   1 -13  -8 1480.16 126.776   6
   0 -13   8 38049.9 705.284   2
   0 -13  -8 40267.7 848.790   5
   0  13  -8 40106.7 837.498   6
   0 -13  -8 39904.6 730.233   6
  -1 -13  -8 2263.92 158.999   6
   1 -13   8 2279.57 138.575   2
  -1  13  -8 2470.43 200.716   6
  -2 -13  -8 2564.52 175.203   6
  -2  13  -8 2475.16 206.836   6
  -3 -13  -8 10949.4 378.817   6
  -3  13  -8 11053.5 416.685   6
  -4  13  -8 1877.94 193.715   6
  -4 -13  -8 2113.01 189.769   6
  -5 -13  -8 8682.18 377.437   6
  -5  13  -8 7988.71 375.249   6
  -6 -13  -8 7518.35 377.847   6
  -6  13  -8 7012.65 363.469   6
  -7  13  -8 1235.51 179.889   6
  -7 -13  -8 1260.70 205.320   6
  -8 -13  -8 909.070 189.466   6
  11 -14  -8 99.8448 137.677   3
  11  14  -8 22.2935 139.223   6
  10 -14  -8 11624.9 498.240   3
  10  14  -8 12425.3 503.436   6
   9 -14  -8 13506.3 512.789   3
   9  14  -8 12578.5 499.793   6
   8 -14  -8 222.925 143.795   3
   8  14  -8 26.3233 111.886   6
   7 -14  -8 20834.8 608.917   3
   7  14  -8 21246.7 609.903   6
   6 -14  -8 6849.14 330.771   3
   6  14  -8 6953.14 329.867   6
   5 -14  -8 3062.22 218.325   3
   5 -14  -8 2944.30 138.061   6
   5  14  -8 3042.35 227.142   6
   4 -14  -8 38317.0 800.684   3
   4 -14  -8 37597.0 783.548   5
   4 -14  -8 35795.5 621.153   6
   4  14  -8 37229.3 806.784   6
   3 -14  -8 2917.28 200.343   3
   3 -14  -8 3188.67 216.581   5
   3  14  -8 2533.86 200.480   6
   3 -14  -8 2970.29 143.910   6
   2 -14  -8 16966.9 498.943   5
   2  14  -8 17294.8 509.599   6
   2 -14  -8 17559.3 397.543   6
  -1 -14   8 55327.3 959.935   2
   1 -14  -8 55654.4 1057.40   5
   1  14  -8 55989.0 1062.71   6
   1 -14  -8 57458.6 919.414   6
   0 -14   8 4626.34 212.553   2
   0 -14  -8 4685.45 272.091   5
   0  14  -8 4442.27 255.123   6
   0 -14  -8 4621.18 207.967   6
  -1 -14  -8 23351.1 530.190   6
  -1 -14  -8 22910.3 626.411   5
   1 -14   8 23329.4 485.380   2
  -1  14  -8 23887.7 615.670   6
  -2 -14  -8 19604.5 494.592   6
  -2  14  -8 19434.1 563.356   6
  -3 -14  -8 513.754 113.127   6
  -3  14  -8 418.086 130.856   6
  -4 -14  -8 23261.0 613.966   6
  -4  14  -8 24400.1 657.376   6
  -5 -14  -8 7543.05 355.791   6
  -5  14  -8 7731.81 368.908   6
  -6 -14  -8 4999.18 316.632   6
  -6  14  -8 4987.29 315.756   6
  -7 -14  -8 12022.1 505.312   6
  -7  14  -8 12924.5 504.470   6
  -8 -14  -8 8802.68 452.947   6
  11  15  -8 3069.73 282.971   6
  10 -15  -8 472.088 169.276   3
  10  15  -8 620.008 177.369   6
   9 -15  -8 406.441 160.813   3
   9  15  -8 592.580 163.931   6
   8 -15  -8 1730.71 215.658   3
   8  15  -8 1778.21 206.279   6
   7 -15  -8 53.9403 125.610   3
   7  15  -8 180.311 134.540   6
   6 -15  -8 3278.46 243.452   3
   6  15  -8 3299.82 247.732   6
   5 -15  -8 3279.41 230.201   3
   5  15  -8 3786.56 250.981   6
   4 -15  -8 1254.87 163.861   3
   4 -15  -8 1411.07 164.594   5
   4 -15  -8 1286.05 98.8149   6
   4  15  -8 1331.47 162.968   6
   3 -15  -8 2315.10 182.670   3
   3 -15  -8 2088.28 193.406   5
   3 -15  -8 1933.75 115.267   6
   3  15  -8 1950.52 184.703   6
  -2 -15   8 8432.82 318.156   2
   2 -15  -8 8634.79 358.215   5
   2  15  -8 7846.56 341.669   6
   2 -15  -8 8664.74 256.442   6
  -1 -15   8 39.9082 87.1710   2
   1 -15  -8 214.691 124.034   5
   1  15  -8 150.819 114.398   6
   1 -15  -8-6.54639 59.8242   6
   0 -15   8 14492.0 390.398   2
   0 -15  -8 14556.8 480.728   5
   0  15  -8 15265.2 478.650   6
   0 -15  -8 14764.1 382.254   6
  -1 -15  -8-91.2095 75.4452   6
  -1 -15  -8 83.2030 122.577   5
   1 -15   8 27.4604 67.3918   2
  -1  15  -8-81.6789 106.382   6
  -2 -15  -8 4466.01 227.393   6
  -2  15  -8 4992.47 278.651   6
  -3 -15  -8 2818.36 196.766   6
  -3  15  -8 2752.61 226.896   6
  -4 -15  -8 90.6164 100.306   6
  -4  15  -8 160.987 128.904   6
  -5  15  -8 504.202 145.748   6
  -5 -15  -8 387.915 129.858   6
  -6  15  -8 1943.89 208.061   6
  -6 -15  -8 2372.97 230.138   6
  -7  15  -8 206.054 136.591   6
  -7 -15  -8 73.1253 131.468   6
  10 -16  -8 1013.87 190.267   3
  10  16  -8 749.499 187.505   6
   9 -16  -8 3782.49 291.575   3
   9  16  -8 3832.65 290.822   6
   8 -16  -8 281.383 147.282   3
   8  16  -8 407.000 142.258   6
   7 -16  -8 4005.58 278.485   3
   7  16  -8 3367.80 250.878   6
   6 -16  -8 3472.32 251.999   3
   6  16  -8 3079.92 240.239   6
   5 -16  -8 19.4633 112.619   3
   5  16  -8 160.799 118.651   6
   4 -16  -8 10776.1 400.444   3
   4  16  -8 10357.9 401.414   6
  -3 -16   8 136.362 106.455   2
   3 -16  -8 164.972 117.368   5
   3  16  -8 94.8747 105.774   6
  -2 -16   8 3707.95 219.990   2
   2 -16  -8 4082.41 260.966   5
   2  16  -8 3840.86 242.855   6
   2 -16  -8 3805.52 163.702   6
  -1 -16   8 6587.51 273.487   2
   1 -16  -8 6376.16 323.196   5
   1  16  -8 6704.64 319.535   6
   1 -16  -8 7076.59 236.695   6
   0 -16  -8 1858.46 198.415   5
   0 -16   8 1792.59 149.213   2
   0  16  -8 2275.39 200.791   6
   0 -16  -8 1977.72 136.575   6
  -1 -16  -8 62.6561 69.6692   6
  -1 -16  -8 8.49802 126.078   5
   1 -16   8 114.920 79.4933   2
  -1  16  -8 21.6813 106.223   6
  -2 -16  -8 897.760 118.857   6
  -2 -16  -8 767.622 166.450   5
  -2  16  -8 808.399 143.797   6
  -3 -16  -8 1191.20 139.647   6
  -3  16  -8 1162.01 165.032   6
  -4 -16  -8 5690.51 288.754   6
  -4  16  -8 6234.29 336.873   6
  -5 -16  -8 3522.09 246.855   6
  -5  16  -8 3693.78 263.994   6
  -6  16  -8 411.986 151.431   6
  -6 -16  -8 138.740 135.117   6
  -7  16  -8 2122.50 228.654   6
  -7 -16  -8 1801.13 219.201   6
  10 -17  -8 1282.06 212.355   3
  10  17  -8 1569.04 218.288   6
   9 -17  -8 801.180 188.779   3
   9  17  -8 1024.31 185.244   6
   8 -17  -8 14030.9 528.647   3
   8  17  -8 13779.5 513.876   6
   7 -17  -8 192.902 132.883   3
   7  17  -8 66.2868 124.964   6
   6 -17  -8 4053.68 274.567   3
   6  17  -8 3824.70 266.382   6
   5 -17  -8 23802.4 647.741   3
   5  17  -8 23914.3 651.985   6
  -4 -17   8 499.587 130.651   2
   4  17  -8 821.409 151.029   6
  -3 -17   8 19826.6 542.977   2
   3 -17  -8 20160.5 571.521   5
   3  17  -8 20102.0 579.216   6
  -2 -17   8 13609.4 422.819   2
   2 -17  -8 14113.5 475.394   5
   2  17  -8 13870.4 464.024   6
   1 -17  -8 1231.89 177.149   5
  -1 -17   8 1477.28 144.252   2
   1  17  -8 1382.27 166.258   6
   0 -17  -8 32789.2 794.089   5
   0 -17   8 32417.3 667.900   2
   0  17  -8 33361.9 773.142   6
   0 -17  -8 33463.4 628.262   6
  -1 -17  -8 12456.4 472.349   5
   1 -17   8 13069.2 365.660   2
  -1  17  -8 13629.9 467.500   6
  -1 -17  -8 12802.2 363.342   6
  -2 -17  -8 3196.22 191.143   6
  -2 -17  -8 3155.97 260.104   5
  -2  17  -8 3658.98 253.475   6
  -3 -17  -8 12378.8 401.637   6
  -3 -17  -8 12390.2 493.129   5
  -3  17  -8 13089.0 468.079   6
  -4 -17  -8 4295.70 252.786   6
  -4  17  -8 4634.25 288.731   6
  -5 -17  -8 6232.62 319.859   6
  -5  17  -8 5902.68 329.576   6
  -6 -17  -8 14476.3 522.813   6
  -6  17  -8 14912.3 539.081   6
  -7  17  -8 191.634 140.769   6
  -7 -17  -8 481.586 159.367   6
   9 -18  -8 4621.97 323.683   3
   9  18  -8 4939.60 330.824   6
   8 -18  -8 455.106 159.695   3
   8  18  -8 348.562 149.569   6
   7 -18  -8 8093.99 396.180   3
   7  18  -8 7720.33 380.789   6
   6 -18  -8 5247.20 311.188   3
   6  18  -8 5122.11 304.291   6
  -5 -18   8 10712.2 422.516   2
   5  18  -8 12060.9 455.768   6
  -4 -18   8 16715.0 513.597   2
   4  18  -8 15523.3 510.275   6
  -3 -18   8 2737.33 209.070   2
   3 -18  -8 2532.58 217.635   5
   3  18  -8 2772.59 221.779   6
   2 -18  -8 7371.57 349.084   5
  -2 -18   8 7281.96 315.042   2
   2  18  -8 7258.59 337.737   6
   1 -18  -8 7021.43 350.983   5
  -1 -18   8 7217.04 300.332   2
   1  18  -8 7595.83 345.481   6
   0 -18  -8 157.148 150.028   5
   0 -18   8-66.2873 87.3753   2
   0  18  -8-49.4809 104.591   6
  -1 -18  -8 9444.11 416.744   5
  -1  18  -8 10430.6 407.575   6
  -2 -18  -8 24427.4 558.179   6
  -2 -18  -8 25652.3 715.907   5
  -2  18  -8 24914.6 664.070   6
  -3 -18  -8-220.566 102.301   6
  -3 -18  -8-0.41287 143.312   5
  -3  18  -8 203.947 115.793   6
  -4 -18  -8 6773.74 311.345   6
  -4 -18  -8 7371.60 397.567   5
  -4  18  -8 6769.85 351.486   6
  -5 -18  -8 5602.64 305.839   6
  -5  18  -8 5371.69 316.481   6
  -6 -18  -8-1.51857 122.243   6
  -6  18  -8-66.9496 135.530   6
  -7 -18  -8 14234.7 543.136   6
   9 -19  -8 10.5093 155.175   3
  -9 -19   8-215.591 143.877   2
   9  19  -8 86.3362 126.822   6
   8 -19  -8 33.2816 141.378   3
  -8 -19   8 145.936 135.687   2
   8  19  -8 282.905 137.636   6
  -7 -19   8 82.6266 131.409   2
   7  19  -8 31.1188 126.335   6
  -6 -19   8-44.9106 128.010   2
   6  19  -8 94.4434 115.317   6
  -5 -19   8 449.287 139.539   2
   5  19  -8 398.954 137.573   6
  -4 -19   8 269.293 127.012   2
   4  19  -8 430.239 150.034   6
   3 -19  -8-17.6011 118.453   5
  -3 -19   8 84.4176 109.857   2
   3  19  -8 93.4473 103.401   6
   2 -19  -8 860.011 164.164   5
  -2 -19   8 712.338 137.050   2
   2  19  -8 725.837 146.166   6
   1 -19  -8 174.369 141.550   5
  -1 -19   8 138.048 98.1499   2
   1  19  -8 160.656 125.471   6
   0 -19  -8 892.621 169.583   5
   0  19  -8 642.970 135.372   6
   0 -19   8 583.417 111.970   2
  -1 -19  -8-6.18845 146.161   5
  -1  19  -8 203.813 133.077   6
  -2 -19  -8 220.584 163.114   5
  -2  19  -8 23.0193 116.503   6
  -3 -19  -8 840.906 188.842   5
  -3  19  -8 818.995 149.477   6
  -4 -19  -8 429.329 164.212   5
  -4  19  -8 308.771 129.438   6
  -5  19  -8 185.699 137.296   6
  -6  19  -8 486.118 141.889   6
   9  20  -8 1414.46 213.608   6
   8 -20  -8 238.487 156.545   3
  -8 -20   8 263.713 146.867   2
   8  20  -8 154.307 138.035   6
  -7 -20   8 3120.13 269.596   2
   7  20  -8 2333.53 230.337   6
  -6 -20   8 5684.98 329.998   2
   6  20  -8 6078.15 336.372   6
  -5 -20   8 3768.78 270.015   2
   5  20  -8 4631.40 293.430   6
  -4 -20   8 10612.6 418.090   2
   4  20  -8 11001.1 434.574   6
  -3 -20   8 4493.98 271.120   2
   3  20  -8 4541.62 284.416   6
  -2 -20   8 3481.01 228.844   2
   2 -20  -8 3226.68 258.276   5
   2  20  -8 3564.62 251.318   6
   1 -20  -8 18151.7 588.046   5
  -1 -20   8 17740.9 504.777   2
   1  20  -8 19130.3 570.140   6
   0 -20  -8 1168.60 191.336   5
   0  20  -8 1104.89 157.577   6
   0 -20   8 1345.22 147.429   2
  -1 -20  -8 22740.6 681.088   5
  -1  20  -8 21490.0 618.788   6
  -2 -20  -8 11229.0 478.575   5
  -2  20  -8 11628.3 444.679   6
  -3 -20  -8 643.690 175.928   5
  -3  20  -8 409.572 139.592   6
  -4 -20  -8 5809.57 366.356   5
  -4  20  -8 5756.05 322.345   6
  -5  20  -8 3483.39 265.097   6
  -6  20  -8-108.513 129.050   6
  -8 -21   8 5528.81 351.797   2
   8  21  -8 5221.94 342.160   6
   7  21  -8 2267.60 229.413   6
  -6 -21   8 9090.17 419.805   2
   6  21  -8 8656.55 409.655   6
  -5 -21   8 11549.6 462.639   2
   5  21  -8 12454.5 478.023   6
  -4 -21   8 423.775 140.748   2
   4  21  -8 264.390 126.926   6
  -3 -21   8 11145.6 426.430   2
   3  21  -8 11588.7 451.256   6
   2 -21  -8 10392.0 446.139   5
  -2 -21   8 10319.7 396.385   2
   2  21  -8 10893.5 430.425   6
   1 -21  -8 1243.00 194.898   5
   1  21  -8 826.792 151.983   6
  -1 -21   8 1025.81 148.656   2
   0 -21  -8 22352.6 676.868   5
   0 -21   8 21870.3 558.882   2
   0  21  -8 21690.0 624.431   6
  -1 -21  -8 4593.22 320.053   5
  -1  21  -8 4440.02 285.661   6
  -2 -21  -8 5209.97 340.756   5
  -2  21  -8 4539.18 286.668   6
  -3 -21  -8 16088.1 590.714   5
  -3  21  -8 16247.4 541.992   6
  -4  21  -8 821.296 158.575   6
  -5  21  -8 3291.00 264.850   6
  -6  21  -8 11857.4 488.454   6
   8  22  -8 193.046 150.683   6
  -7 -22   8 2086.42 235.249   2
   7  22  -8 2189.26 233.283   6
  -6 -22   8 67.4674 136.446   2
   6  22  -8 67.7062 141.505   6
  -5 -22   8 717.923 167.574   2
   5  22  -8 528.517 148.771   6
  -4 -22   8 1176.42 175.123   2
   4  22  -8 930.222 165.061   6
  -3 -22   8 198.734 130.364   2
   3  22  -8 285.700 129.236   6
   2  22  -8 1094.37 160.982   6
  -2 -22   8 1385.56 174.173   2
   1 -22  -8 2902.33 264.453   5
  -1 -22   8 3009.66 218.640   2
   1  22  -8 2567.25 223.018   6
   0 -22   8 61.0594 107.065   2
   0 -22  -8-85.2828 145.234   5
   0  22  -8 61.2865 115.586   6
  -1 -22  -8 1533.12 206.725   5
  -1  22  -8 1941.84 201.825   6
  -2 -22  -8 682.367 175.290   5
  -2  22  -8 447.140 134.271   6
  -3  22  -8 191.709 131.686   6
  -4  22  -8 1291.90 181.618   6
  -5  22  -8 3606.87 266.672   6
  -7 -23   8 698.335 183.557   2
   7  23  -8 380.110 168.545   6
   6  23  -8 5077.45 322.684   6
  -5 -23   8 791.162 168.971   2
   5  23  -8 917.808 171.635   6
  -4 -23   8 452.356 147.866   2
   4  23  -8 441.218 138.520   6
   3  23  -8 1459.10 199.777   6
  -3 -23   8 1067.18 172.261   2
  -2 -23   8 5842.06 316.341   2
   2  23  -8 6494.06 337.993   6
   1 -23  -8 955.234 205.995   5
   1  23  -8 979.871 172.135   6
  -1 -23   8 960.453 161.056   2
   0 -23  -8 4092.29 308.957   5
   0  23  -8 3567.91 259.967   6
  -1 -23  -8 1085.69 206.599   5
  -1  23  -8 355.441 133.299   6
  -2 -23  -8 1155.22 210.583   5
  -2  23  -8 785.425 168.254   6
  -3  23  -8 2852.06 242.450   6
  -4  23  -8 381.385 140.324   6
  -5  23  -8 873.154 176.964   6
   7  24  -8 11163.3 494.983   6
  -6 -24   8 3482.53 282.630   2
   6  24  -8 3879.59 290.614   6
   5  24  -8 609.910 158.287   6
  -5 -24   8 699.306 174.495   2
  -4 -24   8 6318.03 351.318   2
   4  24  -8 6361.11 350.981   6
  -3 -24   8 3237.89 254.774   2
   3  24  -8 3296.25 258.971   6
  -2 -24   8 15105.4 516.151   2
   2  24  -8 16315.8 548.062   6
   1 -24  -8 22727.5 711.682   5
   1  24  -8 22500.3 646.816   6
  -1 -24   8 21405.9 606.781   2
   0 -24  -8 1044.14 205.358   5
   0  24  -8 660.663 149.942   6
  -1  24  -8 9591.15 420.066   6
  -2  24  -8 12354.7 476.922   6
  -3  24  -8 657.016 151.166   6
  -4  24  -8 13259.9 513.503   6
   6  25  -8 1898.41 215.097   6
  -5 -25   8 5260.53 342.505   2
   5  25  -8 5467.92 337.511   6
   4  25  -8 314.992 140.660   6
  -4 -25   8 210.691 133.311   2
  -3 -25   8 6550.17 355.596   2
   3  25  -8 7037.90 371.374   6
   2  25  -8 6655.31 360.298   6
  -2 -25   8 6304.37 345.450   2
  -1 -25   8 520.000 145.681   2
   1  25  -8 599.072 153.805   6
   0  25  -8 8112.37 384.402   6
  -1  25  -8 1024.56 178.073   6
  -2  25  -8 2773.65 240.862   6
  -3  25  -8 3373.39 269.936   6
   5  26  -8 385.872 153.696   6
   4  26  -8 165.651 135.765   6
  -4 -26   8 90.6208 138.377   2
   3  26  -8 591.517 164.350   6
  -3 -26   8 720.709 164.395   2
  -2 -26   8 348.937 154.047   2
   2  26  -8 341.299 143.992   6
   1  26  -8 816.989 167.461   6
   0  26  -8 900.098 159.197   6
  -1  26  -8 42.5596 127.869   6
   5  27  -8 10304.0 473.150   6
   4  27  -8 303.185 152.559   6
   3  27  -8 4986.62 325.225   6
  -3 -27   8 5000.77 326.109   2
   2  27  -8 3196.58 261.189   6
   1  27  -8 188.875 127.742   6
   0  27  -8 3754.35 276.583   6
   4  28  -8 7694.32 406.858   6
   3  28  -8 109.060 146.004   6
  13   0  -9 433.470 168.320   6
  12   0  -9 7.47936 131.194   6
  11   0  -9-102.535 125.439   6
  10   0  -9-67.6974 113.003   6
   9   0  -9 150.994 110.633   6
   8   0  -9 72.7949 103.194   6
   7   0  -9 105.656 103.671   6
   6   0  -9 47.2970 51.7814   5
   6   0  -9 183.130 107.295   6
   5   0  -9-0.60488 63.4370   5
   5   0  -9 110.399 93.8731   6
   4   0  -9 404.136 123.876   6
   3   0  -9 323.495 115.899   6
   2   0  -9-104.705 107.424   6
   1   0  -9 68.1140 104.478   6
   0   0  -9 31.0500 92.0147   6
  -1   0  -9-15.2764 96.7837   6
  -2   0  -9 60.6372 98.3385   6
  -3   0  -9 91.5516 100.069   6
  -4   0  -9 28.8070 109.386   6
  -5   0  -9 41.7233 112.047   6
  -6   0  -9-5.78222 121.355   6
  -7   0  -9 405.225 161.100   6
  13  -1  -9 5160.13 340.328   6
  13   1  -9 5126.31 352.174   6
  12  -1  -9 4233.33 306.863   6
  12   1  -9 5167.91 328.046   6
  11  -1  -9 99.8900 129.613   6
  11   1  -9 184.997 145.000   6
  10  -1  -9 994.355 161.909   6
  10   1  -9 1035.17 162.906   6
   9  -1  -9 2730.86 217.380   6
   9   1  -9 2939.43 225.878   6
   8  -1  -9 215.577 109.110   6
   8   1  -9 462.919 123.202   6
   7  -1  -9 20221.2 538.044   6
   7   1  -9 19491.9 540.183   6
   6   1  -9 6061.77 160.188   5
   6  -1  -9 6264.94 288.161   6
   6   1  -9 6789.17 299.903   6
   5  -1  -9 16476.4 360.209   5
   5   1  -9 16411.8 340.205   5
   5   1  -9 15726.5 462.542   6
   5  -1  -9 15615.6 452.122   6
   4   1  -9 34080.5 726.376   6
   4  -1  -9 33584.0 714.891   6
   3   1  -9 24354.8 591.601   6
   3  -1  -9 24368.1 582.078   6
   2   1  -9 4525.01 241.968   6
   2  -1  -9 4514.63 238.977   6
   1   1  -9 27033.1 630.877   6
   1  -1  -9 26050.1 617.298   6
   0   1  -9 228.179 100.836   6
   0  -1  -9 238.233 101.841   6
  -1   1  -9 25216.1 625.889   6
  -1  -1  -9 24817.1 613.100   6
  -1  -1  -9 25254.3 428.411   3
  -2   1  -9 9131.32 365.062   6
  -2  -1  -9 8731.45 354.941   6
  -3   1  -9 428.951 123.890   6
  -3  -1  -9 560.089 129.554   6
  -4   1  -9 11864.7 444.381   6
  -4  -1  -9 11874.6 444.544   6
  -5   1  -9 8544.20 396.101   6
  -5  -1  -9 8554.71 391.023   6
  -6   1  -9 5221.99 326.744   6
  -6  -1  -9 5351.83 328.579   6
  -7   1  -9 23197.8 717.610   6
  -7  -1  -9 23837.5 730.865   6
  14  -2  -9 7204.30 409.969   6
  13  -2  -9 5489.67 349.373   6
  13   2  -9 5706.53 372.347   6
  12  -2  -9 550.857 156.650   6
  12   2  -9 368.073 147.287   6
  11  -2  -9 10444.1 428.184   6
  11   2  -9 10319.2 441.125   6
  10  -2  -9 3144.89 234.903   6
  10   2  -9 2842.60 234.415   6
   9  -2  -9 9332.33 369.701   6
   9   2  -9 9233.88 386.038   6
   8  -2  -9 14129.0 448.334   6
   8   2  -9 14445.6 472.289   6
   7  -2  -9 3186.82 213.348   6
   7   2  -9 2931.26 216.846   6
   6   2  -9 21261.4 345.743   5
   6  -2  -9 23022.6 561.070   6
   6   2  -9 23482.1 584.055   6
   5  -2  -9 21688.2 438.890   5
   5   2  -9 21350.2 397.590   5
   5   2  -9 20041.6 540.929   6
   5  -2  -9 21009.0 531.378   6
   4   2  -9 4334.28 243.684   6
   4  -2  -9 4660.95 240.781   6
   3   2  -9 35559.3 753.125   6
   3  -2  -9 35537.3 734.896   6
   2   2  -9 27746.6 643.389   6
   2  -2  -9 27754.3 625.570   6
   1   2  -9 4346.95 237.903   6
   1  -2  -9 4356.03 234.791   6
   0   2  -9 30773.8 703.427   6
   0  -2  -9 31154.9 688.812   6
  -1  -2  -9 3060.02 119.533   3
  -1   2  -9 3119.42 216.201   6
  -1  -2  -9 3282.45 218.139   6
  -2  -2  -9 11526.5 403.426   6
  -2   2  -9 11406.7 410.266   6
  -3   2  -9 17241.9 526.940   6
  -3  -2  -9 17430.0 519.666   6
  -4   2  -9 2120.83 201.009   6
  -4  -2  -9 2424.80 208.227   6
  -5   2  -9 6245.19 332.895   6
  -5  -2  -9 7102.57 353.134   6
  -6   2  -9 15945.4 561.331   6
  -6  -2  -9 16376.5 570.031   6
  -7   2  -9-4.10009 131.018   6
  -7  -2  -9-69.1539 145.761   6
  14  -3  -9 37.2116 154.414   6
  13  -3  -9 594.391 165.322   6
  13   3  -9 547.850 173.393   6
  12  -3  -9 111.042 128.210   6
  12   3  -9 308.966 142.872   6
  11  -3  -9 661.193 160.492   6
  11   3  -9 892.628 166.321   6
  10  -3  -9 4169.11 266.986   6
  10   3  -9 4583.36 292.703   6
   9  -3  -9 510.528 127.096   6
   9   3  -9 1046.80 170.318   6
   8  -3  -9 179.662 105.577   6
   8   3  -9 371.869 126.822   6
   7  -3  -9 2156.87 181.042   6
   7   3  -9 2608.76 206.679   6
   6  -3  -9 2885.66 195.208   6
   6   3  -9 2474.36 205.848   6
   5  -3  -9 673.113 100.914   5
   5   3  -9 682.153 127.205   6
   5  -3  -9 717.049 119.556   6
   4  -3  -9 10284.2 303.840   5
   4   3  -9 10234.7 368.652   6
   4  -3  -9 9950.24 347.654   6
   3   3  -9 342.280 119.029   6
   3  -3  -9 235.518 100.637   6
   2   3  -9 9216.74 351.758   6
   2  -3  -9 9211.79 331.257   6
   1  -3  -9 2468.25 181.566   6
   1   3  -9 2065.50 179.201   6
   0  -3  -9 1870.03 167.155   6
   0   3  -9 1849.83 175.662   6
   0  -3  -9 1864.82 119.127   3
  -1  -3  -9 18103.9 333.864   3
  -1   3  -9 18907.8 527.133   6
  -1  -3  -9 17527.1 503.365   6
  -2  -3  -9 5408.32 272.707   6
  -2   3  -9 5034.36 276.412   6
  -3   3  -9 138.006 111.544   6
  -3  -3  -9 131.437 113.873   6
  -4   3  -9 8173.09 365.797   6
  -4  -3  -9 8150.52 365.761   6
  -5   3  -9-117.535 117.449   6
  -5  -3  -9 89.1062 110.681   6
  -6   3  -9 1698.74 203.248   6
  -6  -3  -9 1549.03 203.344   6
  -7   3  -9 1664.72 209.448   6
  -7  -3  -9 1652.92 211.173   6
  13  -4  -9 1647.94 212.487   6
  12  -4  -9 1327.28 187.576   6
  12   4  -9 902.813 179.930   6
  11  -4  -9 708.362 155.225   6
  11   4  -9 953.338 178.408   6
  10  -4  -9 398.253 125.196   6
  10   4  -9 372.867 146.014   6
   9  -4  -9 417.553 115.427   6
   9   4  -9 534.749 147.173   6
   8  -4  -9 3032.93 207.476   6
   8   4  -9 3061.53 227.008   6
   7  -4  -9 1210.65 149.592   6
   7   4  -9 1159.31 166.459   6
   6  -4  -9 14963.6 433.325   6
   6   4  -9 14724.5 466.900   6
   5  -4  -9 9073.19 277.043   5
   5  -4  -9 8630.51 319.672   6
   5   4  -9 8363.31 341.500   6
   4  -4  -9 1049.42 126.615   5
   4   4  -9 905.514 150.242   6
   4  -4  -9 984.641 132.583   6
   3   4  -9 7052.31 308.899   6
   3  -4  -9 7183.39 289.795   6
   2   4  -9 8038.50 327.936   6
   2  -4  -9 7392.59 293.401   6
   1   4  -9 1723.29 166.486   6
   1  -4  -9 1957.50 163.029   6
   1  -4  -9 1843.30 133.481   3
   0  -4  -9 1369.13 148.311   6
   0  -4  -9 1230.66 101.182   3
   0   4  -9 973.662 140.214   6
  -1   4  -9 1782.79 176.390   6
  -1  -4  -9 1866.78 172.127   6
  -1  -4  -9 1439.47 83.1534   3
  -2   4  -9 318.950 120.788   6
  -2  -4  -9 342.374 110.612   6
  -3  -4  -9 11794.5 423.661   6
  -3   4  -9 11963.5 438.757   6
  -4   4  -9 1597.99 192.858   6
  -4  -4  -9 1745.75 192.265   6
  -5   4  -9 910.367 164.839   6
  -5  -4  -9 1345.45 184.273   6
  -6   4  -9 7772.24 386.306   6
  -6  -4  -9 7226.38 376.987   6
  -7   4  -9 929.085 185.496   6
  -7  -4  -9 1372.01 207.235   6
  13  -5  -9 2973.67 261.846   6
  12  -5  -9 2767.79 241.951   6
  12   5  -9 2959.27 274.573   6
  11  -5  -9 383.861 135.793   6
  11   5  -9 40.6856 124.044   6
  10  -5  -9 10832.7 403.584   6
  10   5  -9 10817.8 447.508   6
   9  -5  -9 11531.9 401.382   6
   9   5  -9 10711.7 428.912   6
   8  -5  -9 453.517 124.075   6
   8   5  -9 367.811 138.099   6
   7  -5  -9 42166.2 827.240   6
   7   5  -9 41299.9 879.935   6
   6  -5  -9 10137.1 348.191   6
   6   5  -9 10320.9 386.525   6
   5  -5  -9 2002.14 140.966   5
   5  -5  -9 2117.12 166.423   6
   5   5  -9 1845.02 179.049   6
   4  -5  -9 39239.6 716.546   5
   4   5  -9 37730.7 805.502   6
   4  -5  -9 38105.6 753.857   6
   3   5  -9 4410.61 252.296   6
   3  -5  -9 4360.73 226.940   6
   2   5  -9 23266.1 593.310   6
   2  -5  -9 23595.0 554.479   6
   1  -5  -9 34290.1 625.895   3
   1   5  -9 33737.8 745.124   6
   1  -5  -9 33088.0 702.397   6
   0  -5  -9 45.9628 82.7847   6
   0  -5  -9 158.491 62.0652   3
   0   5  -9 177.453 98.6111   6
  -1   5  -9 22568.9 599.355   6
  -1  -5  -9 22691.2 569.586   6
  -2  -5  -9 13272.1 430.582   6
  -2   5  -9 13317.7 455.876   6
  -3   5  -9 98.6176 104.021   6
  -3  -5  -9 151.054 101.383   6
  -4   5  -9 24881.0 680.400   6
  -4  -5  -9 26015.6 681.199   6
  -5   5  -9 18498.0 585.112   6
  -5  -5  -9 18556.7 589.658   6
  -6   5  -9 6857.14 364.051   6
  -6  -5  -9 7730.88 387.902   6
  -7   5  -9 23712.9 720.113   6
  -7  -5  -9 23599.4 732.695   6
  13  -6  -9 1532.83 203.981   6
  12  -6  -9 1277.26 176.732   6
  12   6  -9 1601.69 217.455   6
  11  -6  -9 2570.78 219.733   6
  11   6  -9 2729.53 256.150   6
  10  -6  -9 1052.53 150.426   6
  10   6  -9 799.613 162.491   6
   9  -6  -9 6848.27 307.312   6
   9   6  -9 6674.10 343.856   6
   8  -6  -9 26657.0 623.976   6
   8   6  -9 27128.3 698.962   6
   7  -6  -9 3337.40 206.817   6
   7   6  -9 3120.11 232.220   6
   6  -6  -9 2976.16 192.455   6
   6   6  -9 2628.39 207.201   6
   5  -6  -9 5299.33 220.771   5
   5  -6  -9 4925.06 235.727   6
   5   6  -9 5133.61 271.183   6
   4  -6  -9 726.077 114.575   5
   4   6  -9 752.691 139.724   6
   4  -6  -9 876.662 121.430   6
   3  -6  -9 38687.1 743.487   5
   3   6  -9 38086.8 808.604   6
   3  -6  -9 38145.2 749.590   6
   2  -6  -9 1286.41 129.605   3
   2   6  -9 932.942 138.925   6
   2  -6  -9 1201.04 134.210   6
   1  -6  -9 7700.24 257.089   3
   1   6  -9 6792.64 313.798   6
   1  -6  -9 7278.52 293.276   6
   0  -6  -9 5087.91 187.291   3
   0   6  -9 4816.48 266.228   6
   0  -6  -9 4682.43 244.033   6
  -1   6  -9 5680.71 288.357   6
  -1  -6  -9 5522.58 267.128   6
  -2   6  -9 246.348 115.558   6
  -2  -6  -9 243.604 109.922   6
  -3  -6  -9 28042.8 684.236   6
  -3   6  -9 28686.4 717.802   6
  -4   6  -9 1342.31 179.536   6
  -4  -6  -9 1476.72 177.995   6
  -5   6  -9 6411.60 342.439   6
  -5  -6  -9 6390.31 342.298   6
  -6   6  -9 7935.73 387.468   6
  -6  -6  -9 7528.95 387.283   6
  -7   6  -9 402.878 164.540   6
  -7  -6  -9-25.8958 179.391   6
  12  -7  -9 288.427 135.749   6
  12   7  -9 377.837 156.134   6
  11  -7  -9 207.177 117.562   6
  11   7  -9 145.741 131.757   6
  10  -7  -9 183.288 105.959   6
  10   7  -9 30.9141 126.670   6
   9  -7  -9 429.566 109.752   6
   9   7  -9 377.108 152.625   6
   8  -7  -9 230.763 113.124   6
   8   7  -9 535.504 149.281   6
   7  -7  -9 1341.91 140.120   6
   7   7  -9 1204.72 168.384   6
   6  -7  -9 2721.47 179.662   6
   6   7  -9 2951.79 223.965   6
   5  -7  -9 90.9180 88.6057   5
   5  -7  -9 154.438 83.2562   6
   5   7  -9 194.754 118.929   6
   4  -7  -9 102.535 86.1515   5
   4   7  -9 199.808 110.855   6
   4  -7  -9-65.9023 80.4150   6
   4  -7  -9-60.6387 101.857   3
   3  -7  -9 1047.12 131.154   3
   3  -7  -9 1691.90 156.451   5
   3   7  -9 1558.78 176.910   6
   3  -7  -9 1556.16 149.970   6
   2  -7  -9 157.955 87.6147   3
   2   7  -9 120.872 108.178   6
   2  -7  -9-35.8145 78.0141   6
   1  -7  -9 1539.57 124.864   3
   1   7  -9 1610.28 167.769   6
   1  -7  -9 1720.76 152.970   6
   0  -7  -9 1059.15 138.059   6
   0  -7  -9 1292.75 110.230   3
   0   7  -9 1273.24 167.341   6
  -1  -7  -9 85.6210 92.8172   6
  -1   7  -9 8.84970 96.7231   6
  -2   7  -9 1222.14 157.732   6
  -2  -7  -9 1008.19 143.684   6
  -3   7  -9 973.170 159.378   6
  -3  -7  -9 924.646 147.104   6
  -4   7  -9 356.641 135.245   6
  -4  -7  -9 116.587 107.418   6
  -5   7  -9 1105.97 170.973   6
  -5  -7  -9 858.447 160.256   6
  -6   7  -9 110.419 131.972   6
  -6  -7  -9-52.0856 133.698   6
  -7   7  -9 243.082 133.824   6
  -7  -7  -9 45.8977 134.654   6
  12   8  -9 903.029 198.560   6
  11  -8  -9 7306.91 335.951   6
  11   8  -9 7360.92 396.679   6
  10  -8  -9 801.997 143.271   6
  10   8  -9 943.515 185.728   6
   9  -8  -9 12627.6 403.822   6
   9   8  -9 12179.7 476.461   6
   8  -8  -9 11397.8 374.031   6
   8   8  -9 12477.8 457.844   6
   7  -8  -9 475.103 103.955   6
   7   8  -9 689.480 144.309   6
   6  -8  -9 2478.77 171.625   6
   6   8  -9 2214.48 207.347   6
   6  -8  -9 2174.94 197.602   3
   5  -8  -9 19398.8 472.168   5
   5  -8  -9 18910.2 468.276   6
   5   8  -9 19063.6 544.932   6
   5  -8  -9 18268.5 515.140   3
   4  -8  -9 3273.05 212.031   3
   4  -8  -9 3473.63 204.932   5
   4   8  -9 3088.03 219.475   6
   4  -8  -9 3624.97 200.868   6
   3  -8  -9 22475.9 536.755   3
   3  -8  -9 22476.8 541.765   5
   3   8  -9 23330.7 602.939   6
   3  -8  -9 22871.3 529.452   6
   2  -8  -9 5613.33 239.621   3
   2   8  -9 5241.46 278.791   6
   2  -8  -9 5604.98 248.089   6
   1  -8  -9 2906.79 164.804   3
   1   8  -9 2607.94 201.044   6
   1  -8  -9 2702.66 183.165   6
   0  -8  -9 44073.8 722.602   3
   0   8  -9 41702.3 886.811   6
   0  -8  -9 41955.7 822.475   6
  -1   8  -9 6046.15 304.411   6
  -1  -8  -9 6298.22 281.273   6
  -2  -8  -9 9569.55 361.383   6
  -2   8  -9 10153.7 399.024   6
  -3  -8  -9 16018.4 498.112   6
  -3   8  -9 16187.1 530.079   6
  -4  -8  -9 3209.69 239.569   6
  -4   8  -9 3330.58 255.808   6
  -5   8  -9 7137.33 368.202   6
  -5  -8  -9 6980.22 361.540   6
  -6   8  -9 6024.92 347.724   6
  -6  -8  -9 5581.26 342.518   6
  -7   8  -9 347.918 137.710   6
  -7  -8  -9 267.894 143.358   6
  11  -9  -9-110.440 150.536   3
  11   9  -9-57.3069 131.494   6
  10  -9  -9 14280.0 449.564   6
  10   9  -9 15146.3 548.089   6
  10  -9  -9 15006.8 555.881   3
   9  -9  -9 13058.0 405.936   6
   9   9  -9 12827.8 484.726   6
   9  -9  -9 12251.1 487.359   3
   8  -9  -9 488.165 146.845   3
   8  -9  -9 663.909 116.176   6
   8   9  -9 691.254 156.769   6
   7  -9  -9 8255.56 300.814   6
   7   9  -9 9137.60 384.297   6
   7  -9  -9 8612.06 375.445   3
   6  -9  -9 19667.7 478.655   6
   6   9  -9 19638.2 573.377   6
   6  -9  -9 19823.1 559.342   3
   5  -9  -9 3982.47 239.354   3
   5  -9  -9 4125.96 217.755   5
   5  -9  -9 4400.50 210.869   6
   5   9  -9 3948.70 251.420   6
   4  -9  -9 44511.3 860.671   3
   4  -9  -9 44097.7 833.935   5
   4   9  -9 42808.6 902.606   6
   4  -9  -9 44311.9 804.731   6
   3  -9  -9 216.402 95.6922   3
   3  -9  -9 358.781 113.373   5
   3   9  -9 116.484 99.2199   6
   3  -9  -9 278.556 91.4650   6
   2  -9  -9 24217.0 540.451   3
   2  -9  -9 23457.3 583.020   5
   2   9  -9 23814.0 619.647   6
   2  -9  -9 23805.6 543.367   6
   1  -9  -9 18768.9 440.789   3
   1   9  -9 17960.9 529.892   6
   1  -9  -9 17816.2 465.180   6
   0  -9  -9 252.869 101.157   6
   0   9  -9 300.153 120.464   6
   1  -9   9 28030.8 510.353   2
  -1   9  -9 28678.9 704.792   6
  -1  -9  -9 27284.7 632.499   6
  -2  -9  -9 22698.7 578.192   6
  -2   9  -9 23241.9 636.058   6
  -3  -9  -9 2507.71 201.939   6
  -3   9  -9 2909.17 234.176   6
  -4  -9  -9 18126.2 553.002   6
  -4   9  -9 17458.5 562.914   6
  -5  -9  -9 6653.83 345.200   6
  -5   9  -9 6561.12 348.583   6
  -6   9  -9 4940.35 320.810   6
  -6  -9  -9 4879.13 321.026   6
  -7  -9  -9 12789.9 534.949   6
  11 -10  -9 2591.30 270.082   3
  11  10  -9 2625.36 265.311   6
  10 -10  -9 1023.85 199.901   3
  10  10  -9 1080.36 191.544   6
   9 -10  -9 1219.55 196.987   3
   9 -10  -9 1244.23 141.034   6
   9  10  -9 1155.26 189.268   6
   8 -10  -9 159.165 130.567   3
   8 -10  -9 161.715 85.0930   6
   8  10  -9 376.515 143.153   6
   7 -10  -9 164.948 125.577   3
   7 -10  -9 175.952 79.9650   6
   7  10  -9 171.823 121.865   6
   6 -10  -9 3866.68 252.800   3
   6 -10  -9 3936.37 200.568   6
   6  10  -9 4063.21 265.301   6
   5 -10  -9 5122.01 271.686   3
   5 -10  -9 5338.94 253.237   5
   5 -10  -9 5343.67 227.204   6
   5  10  -9 5618.80 297.217   6
   4 -10  -9 2367.85 185.464   3
   4 -10  -9 2495.07 193.476   5
   4  10  -9 2341.98 200.495   6
   4 -10  -9 2462.02 162.846   6
   3 -10  -9 52.8092 88.1292   3
   3 -10  -9 58.9249 98.3199   5
   3  10  -9 30.6552 106.540   6
   3 -10  -9-50.1368 75.6557   6
   2 -10  -9 7971.54 295.821   3
   2 -10  -9 8058.54 331.680   5
   2  10  -9 8256.44 351.209   6
   2 -10  -9 8087.22 291.918   6
   1 -10  -9 64.8199 77.8821   3
   1  10  -9-19.3456 117.730   6
   1 -10  -9 99.8285 82.7460   6
   0  10  -9 1934.00 182.334   6
   0 -10  -9 2109.30 164.928   6
  -1 -10  -9 268.794 98.1868   6
   1 -10   9 167.129 71.1626   2
  -1  10  -9 153.611 116.369   6
  -2 -10  -9 5893.02 281.119   6
  -2  10  -9 5555.60 302.635   6
  -3  10  -9 2411.15 214.859   6
  -3 -10  -9 2495.10 197.378   6
  -4  10  -9 508.360 151.109   6
  -4 -10  -9 507.952 135.595   6
  -5  10  -9 371.025 146.205   6
  -5 -10  -9 344.303 135.320   6
  -6 -10  -9 3743.92 282.846   6
  -6  10  -9 3163.64 265.600   6
  -7 -10  -9 1139.50 193.680   6
  11 -11  -9 466.451 180.807   3
  11  11  -9 277.894 149.473   6
  10 -11  -9 2250.88 246.784   3
  10  11  -9 2470.45 252.175   6
   9 -11  -9 4114.92 304.402   3
   9  11  -9 4628.08 302.928   6
   8 -11  -9 141.343 134.341   3
   8 -11  -9 36.7750 73.9650   6
   8  11  -9-124.780 124.954   6
   7 -11  -9 4110.36 268.175   3
   7 -11  -9 3912.12 195.807   6
   7  11  -9 3782.50 260.270   6
   6 -11  -9 6825.96 329.766   3
   6 -11  -9 6565.82 251.333   6
   6  11  -9 6776.95 335.894   6
   5 -11  -9 417.418 118.817   3
   5 -11  -9 541.768 123.265   5
   5 -11  -9 779.709 104.019   6
   5  11  -9 821.409 159.722   6
   4 -11  -9 6767.05 301.963   3
   4 -11  -9 7344.28 310.266   5
   4  11  -9 7178.74 333.364   6
   4 -11  -9 7321.04 264.104   6
   3 -11  -9 6274.44 280.937   3
   3 -11  -9 6388.75 294.399   5
   3  11  -9 6754.03 323.986   6
   3 -11  -9 6567.33 255.372   6
   2 -11  -9 12418.3 379.820   3
   2 -11  -9 12835.4 424.351   5
   2  11  -9 11442.7 429.024   6
   2 -11  -9 12016.8 358.030   6
   1 -11  -9 3908.85 246.757   5
   1  11  -9 3760.95 247.714   6
   1 -11  -9 3615.65 199.738   6
   0 -11  -9 785.120 116.140   6
   0  11  -9 795.606 144.136   6
  -1 -11  -9 1836.70 162.248   6
  -1  11  -9 1709.52 180.695   6
  -2 -11  -9 7353.13 312.115   6
  -2  11  -9 7549.45 357.782   6
  -3  11  -9 19.9591 109.106   6
  -3 -11  -9 95.3278 104.646   6
  -4 -11  -9 8327.86 368.317   6
  -4  11  -9 7559.71 369.939   6
  -5  11  -9 2363.65 228.443   6
  -5 -11  -9 2220.02 224.232   6
  -6  11  -9 445.222 157.085   6
  -6 -11  -9 307.135 155.747   6
  -7 -11  -9 3088.84 276.487   6
  11 -12  -9 8911.85 461.259   3
  11  12  -9 8529.99 436.074   6
  10  12  -9 3754.15 296.144   6
   9 -12  -9 2627.07 255.617   3
   9  12  -9 2665.29 248.598   6
   8 -12  -9 9761.85 423.224   3
   8  12  -9 9356.49 414.912   6
   7 -12  -9 372.334 137.614   3
   7 -12  -9 497.484 89.4652   6
   7  12  -9 426.607 142.620   6
   6 -12  -9 11351.8 427.841   3
   6 -12  -9 11031.8 325.037   6
   6  12  -9 11612.1 439.436   6
   5 -12  -9 20591.1 569.985   3
   5 -12  -9 20605.3 466.992   6
   5  12  -9 20225.1 587.186   6
   4 -12  -9 1656.92 161.492   3
   4 -12  -9 1621.86 164.225   5
   4  12  -9 1412.38 179.372   6
   4 -12  -9 1344.48 119.356   6
   3 -12  -9 22671.3 565.512   3
   3 -12  -9 22951.2 588.292   5
   3  12  -9 22492.7 618.312   6
   3 -12  -9 22966.3 509.726   6
   2 -12  -9 14993.1 427.109   3
   2 -12  -9 14000.8 456.130   5
   2  12  -9 14154.9 479.995   6
   2 -12  -9 14881.3 398.590   6
   1 -12  -9 11354.9 416.196   5
   1  12  -9 10813.9 413.967   6
   1 -12  -9 10965.8 344.289   6
   0 -12   9 20199.1 458.406   2
   0  12  -9 20923.3 588.141   6
   0 -12  -9 19795.8 497.575   6
  -1  12  -9 4916.73 284.397   6
  -1 -12  -9 4868.15 244.230   6
  -2 -12  -9 6526.66 293.985   6
  -2  12  -9 7121.72 345.532   6
  -3 -12  -9 27158.1 668.490   6
  -3  12  -9 27488.5 727.235   6
  -4  12  -9 1767.60 218.457   6
  -4 -12  -9 1146.28 159.684   6
  -5 -12  -9 9674.27 424.926   6
  -5  12  -9 9595.18 434.470   6
  -6 -12  -9 9946.92 453.798   6
  -6  12  -9 10423.0 460.022   6
  -7 -12  -9 913.107 188.602   6
  10 -13  -9 2572.55 266.686   3
  10  13  -9 2318.43 244.529   6
   9 -13  -9 1459.44 208.289   3
   9  13  -9 1430.31 194.004   6
   8 -13  -9 237.603 148.539   3
   8  13  -9 167.099 130.486   6
   7 -13  -9 5178.66 309.568   3
   7  13  -9 5451.93 319.299   6
   6 -13  -9 1809.29 200.350   3
   6  13  -9 1654.00 195.339   6
   5 -13  -9 5321.66 286.298   3
   5 -13  -9 5348.98 214.722   6
   5  13  -9 5676.07 314.588   6
   4 -13  -9 12849.7 432.995   3
   4 -13  -9 13263.0 433.471   5
   4 -13  -9 13272.2 352.215   6
   4  13  -9 12612.2 458.125   6
   3 -13  -9 7466.47 314.565   3
   3 -13  -9 7525.35 333.216   5
   3  13  -9 7107.46 340.694   6
   3 -13  -9 7126.65 256.757   6
   2 -13  -9 14315.8 422.907   3
   2 -13  -9 13893.8 459.492   5
   2  13  -9 13896.1 476.955   6
   2 -13  -9 14864.3 392.131   6
  -1 -13   9 7411.53 281.544   2
   1 -13  -9 7853.35 351.216   5
   1  13  -9 8281.38 366.550   6
   1 -13  -9 7641.33 282.176   6
   0 -13  -9 274.270 93.3092   6
   0 -13   9 108.585 81.5019   2
   0 -13  -9-93.5160 117.757   5
   0  13  -9-3.66045 113.152   6
  -1  13  -9 5104.00 290.591   6
  -1 -13  -9 5075.23 246.453   6
  -2 -13  -9 9547.45 354.941   6
  -2  13  -9 9717.80 404.981   6
  -3 -13  -9 1643.07 169.584   6
  -3  13  -9 1283.29 176.889   6
  -4 -13  -9 5959.07 313.792   6
  -4  13  -9 6272.22 342.693   6
  -5  13  -9 1294.05 191.089   6
  -5 -13  -9 1310.92 185.826   6
  -6  13  -9 242.978 143.644   6
  -6 -13  -9 403.367 146.656   6
  -7 -13  -9 7794.79 417.593   6
  10 -14  -9 3313.82 297.181   3
  10  14  -9 3652.92 297.707   6
   9 -14  -9 51.4304 149.094   3
   9  14  -9 285.965 142.411   6
   8 -14  -9-23.0274 138.153   3
   8  14  -9 182.469 130.738   6
   7 -14  -9 103.147 148.245   3
   7  14  -9 104.111 126.658   6
   6 -14  -9 23.9610 119.323   3
   6  14  -9 371.867 139.093   6
   5 -14  -9 2462.87 212.389   3
   5  14  -9 2772.23 228.260   6
   4 -14  -9 914.396 153.951   3
   4 -14  -9 733.778 149.651   5
   4 -14  -9 904.113 100.490   6
   4  14  -9 893.464 170.035   6
   3 -14  -9 2092.89 185.938   3
   3 -14  -9 2195.47 198.513   5
   3 -14  -9 1989.63 136.854   6
   3  14  -9 1902.45 197.432   6
   2 -14  -9 1218.11 164.988   5
   2  14  -9 1451.96 177.360   6
   2 -14  -9 1246.15 118.092   6
  -1 -14   9 413.752 96.8644   2
   1 -14  -9 512.767 146.066   5
   1  14  -9 599.301 139.570   6
   1 -14  -9 738.144 105.499   6
   0 -14  -9 398.112 128.165   5
   0 -14   9 381.703 92.5830   2
   0  14  -9 411.520 131.514   6
   0 -14  -9 520.172 97.4222   6
  -1 -14  -9 925.540 126.556   6
  -1  14  -9 850.533 152.939   6
  -2 -14  -9 934.528 132.153   6
  -2  14  -9 1244.78 173.452   6
  -3 -14  -9 571.562 129.034   6
  -3  14  -9 273.103 128.152   6
  -4 -14  -9 30.8386 108.935   6
  -4  14  -9 421.667 148.301   6
  -5  14  -9 78.8320 124.640   6
  -5 -14  -9 47.0065 115.400   6
  -6  14  -9 75.7530 131.330   6
  -6 -14  -9 264.533 149.463   6
  -7 -14  -9 1220.90 212.674   6
  10 -15  -9 11476.5 510.419   3
  10  15  -9 11277.5 510.826   6
   9 -15  -9 1057.47 190.020   3
   9  15  -9 907.476 184.974   6
   8 -15  -9 444.538 155.267   3
   8  15  -9 493.997 162.953   6
   7 -15  -9 10212.7 437.378   3
   7  15  -9 10261.6 440.315   6
   6 -15  -9 8490.32 383.157   3
   6  15  -9 8094.47 387.891   6
   5 -15  -9 7405.32 348.469   3
   5  15  -9 6367.98 333.508   6
   4 -15  -9 26688.7 673.559   3
   4 -15  -9 27784.4 682.074   5
   4  15  -9 26305.1 699.752   6
   3 -15  -9 4814.07 278.207   5
   3  15  -9 4492.81 280.692   6
  -2 -15   9 5350.24 260.139   2
   2 -15  -9 5660.49 310.411   5
   2  15  -9 5188.28 297.821   6
   2 -15  -9 5710.10 226.580   6
  -1 -15   9 15398.4 429.715   2
   1 -15  -9 15432.5 511.086   5
   1  15  -9 15745.2 519.919   6
   1 -15  -9 16005.8 411.087   6
   0 -15  -9 361.181 138.264   5
   0 -15   9 342.419 87.9704   2
   0  15  -9 464.550 136.598   6
   0 -15  -9 366.952 90.4233   6
  -1 -15  -9 12731.5 483.703   5
  -1  15  -9 12463.7 459.835   6
  -1 -15  -9 11913.9 380.986   6
  -2 -15  -9 10744.0 373.506   6
  -2  15  -9 10529.5 433.859   6
  -3 -15  -9 489.179 115.136   6
  -3  15  -9 555.713 138.035   6
  -4 -15  -9 14135.1 483.125   6
  -4  15  -9 14490.9 527.803   6
  -5 -15  -9 6980.67 359.973   6
  -5  15  -9 5575.36 339.467   6
  -6 -15  -9 1383.07 198.364   6
   9 -16  -9 6516.95 376.589   3
   9  16  -9 5964.82 359.657   6
   8 -16  -9 16846.4 589.354   3
   8  16  -9 17211.4 589.867   6
   7 -16  -9 682.266 167.287   3
   7  16  -9 634.447 157.506   6
   6 -16  -9 21233.0 630.574   3
   6  16  -9 20733.4 634.663   6
   5 -16  -9 8784.76 385.038   3
   5  16  -9 9066.07 398.497   6
   4 -16  -9 2653.73 220.626   3
   4 -16  -9 2678.22 226.489   5
   4  16  -9 2544.01 227.419   6
  -3 -16   9 21643.5 576.265   2
   3 -16  -9 22247.7 617.484   5
   3  16  -9 22701.5 637.502   6
  -2 -16   9 3402.22 214.390   2
   2 -16  -9 3976.81 262.963   5
   2  16  -9 3739.37 254.396   6
   1 -16  -9 1007.34 172.252   5
  -1 -16   9 1449.68 147.416   2
   1  16  -9 1206.57 166.386   6
   0 -16  -9 21923.3 640.927   5
   0 -16   9 20565.5 497.364   2
   0  16  -9 21219.6 623.313   6
   0 -16  -9 21550.4 504.284   6
  -1 -16  -9 62.8442 81.9063   6
  -1  16  -9-29.1293 115.358   6
  -2 -16  -9 5086.96 254.606   6
  -2 -16  -9 4409.74 310.030   5
  -2  16  -9 5090.81 305.039   6
  -3 -16  -9 13818.7 448.654   6
  -3  16  -9 14389.1 518.822   6
  -4 -16  -9 383.535 127.833   6
  -4  16  -9 459.876 149.817   6
  -5 -16  -9 8903.85 405.054   6
  -5  16  -9 9459.30 436.815   6
  -6 -16  -9 13020.6 516.623   6
   9 -17  -9 94.2081 145.521   3
   9  17  -9 13.7510 140.380   6
   8 -17  -9 377.557 162.208   3
   8  17  -9 314.186 156.800   6
   7 -17  -9 3045.03 264.995   3
   7  17  -9 3039.02 268.058   6
   6 -17  -9 119.175 134.946   3
   6  17  -9 234.015 132.897   6
   5 -17  -9 450.368 144.040   3
   5  17  -9 423.324 139.488   6
  -4 -17   9 506.451 132.641   2
   4  17  -9 242.267 124.625   6
  -3 -17   9 40.9906 101.765   2
   3 -17  -9 256.711 145.268   5
   3  17  -9 204.225 127.050   6
   2 -17  -9 1555.31 194.460   5
  -2 -17   9 1061.36 141.476   2
   2  17  -9 1428.84 182.257   6
  -1 -17   9 2347.63 180.421   2
   1 -17  -9 2129.48 219.410   5
   1  17  -9 2613.02 221.889   6
   0 -17  -9-66.9210 134.559   5
   0  17  -9 225.699 136.326   6
  -1 -17  -9 4170.70 297.326   5
  -1  17  -9 4436.40 284.405   6
  -2 -17  -9 47.2021 149.549   5
  -2  17  -9-22.0050 118.255   6
  -3 -17  -9 326.749 111.300   6
  -3 -17  -9 219.476 176.293   5
  -3  17  -9 229.273 127.234   6
  -4 -17  -9 105.543 104.296   6
  -4  17  -9 251.574 128.966   6
  -5 -17  -9 832.544 164.431   6
  -5  17  -9 537.070 153.626   6
  -6 -17  -9 3630.34 289.001   6
   8 -18  -9 3946.84 305.941   3
   8  18  -9 4556.51 321.075   6
   7 -18  -9 354.058 161.675   3
   7  18  -9 667.711 159.814   6
   6 -18  -9 6078.44 348.015   3
   6  18  -9 5614.21 333.145   6
  -5 -18   9 2264.58 213.053   2
   5  18  -9 2493.31 232.465   6
  -4 -18   9 36.6681 112.327   2
   4  18  -9 181.377 129.444   6
  -3 -18   9 4891.86 273.826   2
   3 -18  -9 4549.77 295.365   5
   3  18  -9 4523.91 287.622   6
   2 -18  -9 4613.70 305.237   5
  -2 -18   9 4838.30 260.308   2
   2  18  -9 5180.99 306.498   6
   1 -18  -9 52.2500 136.313   5
  -1 -18   9-39.9841 93.5129   2
   1  18  -9-56.1901 120.926   6
   0 -18  -9 7036.39 372.378   5
   0  18  -9 6294.34 341.938   6
  -1 -18  -9 1183.10 202.797   5
  -1  18  -9 1449.26 185.723   6
  -2 -18  -9 494.301 164.888   5
  -2  18  -9 492.790 146.212   6
  -3 -18  -9 1634.90 224.118   5
  -3  18  -9 1613.00 203.485   6
  -4  18  -9 156.366 123.120   6
  -5  18  -9-23.3973 122.262   6
   8 -19  -9 613.611 188.421   3
   8  19  -9 462.629 171.181   6
   7 -19  -9 15724.0 575.419   3
  -7 -19   9 15081.0 550.671   2
   7  19  -9 15755.2 571.578   6
  -6 -19   9 5597.69 331.477   2
   6  19  -9 5304.73 326.653   6
  -5 -19   9 1892.16 209.788   2
   5  19  -9 1727.34 207.051   6
  -4 -19   9 13876.2 486.487   2
   4  19  -9 14578.3 523.756   6
   3 -19  -9 2753.69 244.361   5
  -3 -19   9 2368.18 208.111   2
   3  19  -9 2213.91 218.184   6
   2 -19  -9 12750.7 493.116   5
  -2 -19   9 12782.1 432.589   2
   2  19  -9 14367.1 505.185   6
   1 -19  -9 13401.3 508.882   5
  -1 -19   9 12779.8 415.845   2
   1  19  -9 12878.4 487.133   6
   0 -19  -9 562.822 169.360   5
   0  19  -9 861.777 163.047   6
  -1 -19  -9 15771.2 571.873   5
  -1  19  -9 16209.5 553.725   6
  -2 -19  -9 13580.2 540.159   5
  -2  19  -9 13306.5 503.601   6
  -3 -19  -9-178.698 162.685   5
  -3  19  -9 576.157 149.708   6
  -4  19  -9 10946.3 465.771   6
   8 -20  -9 8536.01 445.523   3
  -7 -20   9 462.195 174.175   2
   7  20  -9 350.962 153.171   6
  -6 -20   9 2380.25 239.991   2
   6  20  -9 2429.66 242.637   6
  -5 -20   9 4841.70 310.270   2
   5  20  -9 4942.32 315.430   6
  -4 -20   9 428.247 137.835   2
   4  20  -9 657.912 151.508   6
  -3 -20   9 4638.39 281.905   2
   3  20  -9 5022.83 309.142   6
   2 -20  -9 896.915 176.536   5
  -2 -20   9 1133.78 157.688   2
   2  20  -9 877.972 167.641   6
   1 -20  -9 582.484 172.133   5
  -1 -20   9 468.675 124.133   2
   1  20  -9 305.479 132.367   6
   0 -20  -9 8476.50 425.771   5
   0  20  -9 7514.14 377.457   6
  -1 -20  -9 263.068 163.855   5
  -1  20  -9 17.3626 128.176   6
  -2 -20  -9 2457.52 250.247   5
  -2  20  -9 2591.42 251.384   6
  -3  20  -9 3618.43 275.691   6
  -4  20  -9 67.3513 123.756   6
  -7 -21   9 1040.17 189.932   2
   7  21  -9 1076.38 189.214   6
  -6 -21   9 3229.86 271.393   2
   6  21  -9 3282.56 279.852   6
  -5 -21   9-191.185 140.776   2
   5  21  -9-6.82843 133.202   6
  -4 -21   9 582.741 155.832   2
   4  21  -9 857.792 168.487   6
  -3 -21   9 77.4496 126.370   2
   3  21  -9 117.922 132.266   6
   2 -21  -9 2552.86 253.846   5
  -2 -21   9 1859.45 187.583   2
   2  21  -9 2126.96 223.553   6
   1 -21  -9 2057.31 237.569   5
   1  21  -9 1663.41 199.901   6
   0 -21  -9 245.496 168.848   5
   0  21  -9 189.778 117.488   6
  -1 -21  -9 261.559 152.828   5
  -1  21  -9 164.655 127.951   6
  -2  21  -9-63.6271 126.744   6
  -3  21  -9 47.9228 133.372   6
  -6 -22   9 5569.41 347.503   2
   6  22  -9 6080.71 365.923   6
  -5 -22   9 14419.9 533.627   2
   5  22  -9 14953.1 555.649   6
  -4 -22   9-30.4920 124.235   2
   4  22  -9 25.7223 122.596   6
  -3 -22   9 4863.51 294.347   2
   3  22  -9 5070.61 325.680   6
   2 -22  -9 7706.37 403.889   5
  -2 -22   9 6850.26 337.700   2
   2  22  -9 7351.74 379.614   6
   1 -22  -9 3545.55 290.752   5
   1  22  -9 2994.29 255.602   6
   0 -22  -9 9493.52 456.606   5
   0  22  -9 9435.15 425.154   6
  -1  22  -9 1789.66 210.707   6
  -2  22  -9 2246.12 231.781   6
  -3  22  -9 3514.16 279.335   6
  -6 -23   9 1673.98 228.382   2
  -5 -23   9 3882.05 294.087   2
   5  23  -9 3739.79 296.916   6
  -4 -23   9 8850.08 411.987   2
   4  23  -9 9790.18 444.794   6
   3  23  -9 2224.52 231.874   6
  -3 -23   9 2271.08 223.324   2
  -2 -23   9 12736.9 467.509   2
   2  23  -9 13074.6 507.203   6
   1 -23  -9 9998.79 475.159   5
   1  23  -9 9831.79 435.047   6
   0  23  -9 1716.35 218.401   6
  -1  23  -9 11381.4 476.257   6
  -2  23  -9 6367.02 358.729   6
  -5 -24   9 546.321 166.569   2
   4  24  -9 505.189 146.868   6
  -4 -24   9 453.520 150.166   2
   3  24  -9 2160.39 228.745   6
  -3 -24   9 2218.20 229.644   2
   2  24  -9 873.145 186.656   6
   1  24  -9 67.7920 124.528   6
   0  24  -9 233.341 125.288   6
  -1  24  -9 61.3418 133.333   6
  -2  24  -9 208.863 142.621   6
   3  25  -9 131.567 136.479   6
  -3 -25   9 323.064 152.342   2
   2  25  -9 1176.54 188.076   6
   1  25  -9 7406.79 387.227   6
   0  25  -9 286.518 138.970   6
  -1  25  -9 2743.61 262.412   6
  12   0 -10 1118.49 192.312   6
  11   0 -10 114.453 138.436   6
  10   0 -10 9181.72 406.823   6
   9   0 -10 4817.30 285.889   6
   8   0 -10 1962.34 196.775   6
   7   0 -10 35593.4 805.593   6
   6   0 -10 2201.85 196.727   6
   5   0 -10 9052.44 265.433   5
   5   0 -10 8532.52 353.055   6
   4   0 -10 26970.0 659.500   6
   3   0 -10 2961.28 214.930   6
   2   0 -10 12691.2 433.201   6
   1   0 -10 27619.7 671.256   6
   0   0 -10 2321.28 198.891   6
  -1   0 -10 26486.5 672.992   6
  -2   0 -10 5741.51 313.002   6
  -3   0 -10 4075.73 267.886   6
  -4   0 -10 20339.6 630.406   6
  -5   0 -10 5239.61 323.464   6
  -6   0 -10 21165.3 684.899   6
  13  -1 -10 913.027 193.817   6
  12  -1 -10 821.549 176.097   6
  12   1 -10 1021.94 194.868   6
  11  -1 -10 2277.06 227.511   6
  11   1 -10 2258.55 237.527   6
  10  -1 -10 283.474 135.515   6
  10   1 -10 130.752 137.917   6
   9  -1 -10 1918.06 191.982   6
   9   1 -10 2088.28 212.479   6
   8  -1 -10 4954.76 283.468   6
   8   1 -10 4869.19 286.405   6
   7  -1 -10 573.168 143.478   6
   7   1 -10 577.004 148.048   6
   6  -1 -10 2676.07 205.815   6
   6   1 -10 2532.15 207.965   6
   5  -1 -10 4342.26 187.059   5
   5   1 -10 4142.40 175.260   5
   5   1 -10 4090.40 252.347   6
   5  -1 -10 3961.24 245.456   6
   4   1 -10 1611.51 166.637   6
   4  -1 -10 1560.29 165.693   6
   3   1 -10 19368.4 547.072   6
   3  -1 -10 19708.2 543.766   6
   2   1 -10 2953.25 218.472   6
   2  -1 -10 3293.45 219.610   6
   1   1 -10 2672.77 208.514   6
   1  -1 -10 2380.02 201.137   6
   0   1 -10 3126.12 225.493   6
   0  -1 -10 3028.57 219.124   6
  -1   1 -10 1075.50 168.112   6
  -1  -1 -10 1136.58 157.524   6
  -2   1 -10 10150.5 407.361   6
  -2  -1 -10 9715.89 399.968   6
  -3   1 -10 5934.46 328.940   6
  -3  -1 -10 6033.51 327.200   6
  -4   1 -10 420.292 147.381   6
  -4  -1 -10 346.965 137.804   6
  -5   1 -10 6303.50 360.591   6
  -5  -1 -10 6832.71 369.823   6
  -6   1 -10 3530.16 296.253   6
  -6  -1 -10 3497.29 282.267   6
  13  -2 -10 246.589 151.477   6
  12  -2 -10 275.289 146.803   6
  12   2 -10 257.655 132.704   6
  11  -2 -10 259.474 146.317   6
  11   2 -10 296.481 148.278   6
  10  -2 -10 663.206 152.304   6
  10   2 -10 651.892 157.645   6
   9  -2 -10 1073.66 158.108   6
   9   2 -10 1162.26 175.666   6
   8  -2 -10 39.2208 104.403   6
   8   2 -10 174.458 126.869   6
   7  -2 -10 3535.98 232.119   6
   7   2 -10 3525.84 246.042   6
   6  -2 -10 447.208 131.322   6
   6   2 -10 513.401 138.112   6
   5  -2 -10 537.492 98.7403   5
   5   2 -10 327.901 79.8480   5
   5   2 -10 648.747 137.372   6
   5  -2 -10 584.929 128.179   6
   4   2 -10 697.489 141.525   6
   4  -2 -10 605.685 123.321   6
   3   2 -10 627.220 135.282   6
   3  -2 -10 682.891 131.930   6
   2   2 -10 111.432 109.348   6
   2  -2 -10 90.2662 97.3090   6
   1   2 -10 466.803 122.117   6
   1  -2 -10 350.357 105.569   6
   0  -2 -10 255.520 73.0918   3
   0   2 -10 319.465 119.397   6
   0  -2 -10 317.561 119.011   6
  -1  -2 -10 37.9766 93.2723   6
  -1   2 -10-1.29949 107.835   6
  -2   2 -10-47.9272 113.520   6
  -2  -2 -10 86.4237 114.559   6
  -3   2 -10 222.249 118.417   6
  -3  -2 -10 49.7343 119.080   6
  -4  -2 -10 3098.39 249.691   6
  -4   2 -10 2886.40 245.002   6
  -5   2 -10 889.588 171.425   6
  -5  -2 -10 1125.13 190.887   6
  -6   2 -10 3628.73 292.717   6
  -6  -2 -10 3554.23 287.190   6
  13  -3 -10 1637.22 215.865   6
  12  -3 -10 714.903 165.998   6
  12   3 -10 435.841 155.584   6
  11  -3 -10 6383.22 342.401   6
  11   3 -10 6195.74 358.644   6
  10  -3 -10 1236.67 171.082   6
  10   3 -10 1456.65 194.644   6
   9  -3 -10 9831.96 397.742   6
   9   3 -10 10744.7 441.611   6
   8  -3 -10 10691.8 403.597   6
   8   3 -10 11838.9 447.732   6
   7  -3 -10 501.065 127.452   6
   7   3 -10 797.412 150.646   6
   6  -3 -10 13601.4 339.086   5
   6  -3 -10 13352.2 434.410   6
   6   3 -10 13461.4 461.641   6
   5  -3 -10 2675.84 164.819   5
   5   3 -10 2556.98 208.487   6
   5  -3 -10 2858.43 206.870   6
   4  -3 -10 5467.25 235.355   5
   4   3 -10 4963.53 273.620   6
   4  -3 -10 5130.79 265.993   6
   3   3 -10 21444.0 582.716   6
   3  -3 -10 20995.4 557.483   6
   2   3 -10 9469.01 381.344   6
   2  -3 -10 9583.76 359.609   6
   1   3 -10 4678.75 268.799   6
   1  -3 -10 4543.91 250.956   6
   0   3 -10 13065.0 456.053   6
   0  -3 -10 12874.6 430.208   6
  -1  -3 -10 23.9375 93.7525   6
  -1   3 -10 183.727 114.201   6
  -2   3 -10 5749.91 312.129   6
  -2  -3 -10 5154.07 291.499   6
  -3  -3 -10 15731.6 528.114   6
  -3   3 -10 16631.1 551.637   6
  -4   3 -10 51.8566 124.720   6
  -4  -3 -10 213.545 117.346   6
  -5   3 -10 18376.1 618.798   6
  -5  -3 -10 17828.5 606.973   6
  -6   3 -10 3278.15 276.138   6
  -6  -3 -10 3229.03 278.422   6
  13  -4 -10 2349.69 249.266   6
  12  -4 -10 3548.90 284.956   6
  12   4 -10 3869.95 306.395   6
  11  -4 -10 57.3044 116.789   6
  11   4 -10 154.075 137.408   6
  10  -4 -10 5425.83 306.873   6
  10   4 -10 5420.33 330.378   6
   9  -4 -10 5272.76 291.575   6
   9   4 -10 6333.07 341.025   6
   8  -4 -10 4402.45 257.997   6
   8   4 -10 4909.88 298.921   6
   7  -4 -10 15346.2 472.134   6
   7   4 -10 15208.7 506.560   6
   6  -4 -10 6711.12 240.561   5
   6  -4 -10 6354.36 292.334   6
   6   4 -10 6122.30 312.476   6
   5  -4 -10 11945.6 341.871   5
   5   4 -10 11345.7 418.466   6
   5  -4 -10 11588.8 396.649   6
   4  -4 -10 10312.0 330.948   5
   4   4 -10 9888.45 386.605   6
   4  -4 -10 9481.15 360.113   6
   3   4 -10 186.069 108.630   6
   3  -4 -10 234.073 113.030   6
   2   4 -10 12824.3 444.454   6
   2  -4 -10 12313.3 410.922   6
   1  -4 -10 8029.03 268.152   3
   1   4 -10 8010.36 349.109   6
   1  -4 -10 8408.37 338.372   6
   0   4 -10-45.4699 102.412   6
   0  -4 -10 52.7400 93.0883   6
  -1   4 -10 20603.6 592.559   6
  -1  -4 -10 20036.3 565.690   6
  -2   4 -10 13903.2 491.130   6
  -2  -4 -10 13431.5 469.455   6
  -3   4 -10 530.291 148.241   6
  -3  -4 -10 584.100 142.422   6
  -4  -4 -10 21988.3 650.531   6
  -4   4 -10 22305.7 666.866   6
  -5   4 -10 1251.90 186.376   6
  -5  -4 -10 1508.66 206.068   6
  -6  -4 -10 4896.85 329.706   6
  12  -5 -10 173.651 137.812   6
  11  -5 -10 351.921 135.118   6
  11   5 -10 530.377 157.613   6
  10  -5 -10 101.833 112.476   6
  10   5 -10-2.44419 131.166   6
   9  -5 -10 469.007 129.399   6
   9   5 -10 352.914 137.677   6
   8  -5 -10-43.5305 96.4539   6
   8   5 -10-2.91900 129.717   6
   7  -5 -10 930.267 147.529   6
   7   5 -10 835.557 163.625   6
   6  -5 -10 97.4657 78.4575   5
   6  -5 -10 24.5719 92.0587   6
   6   5 -10-97.1584 113.358   6
   5  -5 -10 104.982 91.7216   5
   5   5 -10 120.239 111.684   6
   5  -5 -10 51.6099 99.7970   6
   4  -5 -10 239.996 103.807   5
   4   5 -10 205.669 116.189   6
   4  -5 -10 329.019 109.597   6
   3   5 -10-16.3312 106.571   6
   3  -5 -10 172.559 99.6350   6
   2  -5 -10 86.2858 84.0827   3
   2   5 -10 100.842 115.431   6
   2  -5 -10 270.234 105.098   6
   1  -5 -10-27.3627 76.8352   3
   1   5 -10 74.5172 110.862   6
   1  -5 -10-177.682 103.118   6
   0   5 -10 273.651 117.780   6
   0  -5 -10 56.5182 89.2897   6
  -1  -5 -10 471.099 119.840   6
  -1   5 -10 624.002 147.840   6
  -2   5 -10 2402.29 212.871   6
  -2  -5 -10 2884.99 224.865   6
  -3   5 -10 711.191 143.479   6
  -3  -5 -10 865.219 150.640   6
  -4   5 -10 110.568 141.473   6
  -4  -5 -10-169.523 124.424   6
  -5   5 -10-54.7999 117.144   6
  -5  -5 -10 55.9776 127.599   6
  -6  -5 -10 28.2134 121.668   6
  11  -6 -10 486.625 142.296   6
  11   6 -10 684.261 194.246   6
  10  -6 -10 2141.58 196.729   6
  10   6 -10 2284.28 239.422   6
   9  -6 -10 6215.65 303.465   6
   9   6 -10 6507.40 352.448   6
   8  -6 -10 735.078 131.751   6
   8   6 -10 804.771 163.538   6
   7  -6 -10 8819.22 345.846   6
   7   6 -10 9676.86 403.452   6
   6  -6 -10 1306.23 149.769   6
   6   6 -10 1523.97 183.722   6
   5  -6 -10 2652.52 177.899   5
   5  -6 -10 2526.25 186.473   6
   5   6 -10 2389.68 214.425   6
   4  -6 -10 5757.66 257.004   5
   4   6 -10 5417.53 292.459   6
   4  -6 -10 5096.33 260.242   6
   3  -6 -10 1089.67 135.542   3
   3  -6 -10 1379.15 156.802   5
   3   6 -10 1374.08 171.806   6
   3  -6 -10 1386.94 151.978   6
   2  -6 -10 4709.94 223.932   3
   2   6 -10 4360.21 269.740   6
   2  -6 -10 4510.80 244.191   6
   1  -6 -10 3168.04 174.634   3
   1   6 -10 2701.86 219.593   6
   1  -6 -10 2573.74 192.512   6
   0   6 -10 533.945 136.122   6
   0  -6 -10 656.898 134.468   6
  -1   6 -10 5012.02 294.371   6
  -1  -6 -10 5098.09 275.740   6
  -2   6 -10 2975.44 241.259   6
  -2  -6 -10 3273.40 232.425   6
  -3  -6 -10 2696.94 230.866   6
  -3   6 -10 2426.57 225.740   6
  -4  -6 -10 16676.9 559.701   6
  -4   6 -10 16177.1 567.503   6
  -5   6 -10 1540.89 192.874   6
  -5  -6 -10 1211.26 182.024   6
  -6  -6 -10 5112.57 345.736   6
  11  -7 -10 8704.70 383.163   6
  11   7 -10 8695.39 440.293   6
  10  -7 -10 1606.15 178.359   6
  10   7 -10 1042.05 182.362   6
   9  -7 -10 7144.96 318.605   6
   9   7 -10 7313.51 380.040   6
   8  -7 -10 13331.9 430.642   6
   8   7 -10 13103.8 490.463   6
   7  -7 -10-80.1210 93.7278   6
   7   7 -10 22.9629 118.083   6
   6  -7 -10 16802.1 478.381   6
   6   7 -10 17564.6 549.689   6
   5  -7 -10 12037.7 367.880   5
   5  -7 -10 11283.8 378.962   6
   5   7 -10 11366.5 434.238   6
   5  -7 -10 11215.8 404.951   3
   4  -7 -10 9499.71 337.055   5
   4   7 -10 9298.05 385.318   6
   4  -7 -10 9409.55 343.514   6
   4  -7 -10 9385.80 352.974   3
   3  -7 -10 25154.5 586.567   3
   3  -7 -10 24447.9 594.719   5
   3   7 -10 24835.7 655.773   6
   3  -7 -10 24595.2 593.957   6
   2  -7 -10 1654.57 142.444   3
   2   7 -10 1326.01 168.372   6
   2  -7 -10 1487.57 150.801   6
   1  -7 -10 15572.8 393.730   3
   1   7 -10 15467.7 508.366   6
   1  -7 -10 14974.9 455.124   6
   0   7 -10 25185.0 667.603   6
   0  -7 -10 25287.6 623.979   6
  -1  -7 -10 2552.36 201.468   6
  -1   7 -10 2607.08 221.180   6
  -2   7 -10 11735.4 453.126   6
  -2  -7 -10 12255.9 440.113   6
  -3  -7 -10 26922.1 706.891   6
  -3   7 -10 27025.3 731.322   6
  -4   7 -10 42.0556 132.203   6
  -4  -7 -10-90.8203 112.675   6
  -5  -7 -10 5969.64 349.068   6
  -5   7 -10 6585.05 367.179   6
  -6  -7 -10 4981.63 338.195   6
  11   8 -10 123.566 148.354   6
  11  -8 -10 74.2835 150.733   3
  10  -8 -10 3169.93 227.842   6
  10   8 -10 3388.05 282.573   6
  10  -8 -10 3028.48 275.298   3
   9  -8 -10 1627.68 168.436   6
   9   8 -10 1285.55 194.451   6
   8  -8 -10 513.604 114.986   6
   8   8 -10 818.909 166.605   6
   7  -8 -10 6923.31 298.448   6
   7   8 -10 6751.49 349.701   6
   7  -8 -10 6654.37 345.616   3
   6  -8 -10 523.633 145.704   3
   6  -8 -10 868.480 127.520   6
   6   8 -10 723.599 152.689   6
   5  -8 -10 3224.21 204.575   5
   5  -8 -10 3231.30 201.976   6
   5   8 -10 2799.29 234.731   6
   5  -8 -10 3175.01 224.962   3
   4  -8 -10 10442.0 378.373   3
   4  -8 -10 11168.7 371.442   5
   4   8 -10 10276.6 414.645   6
   4  -8 -10 9941.79 351.329   6
   3  -8 -10 633.553 125.274   3
   3  -8 -10 639.725 133.725   5
   3   8 -10 693.289 143.559   6
   3  -8 -10 731.112 124.835   6
   2  -8 -10 6112.00 259.131   3
   2   8 -10 6564.36 330.380   6
   2  -8 -10 6094.00 277.410   6
   1  -8 -10 1475.83 131.002   3
   1   8 -10 1516.42 181.876   6
   1  -8 -10 1830.65 171.099   6
   0   8 -10-35.1251 105.896   6
   0  -8 -10 140.274 103.984   6
  -1   8 -10 8316.92 376.846   6
  -1  -8 -10 8149.96 344.934   6
  -2   8 -10 10497.6 433.313   6
  -2  -8 -10 11481.4 425.341   6
  -3   8 -10 1558.05 192.521   6
  -3  -8 -10 1288.99 179.731   6
  -4  -8 -10 6310.75 340.500   6
  -4   8 -10 5588.55 338.688   6
  -5   8 -10 802.098 165.886   6
  -5  -8 -10 638.690 157.051   6
  -6  -8 -10 1369.38 202.944   6
  10  -9 -10 103.444 153.099   3
  10   9 -10 206.468 131.287   6
   9  -9 -10 329.200 154.558   3
   9  -9 -10 300.092 104.559   6
   9   9 -10 452.214 157.036   6
   8  -9 -10 200.292 145.550   3
   8  -9 -10 205.023 102.105   6
   8   9 -10 236.969 132.043   6
   7  -9 -10 271.701 139.115   3
   7  -9 -10 417.652 107.219   6
   7   9 -10 372.417 141.556   6
   6  -9 -10 108.970 113.811   3
   6  -9 -10 120.592 84.6319   6
   6   9 -10 182.482 122.540   6
   5  -9 -10 5798.64 297.174   3
   5  -9 -10 5249.04 258.684   5
   5  -9 -10 5385.33 254.009   6
   5   9 -10 6296.37 327.924   6
   4  -9 -10 1143.77 152.120   3
   4  -9 -10 1211.39 159.273   5
   4   9 -10 1112.67 167.168   6
   4  -9 -10 909.222 124.408   6
   3  -9 -10 1244.39 144.816   3
   3  -9 -10 1618.59 166.908   5
   3   9 -10 1159.01 161.722   6
   3  -9 -10 1208.21 133.215   6
   2  -9 -10-30.6195 84.1668   3
   2  -9 -10-81.6562 119.132   5
   2   9 -10 168.824 129.678   6
   2  -9 -10-112.094 93.9072   6
   1  -9 -10 2522.64 166.429   3
   1  -9 -10 2682.23 194.931   6
   1   9 -10 2262.96 212.462   6
   0   9 -10 3191.13 241.334   6
   0  -9 -10 3286.91 215.112   6
  -1   9 -10 2326.94 220.556   6
  -1  -9 -10 2662.57 208.027   6
  -2  -9 -10-26.1262 111.902   6
  -2   9 -10 118.256 130.822   6
  -3   9 -10 2761.35 237.348   6
  -3  -9 -10 2575.96 217.907   6
  -4   9 -10 62.7864 129.737   6
  -4  -9 -10 195.422 138.672   6
  -5   9 -10 503.281 146.627   6
  -5  -9 -10 558.072 161.632   6
  -6  -9 -10 91.0325 129.467   6
  10 -10 -10 11470.1 506.771   3
  10  10 -10 11182.4 488.094   6
   9 -10 -10 296.890 144.528   3
   9  10 -10 435.208 158.042   6
   8 -10 -10-67.1558 138.046   3
   8 -10 -10 210.153 97.6591   6
   8  10 -10 62.7830 124.683   6
   7 -10 -10 11776.3 459.781   3
   7 -10 -10 11666.3 374.895   6
   7  10 -10 12264.1 471.544   6
   6 -10 -10 2207.04 207.576   3
   6 -10 -10 1957.15 159.363   6
   6  10 -10 2105.51 210.593   6
   5 -10 -10 2817.82 220.771   3
   5 -10 -10 3513.71 220.429   5
   5 -10 -10 3366.98 197.891   6
   5  10 -10 3191.29 244.652   6
   4 -10 -10 12962.9 431.414   3
   4 -10 -10 13845.6 434.082   5
   4  10 -10 13009.7 473.540   6
   4 -10 -10 12900.6 394.587   6
   3 -10 -10 110.531 94.6031   3
   3 -10 -10 76.0002 110.649   5
   3  10 -10 134.818 116.108   6
   3 -10 -10 13.1535 87.3979   6
   2 -10 -10 4109.51 219.945   3
   2 -10 -10 4013.58 250.960   5
   2  10 -10 3933.87 266.316   6
   2 -10 -10 4514.28 235.411   6
   1 -10 -10 12980.9 369.137   3
   1  10 -10 12490.1 466.904   6
   1 -10 -10 12222.1 399.025   6
   0  10 -10 63.1070 109.818   6
   0 -10 -10 322.146 104.747   6
  -1  10 -10 16261.7 546.267   6
  -1 -10 -10 16502.8 495.010   6
  -2  10 -10 14042.9 513.859   6
  -2 -10 -10 14199.0 469.527   6
  -3 -10 -10 4631.20 279.754   6
  -3  10 -10 4601.56 302.155   6
  -4 -10 -10 11754.5 464.650   6
  -4  10 -10 11944.6 485.101   6
  -5 -10 -10 5549.99 339.743   6
  -5  10 -10 4719.77 329.657   6
  -6 -10 -10 4618.20 330.405   6
  10 -11 -10 215.912 156.036   3
  10  11 -10 376.445 150.447   6
   9 -11 -10 3102.24 270.475   3
   9  11 -10 2942.92 260.940   6
   8 -11 -10 10477.9 454.642   3
   8  11 -10 10665.5 460.447   6
   7 -11 -10-108.566 149.256   3
   7  11 -10 36.1222 118.653   6
   6 -11 -10 11803.7 444.689   3
   6 -11 -10 10643.8 348.491   6
   6  11 -10 10060.0 430.416   6
   5 -11 -10 10459.4 403.059   3
   5 -11 -10 10308.7 376.457   5
   5 -11 -10 10179.3 338.023   6
   5  11 -10 10076.6 423.159   6
   4 -11 -10 6996.59 317.307   3
   4 -11 -10 6754.39 310.697   5
   4  11 -10 7160.95 354.834   6
   4 -11 -10 6189.01 266.053   6
   3 -11 -10 17200.6 489.537   3
   3 -11 -10 16847.7 507.281   5
   3  11 -10 16964.1 548.160   6
   3 -11 -10 17040.1 462.526   6
   2 -11 -10 2437.74 181.396   3
   2 -11 -10 2429.76 211.089   5
   2  11 -10 2677.76 226.942   6
   2 -11 -10 2507.23 178.249   6
   1 -11 -10 2950.55 231.243   5
   1  11 -10 3319.73 257.756   6
   1 -11 -10 2823.68 193.711   6
   0  11 -10 17706.4 566.642   6
   0 -11 -10 17748.4 497.949   6
  -1 -11 -10 92.1295 98.1718   6
  -1  11 -10-117.035 118.553   6
  -2  11 -10 14404.5 518.119   6
  -2 -11 -10 13729.3 461.737   6
  -3 -11 -10 10079.5 408.663   6
  -3  11 -10 10866.8 458.261   6
  -4  11 -10 144.098 123.531   6
  -4 -11 -10 110.398 120.091   6
  -5 -11 -10 2335.19 237.596   6
  -6 -11 -10 6182.62 373.082   6
  10 -12 -10 93.9672 149.550   3
   9 -12 -10 49.2946 147.187   3
   9  12 -10-68.6182 129.889   6
   8 -12 -10 336.794 154.250   3
   8  12 -10 279.515 152.259   6
   7 -12 -10-9.68177 137.192   3
   7  12 -10 162.459 126.000   6
   6 -12 -10 303.540 140.949   3
   6  12 -10 277.637 143.801   6
   5 -12 -10 530.915 143.177   3
   5 -12 -10 219.178 117.762   5
   5 -12 -10 332.723 93.5129   6
   5  12 -10 223.518 130.133   6
   4 -12 -10 582.932 128.430   3
   4 -12 -10 707.402 149.363   5
   4  12 -10 508.477 140.154   6
   4 -12 -10 619.525 106.881   6
   3 -12 -10 141.641 105.118   3
   3 -12 -10 350.769 131.120   5
   3  12 -10 211.612 127.442   6
   3 -12 -10 126.746 87.0326   6
   2 -12 -10 27.5888 93.8859   3
   2 -12 -10 46.6358 125.309   5
   2  12 -10-60.6151 124.433   6
   2 -12 -10-130.228 90.8481   6
   1 -12 -10 2836.67 239.862   5
   1  12 -10 2917.81 241.332   6
   1 -12 -10 2812.33 191.619   6
   0  12 -10 203.188 130.927   6
   0 -12 -10 342.971 109.763   6
  -1 -12 -10 301.923 109.691   6
  -1  12 -10 135.472 116.600   6
  -2 -12 -10 1028.90 154.365   6
  -2  12 -10 1374.97 188.851   6
  -3 -12 -10 36.1901 111.059   6
  -3  12 -10 359.915 149.408   6
  -4 -12 -10 239.010 134.154   6
  -4  12 -10 247.927 129.321   6
  -5 -12 -10 30.3539 132.308   6
  -6 -12 -10 1144.24 207.341   6
   9 -13 -10 4155.18 313.598   3
   9  13 -10 4112.97 308.057   6
   8 -13 -10 4333.58 307.236   3
   8  13 -10 4348.58 307.153   6
   7 -13 -10 111.911 137.027   3
   7  13 -10 249.247 157.857   6
   6 -13 -10 8936.70 398.767   3
   6  13 -10 9358.57 421.898   6
   5 -13 -10 2310.94 217.990   3
   5 -13 -10 2055.29 198.859   5
   5  13 -10 1939.22 211.675   6
   4 -13 -10 1675.74 184.597   3
   4 -13 -10 1539.66 183.435   5
   4 -13 -10 1845.08 144.245   6
   4  13 -10 1817.07 200.133   6
   3 -13 -10 7560.30 326.517   3
   3 -13 -10 7585.67 349.663   5
   3  13 -10 7957.21 375.190   6
   3 -13 -10 7596.51 290.141   6
   2 -13 -10 2970.30 237.174   5
   2  13 -10 3077.21 247.154   6
   2 -13 -10 3133.03 195.285   6
  -1 -13  10 1946.12 155.591   2
   1 -13 -10 2048.90 216.290   5
   1  13 -10 2071.86 221.889   6
   1 -13 -10 1831.40 158.502   6
   0 -13 -10 12581.2 486.678   5
   0  13 -10 12471.1 478.308   6
   0 -13 -10 12109.0 397.879   6
  -1 -13 -10 1612.45 167.417   6
  -1  13 -10 1677.17 204.171   6
  -2  13 -10 6256.99 350.409   6
  -2 -13 -10 5588.33 292.013   6
  -3 -13 -10 8373.32 376.525   6
  -3  13 -10 8557.78 414.540   6
  -4 -13 -10-60.9294 113.846   6
  -4  13 -10 230.366 149.923   6
  -5 -13 -10 2505.87 245.821   6
   9 -14 -10 3016.74 279.348   3
   9  14 -10 3540.05 290.918   6
   8 -14 -10 1501.19 221.868   3
   8  14 -10 1402.43 203.018   6
   7 -14 -10 11871.5 478.266   3
   7  14 -10 11884.5 492.490   6
   6 -14 -10 837.801 167.388   3
   6  14 -10 815.572 171.334   6
   5 -14 -10 9860.24 406.858   3
   5  14 -10 10061.0 431.945   6
   4 -14 -10 10247.3 401.230   3
   4 -14 -10 11018.2 421.829   5
   4  14 -10 10860.6 445.758   6
   3 -14 -10 1189.90 157.156   3
   3 -14 -10 1158.01 170.391   5
   3  14 -10 1042.87 168.619   6
   2 -14 -10 15426.5 515.873   5
   2  14 -10 15230.1 534.604   6
   2 -14 -10 15060.3 425.178   6
  -1 -14  10 6378.52 269.794   2
   1 -14 -10 6961.20 353.701   5
   1  14 -10 6582.08 346.776   6
   1 -14 -10 6809.64 282.128   6
   0 -14 -10 396.872 158.835   5
   0  14 -10 2.12117 122.535   6
   0 -14 -10 223.404 92.1770   6
  -1 -14 -10 18858.5 617.325   5
  -1  14 -10 18717.0 600.007   6
  -1 -14 -10 18358.4 516.080   6
  -2  14 -10 7170.06 376.039   6
  -2 -14 -10 6784.65 315.580   6
  -3 -14 -10 3116.28 237.183   6
  -3  14 -10 2776.32 255.507   6
  -4 -14 -10 16702.0 553.574   6
  -4  14 -10 17180.9 599.684   6
  -5 -14 -10 2106.30 219.095   6
   9 -15 -10 2620.21 263.842   3
   8 -15 -10 6050.51 361.643   3
   8  15 -10 5885.62 355.172   6
   7 -15 -10 825.897 184.902   3
   7  15 -10 874.992 181.633   6
   6 -15 -10 2185.18 226.071   3
   6  15 -10 2478.45 236.926   6
   5 -15 -10 1999.13 214.347   3
   5  15 -10 2312.76 227.516   6
   4 -15 -10 244.365 127.399   3
   4 -15 -10 409.859 147.661   5
   4  15 -10 319.361 133.648   6
   3 -15 -10 3072.62 248.300   5
   3  15 -10 3354.69 257.347   6
  -2 -15  10 5111.51 261.875   2
   2 -15 -10 5858.17 329.578   5
   2  15 -10 5038.93 314.513   6
   1 -15 -10 2140.03 230.638   5
   1  15 -10 2256.61 224.213   6
   0 -15 -10 6821.69 361.445   5
   0  15 -10 5941.79 346.556   6
   0 -15 -10 6104.19 274.331   6
  -1 -15 -10 86.4724 88.6269   6
  -1 -15 -10 385.940 174.932   5
  -1  15 -10 442.853 154.522   6
  -2  15 -10 3340.61 262.206   6
  -2 -15 -10 2665.84 206.517   6
  -3 -15 -10 2422.14 212.512   6
  -3  15 -10 2239.31 226.252   6
  -4 -15 -10 895.267 162.302   6
  -5 -15 -10 7742.19 396.603   6
   8 -16 -10 213.941 153.234   3
   8  16 -10 370.897 159.174   6
   7 -16 -10 1948.66 228.681   3
   7  16 -10 2042.69 236.059   6
   6 -16 -10 2236.58 244.827   3
   6  16 -10 1735.99 217.822   6
   5 -16 -10 2239.88 222.475   3
   5  16 -10 2171.35 225.677   6
   4 -16 -10 1579.72 188.063   3
   4 -16 -10 1581.42 201.587   5
   4  16 -10 1276.76 181.427   6
  -3 -16  10 218.158 117.008   2
   3 -16 -10 361.247 146.941   5
   3  16 -10 266.244 135.224   6
  -2 -16  10 1059.49 144.315   2
   2 -16 -10 1287.11 198.819   5
   2  16 -10 1122.58 181.343   6
   1 -16 -10-34.3428 178.990   5
   1  16 -10-227.611 139.866   6
   0 -16 -10 1587.83 225.851   5
   0  16 -10 1674.00 213.410   6
  -1 -16 -10 3230.20 275.262   5
  -1  16 -10 3263.44 265.569   6
  -2 -16 -10 551.228 176.627   5
  -2  16 -10 607.134 158.801   6
  -3  16 -10 36.9405 125.729   6
   8 -17 -10 6221.84 377.413   3
   7 -17 -10 57.3189 160.403   3
   7  17 -10 34.1893 127.297   6
   6 -17 -10 12686.4 503.381   3
   6  17 -10 13052.7 521.786   6
   5 -17 -10 6700.30 356.702   3
   5  17 -10 6671.25 370.895   6
  -4 -17  10 3768.92 253.677   2
   4 -17 -10 4207.81 289.090   5
   4  17 -10 4239.60 292.182   6
  -3 -17  10 7585.14 339.874   2
   3 -17 -10 8005.56 387.552   5
   3  17 -10 7763.16 391.760   6
   2 -17 -10 4907.39 317.389   5
   2  17 -10 4995.94 317.663   6
   1 -17 -10 1662.05 224.141   5
   1  17 -10 1657.02 208.082   6
   0 -17 -10 13604.4 532.157   5
   0  17 -10 13219.9 509.198   6
  -1 -17 -10 354.384 163.046   5
  -1  17 -10 435.783 138.575   6
  -2 -17 -10 3706.23 306.197   5
  -2  17 -10 4691.21 317.766   6
  -3  17 -10 4486.84 317.866   6
   7 -18 -10 7445.70 404.224   3
   7  18 -10 7665.40 411.784   6
   6 -18 -10 992.320 190.051   3
   6  18 -10 600.407 173.079   6
  -5 -18  10 4462.56 293.652   2
   5  18 -10 5084.61 334.321   6
  -4 -18  10 5746.54 315.597   2
   4  18 -10 6037.65 353.266   6
   3 -18 -10-105.925 141.434   5
  -3 -18  10-25.9725 113.613   2
   3  18 -10-52.6570 128.744   6
   2 -18 -10 13814.0 524.423   5
  -2 -18  10 13715.8 446.455   2
   2  18 -10 14185.0 532.802   6
   1 -18 -10 2564.50 252.196   5
   1  18 -10 3014.27 259.382   6
   0 -18 -10-136.871 161.999   5
   0  18 -10-31.1994 137.794   6
  -1 -18 -10 7673.12 414.717   5
  -1  18 -10 7804.79 400.323   6
  -2  18 -10 3974.78 292.314   6
   7 -19 -10 597.518 177.540   3
  -7 -19  10 586.153 168.549   2
  -6 -19  10 54.1313 133.946   2
   6  19 -10 176.335 141.574   6
  -5 -19  10-117.435 129.494   2
   5  19 -10 169.917 135.883   6
  -4 -19  10-59.2026 125.365   2
   4  19 -10 118.320 140.362   6
   3 -19 -10 728.989 188.352   5
  -3 -19  10 593.115 139.972   2
   3  19 -10 599.961 156.978   6
   2 -19 -10 44.9986 153.179   5
   2  19 -10 221.985 137.389   6
   1 -19 -10 155.318 151.812   5
   1  19 -10 250.811 169.136   6
   0 -19 -10 247.883 159.770   5
   0  19 -10 60.3413 128.093   6
  -1 -19 -10 157.714 159.601   5
  -1  19 -10 203.350 142.176   6
  -2  19 -10 106.275 133.064   6
  -6 -20  10 557.594 159.342   2
  -5 -20  10 1367.16 198.602   2
   5  20 -10 1355.20 201.378   6
  -4 -20  10 5017.51 305.505   2
   4  20 -10 5228.73 334.461   6
   3 -20 -10 69.6492 143.354   5
  -3 -20  10-70.3563 120.705   2
   3  20 -10-39.0211 130.246   6
   2 -20 -10 2185.15 244.650   5
   2  20 -10 2240.37 232.295   6
   1 -20 -10 12602.9 524.370   5
   1  20 -10 11542.4 489.327   6
   0 -20 -10 28.3104 156.051   5
   0  20 -10 123.989 139.030   6
  -1  20 -10 2557.53 251.860   6
  -6 -21  10 4327.10 311.933   2
  -5 -21  10 6893.04 369.418   2
  -4 -21  10 1561.84 202.743   2
   4  21 -10 1667.66 218.286   6
  -3 -21  10 8141.77 377.048   2
   3  21 -10 8001.29 412.445   6
   2 -21 -10 1757.39 228.678   5
   2  21 -10 2127.75 234.809   6
   1  21 -10 3892.02 298.497   6
   0  21 -10 8321.25 420.977   6
  -5 -22  10 1577.26 202.694   2
  -4 -22  10 441.877 156.100   2
  -4 -23  10 122.251 139.257   2
  11   0 -11-102.431 137.037   6
  10   0 -11 90.6724 132.261   6
   9   0 -11-89.8878 132.283   6
   8   0 -11 129.717 136.911   6
   7   0 -11 162.398 126.910   6
   6   0 -11 210.804 121.579   6
   5   0 -11-178.021 122.852   6
   4   0 -11 84.8757 111.265   6
   3   0 -11 24.1565 109.561   6
   2   0 -11 171.730 123.021   6
   1   0 -11 91.8804 115.637   6
   0   0 -11-31.2234 116.632   6
  -1   0 -11 317.232 137.944   6
  -2   0 -11-33.2402 113.447   6
  -3   0 -11 61.7977 138.361   6
  -4   0 -11 499.440 160.758   6
  12  -1 -11 1785.04 223.583   6
  11  -1 -11 1942.38 224.295   6
  11   1 -11 1495.54 217.818   6
  10  -1 -11 4302.79 298.261   6
  10   1 -11 4220.09 299.870   6
   9  -1 -11 628.944 163.411   6
   9   1 -11 424.000 140.981   6
   8  -1 -11 6319.21 333.374   6
   8   1 -11 6740.40 352.994   6
   7  -1 -11 11022.2 429.126   6
   7   1 -11 10894.4 440.066   6
   6  -1 -11 2419.22 220.504   6
   6   1 -11 2245.14 212.951   6
   5   1 -11 3178.73 242.827   6
   5  -1 -11 2961.32 226.890   6
   4   1 -11 2903.76 232.310   6
   4  -1 -11 2656.56 215.332   6
   3   1 -11 265.254 122.360   6
   3  -1 -11 244.984 131.011   6
   2   1 -11 9216.16 394.294   6
   2  -1 -11 9711.16 391.018   6
   1   1 -11 4090.69 267.815   6
   1  -1 -11 4286.71 274.800   6
   0   1 -11 910.736 157.686   6
   0  -1 -11 907.672 163.080   6
  -1   1 -11 17769.0 567.856   6
  -1  -1 -11 17319.0 554.789   6
  -2   1 -11 751.805 156.908   6
  -2  -1 -11 799.209 159.911   6
  -3   1 -11 8785.12 418.161   6
  -3  -1 -11 9802.30 434.195   6
  -4   1 -11 22318.3 700.195   6
  -4  -1 -11 23205.1 703.612   6
  12  -2 -11 1924.09 227.854   6
  11  -2 -11 5136.28 329.070   6
  11   2 -11 5655.97 351.460   6
  10  -2 -11-82.2061 123.094   6
  10   2 -11 64.5380 136.367   6
   9  -2 -11 9650.79 417.031   6
   9   2 -11 9853.54 436.891   6
   8  -2 -11 5803.77 320.514   6
   8   2 -11 6200.64 338.691   6
   7  -2 -11 2597.31 225.626   6
   7   2 -11 2823.09 239.203   6
   6  -2 -11 14251.7 481.352   6
   6   2 -11 15727.9 523.443   6
   5  -2 -11 2871.09 220.356   6
   5   2 -11 2579.25 223.514   6
   4   2 -11 6674.62 332.548   6
   4  -2 -11 6152.21 309.084   6
   3   2 -11 25351.4 677.039   6
   3  -2 -11 25948.1 665.345   6
   2   2 -11 3555.07 249.854   6
   2  -2 -11 3674.03 249.170   6
   1   2 -11 15970.1 521.164   6
   1  -2 -11 14986.1 497.467   6
   0   2 -11 18748.2 585.197   6
   0  -2 -11 18732.1 567.610   6
  -1   2 -11 978.205 171.513   6
  -1  -2 -11 1239.87 173.449   6
  -2   2 -11 28150.7 762.123   6
  -2  -2 -11 28741.7 755.081   6
  -3   2 -11 16353.7 578.452   6
  -3  -2 -11 17088.4 579.358   6
  -4   2 -11 1174.95 192.892   6
  -4  -2 -11 1609.52 207.722   6
  12  -3 -11 315.640 148.686   6
  11  -3 -11 60.4455 126.469   6
  11   3 -11 255.754 152.758   6
  10  -3 -11 2421.09 235.360   6
  10   3 -11 2757.76 258.183   6
   9  -3 -11 207.229 137.983   6
   9   3 -11 115.151 136.308   6
   8  -3 -11 217.038 122.057   6
   8   3 -11 278.813 138.902   6
   7  -3 -11 1032.36 165.092   6
   7   3 -11 722.583 160.163   6
   6  -3 -11 847.903 152.221   6
   6   3 -11 635.123 149.064   6
   5   3 -11 2215.94 212.366   6
   5  -3 -11 2086.96 197.027   6
   4  -3 -11 1214.37 140.455   5
   4   3 -11 1177.31 165.650   6
   4  -3 -11 1509.24 170.138   6
   3   3 -11 105.122 121.823   6
   3  -3 -11 136.582 115.988   6
   2   3 -11 864.331 149.269   6
   2  -3 -11 1053.46 155.544   6
   1   3 -11 5491.03 309.788   6
   1  -3 -11 5175.48 291.812   6
   0   3 -11 511.861 141.009   6
   0  -3 -11 130.875 126.853   6
  -1   3 -11 5065.36 307.287   6
  -1  -3 -11 5075.12 298.820   6
  -2   3 -11 3469.76 270.481   6
  -2  -3 -11 3494.44 263.407   6
  -3   3 -11 1235.10 182.436   6
  -3  -3 -11 1389.47 189.407   6
  -4   3 -11 153.970 138.678   6
  -4  -3 -11 88.3548 154.283   6
  12  -4 -11 135.293 147.015   6
  11  -4 -11 1465.73 194.066   6
  11   4 -11 890.234 190.918   6
  10  -4 -11-38.7458 127.388   6
  10   4 -11 223.598 142.974   6
   9  -4 -11 3878.17 263.937   6
   9   4 -11 3739.66 279.586   6
   8  -4 -11 3616.36 256.059   6
   8   4 -11 3666.60 279.192   6
   7  -4 -11 2723.55 225.119   6
   7   4 -11 2251.16 228.631   6
   6  -4 -11 1551.66 176.928   6
   6   4 -11 1775.59 198.464   6
   5   4 -11 2461.42 223.063   6
   5  -4 -11 2147.59 194.806   6
   4  -4 -11 601.320 120.951   5
   4   4 -11 594.969 145.740   6
   4  -4 -11 442.461 122.819   6
   3   4 -11 5286.46 307.616   6
   3  -4 -11 5054.60 281.109   6
   2  -4 -11 257.267 100.337   3
   2   4 -11 451.867 142.516   6
   2  -4 -11 549.448 128.757   6
   1  -4 -11 3573.87 241.881   6
   1   4 -11 2727.20 232.529   6
   0   4 -11 612.991 146.564   6
   0  -4 -11 801.108 141.919   6
  -1   4 -11 377.979 141.141   6
  -1  -4 -11 216.264 125.516   6
  -2   4 -11 3357.85 269.761   6
  -2  -4 -11 3381.65 262.556   6
  -3   4 -11 7191.29 385.634   6
  -3  -4 -11 7696.98 387.475   6
  -4   4 -11 194.597 127.220   6
  -4  -4 -11 179.373 131.379   6
  11  -5 -11 956.009 181.040   6
  10  -5 -11 10851.4 439.403   6
  10   5 -11 11335.1 490.219   6
   9  -5 -11 984.617 165.979   6
   9   5 -11 1138.43 185.411   6
   8  -5 -11 5277.19 297.356   6
   8   5 -11 5245.15 324.244   6
   7  -5 -11 12150.1 436.976   6
   7   5 -11 12476.9 491.481   6
   6  -5 -11-127.037 106.633   6
   6   5 -11 24.8632 121.731   6
   5  -5 -11 6858.91 277.173   5
   5   5 -11 6134.43 330.368   6
   5  -5 -11 5905.88 299.135   6
   4  -5 -11 12024.5 387.001   5
   4   5 -11 11251.0 448.379   6
   4  -5 -11 11965.3 423.228   6
   3  -5 -11 23.9573 94.3388   3
   3   5 -11 100.743 132.613   6
   3  -5 -11 141.651 103.668   6
   2  -5 -11 14426.9 409.093   3
   2   5 -11 13647.7 496.708   6
   2  -5 -11 13623.9 458.346   6
   1   5 -11 7063.25 357.276   6
   1  -5 -11 6844.28 325.023   6
   0   5 -11 4960.53 302.063   6
   0  -5 -11 5177.76 295.791   6
  -1   5 -11 18655.7 599.114   6
  -1  -5 -11 18236.0 566.555   6
  -2   5 -11 9774.57 431.561   6
  -2  -5 -11 10011.9 420.657   6
  -3   5 -11 8749.51 419.511   6
  -3  -5 -11 9042.10 416.313   6
  -4  -5 -11 10967.5 477.393   6
  -4   5 -11 10198.7 464.854   6
  10  -6 -11 385.994 140.926   6
  10   6 -11 39.0065 137.669   6
   9  -6 -11 3022.57 233.552   6
   9   6 -11 3555.59 277.279   6
   8  -6 -11 5367.37 291.610   6
   8   6 -11 5647.68 337.314   6
   7  -6 -11 1896.71 184.961   6
   7   6 -11 2090.15 220.073   6
   6  -6 -11 5587.41 288.682   6
   6   6 -11 5579.84 318.051   6
   5  -6 -11 2023.28 167.016   5
   5   6 -11 2094.70 215.045   6
   5  -6 -11 1999.92 185.713   6
   4  -6 -11 12925.4 413.636   5
   4   6 -11 13263.0 489.317   6
   4  -6 -11 13216.1 441.206   6
   4  -6 -11 13621.5 442.832   3
   3  -6 -11 17011.0 478.742   3
   3  -6 -11 17831.5 506.330   5
   3   6 -11 16385.9 550.639   6
   3  -6 -11 16134.4 503.876   6
   2  -6 -11 122.558 96.3902   3
   2   6 -11 133.986 125.167   6
   2  -6 -11 208.584 107.026   6
   1   6 -11 4360.58 284.933   6
   1  -6 -11 4805.92 274.398   6
   0   6 -11 7176.95 362.658   6
   0  -6 -11 6483.21 322.742   6
  -1  -6 -11 716.652 142.118   6
  -1   6 -11 625.358 153.412   6
  -2   6 -11 11504.0 475.256   6
  -2  -6 -11 11697.3 459.068   6
  -3   6 -11 5316.62 334.693   6
  -3  -6 -11 5354.42 324.193   6
  -4  -6 -11 146.910 125.492   6
  10   7 -11 533.131 174.135   6
   9  -7 -11 247.228 123.310   6
   9   7 -11 190.929 146.530   6
   8  -7 -11 1170.04 160.788   6
   8   7 -11 1094.47 199.022   6
   7  -7 -11 479.435 124.357   6
   7   7 -11 624.672 157.896   6
   6  -7 -11 152.647 107.495   6
   6   7 -11 204.109 133.357   6
   6  -7 -11 124.658 134.884   3
   5  -7 -11 18.6807 122.847   3
   5  -7 -11 114.798 101.221   5
   5  -7 -11-45.5361 103.298   6
   5   7 -11 19.9157 120.095   6
   4  -7 -11 152.147 115.361   3
   4  -7 -11 46.2108 107.387   5
   4   7 -11 129.496 124.692   6
   4  -7 -11 234.194 110.086   6
   3  -7 -11 49.8925 99.9740   3
   3  -7 -11 70.7088 108.760   5
   3   7 -11 157.023 125.887   6
   3  -7 -11 94.2443 110.989   6
   2  -7 -11 1077.55 132.798   3
   2   7 -11 1117.10 168.795   6
   2  -7 -11 1459.62 165.862   6
   1   7 -11-4.51679 121.581   6
   1  -7 -11-1.69679 98.2453   6
   0   7 -11 835.168 167.457   6
   0  -7 -11 843.025 148.112   6
  -1  -7 -11 2991.10 232.578   6
  -1   7 -11 2303.27 238.566   6
  -2  -7 -11 241.957 132.704   6
  -2   7 -11 313.074 145.297   6
  -3  -7 -11 1096.87 179.175   6
  -3   7 -11 1109.80 193.866   6
  -4  -7 -11 404.485 153.961   6
  10  -8 -11-1.91768 164.989   3
   9   8 -11 7273.80 396.794   6
   9  -8 -11 7318.71 401.970   3
   8  -8 -11 2439.66 250.438   3
   8  -8 -11 2780.08 215.527   6
   8   8 -11 3068.67 265.026   6
   7  -8 -11 256.614 155.165   3
   7  -8 -11 198.001 110.997   6
   7   8 -11 339.006 141.035   6
   6  -8 -11 10853.8 433.309   3
   6  -8 -11 10190.0 382.255   6
   6   8 -11 10581.3 452.191   6
   5  -8 -11 1599.13 188.687   3
   5  -8 -11 1357.98 168.306   5
   5  -8 -11 1387.96 158.051   6
   5   8 -11 1432.19 191.927   6
   4  -8 -11 7476.37 334.348   3
   4  -8 -11 8274.90 339.130   5
   4   8 -11 7699.04 382.117   6
   4  -8 -11 7289.22 321.453   6
   3  -8 -11 9645.50 355.814   3
   3  -8 -11 8436.72 354.420   5
   3   8 -11 8687.32 404.558   6
   3  -8 -11 8685.58 353.675   6
   2   8 -11 4296.38 291.124   6
   2  -8 -11 3912.86 246.143   6
   1   8 -11 6862.95 360.141   6
   1  -8 -11 6281.52 307.268   6
   0   8 -11 27494.4 756.433   6
   0  -8 -11 28070.3 696.250   6
  -1  -8 -11 14.4946 109.301   6
  -1   8 -11-34.4010 125.428   6
  -2   8 -11 9075.86 424.149   6
  -2  -8 -11 9315.73 404.870   6
  -3   8 -11 8541.08 422.320   6
  -3  -8 -11 8420.27 398.671   6
  -4  -8 -11 1052.76 180.069   6
   9  -9 -11 381.118 171.790   3
   9   9 -11 568.191 163.493   6
   8  -9 -11 2055.55 234.006   3
   8   9 -11 2366.34 246.241   6
   7  -9 -11 8667.28 406.579   3
   7  -9 -11 8572.47 344.283   6
   7   9 -11 8280.11 406.760   6
   6  -9 -11 181.719 139.373   3
   6  -9 -11 260.482 108.143   6
   6   9 -11 459.107 153.193   6
   5  -9 -11 15828.3 512.583   3
   5  -9 -11 17060.0 488.122   5
   5  -9 -11 15288.6 469.718   6
   5   9 -11 16019.6 553.400   6
   4  -9 -11 8016.53 343.413   3
   4  -9 -11 7945.08 341.580   5
   4   9 -11 7185.25 372.842   6
   4  -9 -11 7758.48 324.180   6
   3  -9 -11 207.101 110.172   3
   3  -9 -11 235.525 132.448   5
   3   9 -11 47.7806 127.570   6
   3  -9 -11 175.461 96.7067   6
   2  -9 -11 16423.4 521.917   5
   2   9 -11 16309.7 553.265   6
   2  -9 -11 14935.8 474.532   6
   1   9 -11 16053.3 553.385   6
   1  -9 -11 15926.4 492.414   6
   0   9 -11 201.751 139.600   6
   0  -9 -11 124.406 110.772   6
  -1   9 -11 22225.6 676.805   6
  -1  -9 -11 22188.4 621.252   6
  -2  -9 -11 411.284 128.255   6
  -2   9 -11 326.219 130.260   6
  -3   9 -11 3495.92 286.331   6
  -3  -9 -11 3712.82 274.012   6
  -4  -9 -11 14189.1 537.278   6
   9 -10 -11 405.814 160.866   3
   9  10 -11 394.729 155.010   6
   8 -10 -11 3052.68 277.217   3
   8  10 -11 3130.09 274.808   6
   7 -10 -11-178.793 142.457   3
   7  10 -11-152.929 136.993   6
   6 -10 -11 2957.63 244.253   3
   6 -10 -11 3024.04 209.154   6
   6  10 -11 3561.74 278.415   6
   5 -10 -11 280.949 144.997   3
   5 -10 -11 239.347 131.429   5
   5 -10 -11 119.574 102.494   6
   5  10 -11 252.801 143.468   6
   4 -10 -11 530.221 138.423   3
   4 -10 -11 771.658 152.466   5
   4  10 -11 516.166 150.407   6
   4 -10 -11 591.282 115.239   6
   3 -10 -11 1011.18 143.241   3
   3 -10 -11 671.031 149.096   5
   3  10 -11 724.698 154.882   6
   3 -10 -11 697.875 125.432   6
   2 -10 -11 1388.51 191.550   5
   2  10 -11 1034.82 175.167   6
   2 -10 -11 1049.16 147.656   6
   1  10 -11-95.8074 134.468   6
   1 -10 -11-32.8312 93.2755   6
   0  10 -11 3548.95 275.078   6
   0 -10 -11 3702.17 245.302   6
  -1 -10 -11 1360.15 176.130   6
  -1  10 -11 1265.26 195.230   6
  -2 -10 -11 1619.81 194.005   6
  -2  10 -11 1624.76 201.980   6
  -3 -10 -11 720.041 151.989   6
  -4 -10 -11 59.3319 133.736   6
   9 -11 -11 337.515 160.937   3
   8 -11 -11 1432.50 213.796   3
   8  11 -11 1623.11 221.372   6
   7 -11 -11 165.115 138.324   3
   7  11 -11 119.111 120.139   6
   6 -11 -11-129.611 132.076   3
   6  11 -11 239.015 141.123   6
   5 -11 -11 1273.13 176.722   3
   5 -11 -11 1204.58 169.947   5
   5 -11 -11 1109.79 140.434   6
   5  11 -11 1404.45 197.452   6
   4 -11 -11 2268.26 199.057   3
   4 -11 -11 2590.43 218.895   5
   4 -11 -11 2318.14 184.663   6
   4  11 -11 2304.99 228.982   6
   3 -11 -11 64.8778 102.837   3
   3 -11 -11 277.315 146.557   5
   3  11 -11 220.742 141.946   6
   3 -11 -11 7.18699 90.3078   6
   2 -11 -11 6764.39 345.483   5
   2  11 -11 7275.00 380.178   6
   2 -11 -11 6544.91 300.931   6
   1 -11 -11 882.680 172.165   5
   1  11 -11 1060.65 179.536   6
   1 -11 -11 863.841 136.399   6
   0  11 -11 168.215 135.278   6
   0 -11 -11 318.584 115.061   6
  -1  11 -11 8134.38 402.406   6
  -1 -11 -11 7288.41 344.539   6
  -2 -11 -11 166.754 122.086   6
  -2  11 -11 366.023 139.492   6
  -3 -11 -11 2433.58 227.710   6
  -4 -11 -11 1858.11 217.784   6
   9 -12 -11 9357.71 466.232   3
   8 -12 -11 6832.36 386.167   3
   8  12 -11 6260.39 373.420   6
   7 -12 -11 1986.55 224.582   3
   7  12 -11 2001.25 225.249   6
   6 -12 -11 11553.9 463.752   3
   6  12 -11 11694.5 486.084   6
   5 -12 -11 2269.59 214.454   3
   5 -12 -11 2486.48 212.307   5
   5  12 -11 2511.07 238.097   6
   4 -12 -11 4433.40 275.981   3
   4 -12 -11 4613.15 285.784   5
   4  12 -11 4966.08 327.671   6
   3 -12 -11 22010.8 585.111   3
   3 -12 -11 21899.9 626.177   5
   3  12 -11 20740.0 658.194   6
   3 -12 -11 21992.0 560.298   6
   2 -12 -11 4984.71 305.784   5
   2  12 -11 4510.51 308.335   6
   2 -12 -11 4329.11 247.672   6
   1 -12 -11 6306.13 358.787   5
   1  12 -11 7178.46 380.409   6
   1 -12 -11 6426.88 302.515   6
   0 -12 -11 21514.1 662.779   5
   0  12 -11 21248.8 666.130   6
   0 -12 -11 20354.4 571.305   6
  -1  12 -11-281.508 154.415   6
  -1 -12 -11-94.8203 104.894   6
  -2  12 -11 8033.77 410.351   6
  -2 -12 -11 7989.20 369.891   6
  -3 -12 -11 4900.76 302.041   6
  -4 -12 -11 3958.69 290.296   6
   8 -13 -11 2324.39 252.620   3
   7 -13 -11 5210.70 339.937   3
   7  13 -11 4722.05 329.552   6
   6 -13 -11 366.777 150.912   3
   6  13 -11 679.243 180.312   6
   5 -13 -11 605.388 149.001   3
   5 -13 -11 408.068 137.469   5
   5  13 -11 550.624 154.508   6
   4 -13 -11 9103.62 388.022   3
   4 -13 -11 9552.85 403.536   5
   4  13 -11 8966.44 427.023   6
   3 -13 -11-4.81082 115.613   3
   3 -13 -11 41.0490 131.391   5
   3  13 -11-6.58929 130.653   6
   2 -13 -11 11845.8 470.685   5
   2  13 -11 11406.3 483.632   6
   1 -13 -11 1490.04 211.408   5
   1  13 -11 1660.09 219.142   6
   1 -13 -11 1550.73 166.559   6
   0 -13 -11 2781.80 258.349   5
   0  13 -11 2631.82 251.846   6
   0 -13 -11 2820.50 214.264   6
  -1  13 -11 7614.26 394.368   6
  -1 -13 -11 6759.10 326.791   6
  -2 -13 -11 710.762 151.039   6
  -3 -13 -11 4779.41 303.662   6
  -4 -13 -11 5520.12 338.712   6
   8 -14 -11-20.3572 144.391   3
   7 -14 -11 85.7606 146.615   3
   7  14 -11 363.829 171.336   6
   6 -14 -11 918.482 185.068   3
   6  14 -11 859.163 174.242   6
   5 -14 -11 51.8336 130.063   3
   5  14 -11 380.098 137.400   6
   4 -14 -11 2995.82 243.734   3
   4 -14 -11 3757.59 274.746   5
   4  14 -11 3556.52 284.369   6
   3 -14 -11 117.196 139.418   5
   3  14 -11 20.0287 129.300   6
   2 -14 -11 1010.90 190.067   5
   2  14 -11 805.490 179.127   6
   1 -14 -11 424.079 182.015   5
   1  14 -11 237.460 147.839   6
   0 -14 -11 1289.15 210.411   5
   0  14 -11 1254.54 197.353   6
  -1 -14 -11 392.973 162.991   5
  -1  14 -11 421.200 148.047   6
  -2 -14 -11-83.0704 123.645   6
  -3 -14 -11 451.413 149.543   6
   8 -15 -11 4296.29 324.948   3
   7 -15 -11 8531.77 424.524   3
   6 -15 -11 56.1134 142.196   3
   6  15 -11 271.890 165.488   6
   5 -15 -11 3336.95 262.406   3
   5  15 -11 2989.42 265.911   6
   4 -15 -11 4279.28 282.157   3
   4 -15 -11 3734.33 275.070   5
   4  15 -11 3871.79 297.092   6
   3 -15 -11 352.218 154.412   5
   3  15 -11 87.1083 126.332   6
   2 -15 -11 7351.32 387.339   5
   2  15 -11 7341.81 396.400   6
   1 -15 -11 8918.30 429.501   5
   1  15 -11 9772.09 447.840   6
   0 -15 -11 1811.99 227.021   5
   0  15 -11 1777.64 216.103   6
  -1 -15 -11 7172.40 408.107   5
   7 -16 -11 201.051 147.583   3
   6 -16 -11 10937.2 474.195   3
   5 -16 -11 6992.52 372.517   3
   5  16 -11 7510.43 407.479   6
   4 -16 -11 3778.30 281.332   5
   4  16 -11 4281.99 312.743   6
  -3 -16  11 4690.03 277.307   2
   3 -16 -11 5314.53 334.755   5
   3  16 -11 4715.94 326.814   6
   2 -16 -11 2695.31 269.215   5
   2  16 -11 2429.56 238.934   6
   1 -16 -11 8486.25 429.368   5
   1  16 -11 8689.44 432.611   6
   0 -16 -11 6343.35 379.768   5
   7 -17 -11 103.413 148.539   3
   6 -17 -11 625.074 180.936   3
  -4 -17  11-163.401 128.430   2
   4 -17 -11 231.060 146.447   5
   3 -17 -11 223.988 151.015   5
   3  17 -11 429.763 165.848   6
   2 -17 -11 2245.26 238.974   5
   2  17 -11 2730.17 258.797   6
   1 -17 -11 257.968 153.862   5
   0 -17 -11 1277.26 219.573   5
   6 -18 -11 6256.48 369.828   3
  -5 -18  11 287.907 145.301   2
  -4 -18  11 173.218 135.577   2
   3 -18 -11 955.845 183.720   5
   2 -18 -11 744.171 186.022   5
   1 -18 -11 4842.87 346.077   5
  -6 -19  11 266.628 158.859   2
  -5 -19  11 4113.76 297.760   2
  -4 -19  11 3976.45 281.720   2
   3 -19 -11-244.937 168.404   5
   2 -19 -11 8689.45 444.149   5
  -5 -20  11 1941.07 225.453   2
  10   0 -12 4880.90 327.503   6
   9   0 -12 292.743 143.355   6
   8   0 -12 4826.51 317.130   6
   7   0 -12 5778.38 339.828   6
   6   0 -12 1221.70 182.856   6
   5   0 -12 10990.1 448.525   6
   4   0 -12 10389.8 436.802   6
   3   0 -12-126.592 124.311   6
   2   0 -12 19054.2 600.676   6
   1   0 -12 8047.33 390.437   6
   0   0 -12 14290.5 527.195   6
  -1   0 -12 18000.2 609.911   6
  -2   0 -12 2809.31 261.633   6
  10  -1 -12 37.4510 134.933   6
  10   1 -12 131.002 143.662   6
   9  -1 -12 1110.09 185.471   6
   9   1 -12 1786.64 214.714   6
   8  -1 -12 1237.11 189.851   6
   8   1 -12 1474.57 202.127   6
   7  -1 -12 1612.80 205.254   6
   7   1 -12 2006.53 223.602   6
   6  -1 -12 2376.26 227.494   6
   6   1 -12 2761.94 240.323   6
   5   1 -12 4064.07 283.270   6
   5  -1 -12 4281.99 288.178   6
   4   1 -12 4746.49 300.169   6
   4  -1 -12 5059.89 309.383   6
   3   1 -12 9580.03 424.986   6
   3  -1 -12 9515.20 416.555   6
   2   1 -12 1078.16 188.886   6
   2  -1 -12 1016.94 177.751   6
   1   1 -12 7441.43 374.926   6
   1  -1 -12 7752.02 374.824   6
   0   1 -12 9601.93 435.913   6
   0  -1 -12 10057.6 434.809   6
  -1   1 -12 601.404 163.024   6
  -1  -1 -12 546.737 157.858   6
  -2   1 -12 9216.96 441.546   6
  -2  -1 -12 9101.51 433.368   6
  11  -2 -12 21.3488 138.725   6
  10  -2 -12 782.701 167.704   6
   9  -2 -12 139.297 125.231   6
   9   2 -12 265.040 150.804   6
   8  -2 -12 631.312 162.616   6
   8   2 -12 197.002 133.408   6
   7  -2 -12 689.139 160.684   6
   7   2 -12 698.905 165.799   6
   6  -2 -12-43.9409 122.001   6
   6   2 -12 203.017 131.864   6
   5   2 -12 2987.34 252.808   6
   5  -2 -12 2697.69 238.719   6
   4   2 -12 483.425 157.717   6
   4  -2 -12 634.622 162.279   6
   3   2 -12 612.056 164.405   6
   3  -2 -12 279.063 141.276   6
   2   2 -12-79.6893 139.100   6
   2  -2 -12-84.1879 128.169   6
   1   2 -12 171.658 134.698   6
   1  -2 -12 435.780 152.789   6
   0   2 -12 1377.32 192.406   6
   0  -2 -12 1777.43 213.476   6
  -1   2 -12 1462.11 199.725   6
  -1  -2 -12 1774.17 209.435   6
  -2   2 -12 2309.84 251.979   6
  -2  -2 -12 2387.22 245.023   6
  11  -3 -12 4655.40 329.539   6
  10  -3 -12 231.974 146.637   6
   9  -3 -12 7475.26 380.932   6
   9   3 -12 7527.55 399.302   6
   8  -3 -12 2359.07 226.755   6
   8   3 -12 2330.96 238.802   6
   7  -3 -12 4479.88 294.692   6
   7   3 -12 4839.67 320.394   6
   6  -3 -12 10552.5 430.097   6
   6   3 -12 10561.8 453.246   6
   5   3 -12 2889.18 253.292   6
   5  -3 -12 2217.98 214.421   6
   4   3 -12 8728.72 406.443   6
   4  -3 -12 9005.37 398.269   6
   3   3 -12 20313.2 633.836   6
   3  -3 -12 19638.8 601.923   6
   2   3 -12 1389.06 189.699   6
   2  -3 -12 1251.20 181.808   6
   1   3 -12 17554.6 583.856   6
   1  -3 -12 15993.4 540.118   6
   0   3 -12 14927.3 545.932   6
   0  -3 -12 15101.9 533.663   6
  -1   3 -12 643.777 157.816   6
  -1  -3 -12 714.214 153.097   6
  -2   3 -12 10500.7 474.264   6
  -2  -3 -12 10514.3 460.340   6
  10  -4 -12 5971.28 349.468   6
   9  -4 -12 138.701 132.064   6
   9   4 -12 154.078 137.285   6
   8  -4 -12 2911.81 246.094   6
   8   4 -12 3057.91 268.052   6
   7  -4 -12 10276.5 427.627   6
   7   4 -12 11012.8 477.526   6
   6  -4 -12 489.162 133.740   6
   6   4 -12 52.0740 128.232   6
   5   4 -12 7875.17 390.613   6
   5  -4 -12 7556.09 361.041   6
   4   4 -12 3132.22 263.617   6
   4  -4 -12 2778.97 232.072   6
   3  -4 -12 2720.91 238.295   6
   3   4 -12 2694.51 244.600   6
   2   4 -12 18601.3 608.894   6
   2  -4 -12 18244.5 575.458   6
   1   4 -12 5568.98 338.144   6
   1  -4 -12 5828.10 327.766   6
   0   4 -12 640.723 151.931   6
   0  -4 -12 466.069 140.282   6
  -1   4 -12 8331.27 410.991   6
  -1  -4 -12 8331.02 396.494   6
  -2  -4 -12-28.5723 137.183   6
  10  -5 -12 1849.16 220.801   6
   9  -5 -12 57.1307 125.108   6
   8  -5 -12 999.225 172.102   6
   8   5 -12 933.485 188.298   6
   7  -5 -12 589.219 158.081   6
   7   5 -12 345.315 159.922   6
   6  -5 -12 287.007 122.077   6
   6   5 -12 168.635 129.275   6
   5   5 -12-78.6899 136.379   6
   5  -5 -12-23.4147 120.677   6
   4  -5 -12 403.739 129.560   3
   4   5 -12 604.175 156.304   6
   4  -5 -12 545.167 136.010   6
   3  -5 -12 415.199 132.044   5
   3   5 -12 388.697 153.879   6
   3  -5 -12 287.299 128.880   6
   2   5 -12 157.795 142.137   6
   2  -5 -12 101.850 117.890   6
   1   5 -12 30.0444 138.609   6
   1  -5 -12 202.790 125.000   6
   0   5 -12 77.3448 128.431   6
   0  -5 -12 264.278 134.720   6
  -1   5 -12 198.705 149.766   6
  -1  -5 -12 214.731 132.564   6
  -2  -5 -12 753.673 166.329   6
   9  -6 -12 199.758 137.636   6
   8  -6 -12 1338.35 184.559   6
   8   6 -12 1760.48 223.509   6
   7  -6 -12 5290.43 306.863   6
   7   6 -12 5496.22 347.702   6
   6  -6 -12 145.970 120.504   6
   6   6 -12 110.541 147.702   6
   6  -6 -12 119.951 140.806   3
   5  -6 -12 3482.89 247.501   6
   5   6 -12 4011.02 290.101   6
   5  -6 -12 3840.46 264.341   3
   4   6 -12 2540.24 238.906   6
   4  -6 -12 2476.49 218.922   6
   3  -6 -12 1909.30 203.141   5
   3   6 -12 1914.85 228.810   6
   3  -6 -12 1913.54 204.411   6
   2   6 -12 10227.1 454.223   6
   2  -6 -12 10414.1 419.708   6
   1   6 -12 2019.73 227.192   6
   1  -6 -12 2070.95 207.582   6
   0   6 -12 152.015 136.926   6
   0  -6 -12 110.601 125.770   6
  -1   6 -12 12668.0 515.449   6
  -1  -6 -12 12764.1 492.548   6
  -2  -6 -12 106.241 126.113   6
   9  -7 -12 9624.48 472.627   3
   8  -7 -12 8423.66 382.473   6
   8   7 -12 8559.50 434.632   6
   8  -7 -12 9024.78 438.657   3
   7  -7 -12 380.338 153.903   3
   7  -7 -12 684.095 149.338   6
   7   7 -12 635.357 163.285   6
   6  -7 -12 10437.2 416.199   6
   6   7 -12 11708.5 493.451   6
   6  -7 -12 11225.1 458.765   3
   5  -7 -12 1303.45 183.628   3
   5  -7 -12 1667.32 186.365   6
   5   7 -12 1722.27 214.835   6
   4  -7 -12 7061.08 334.570   3
   4   7 -12 6631.61 371.617   6
   4  -7 -12 6469.42 328.754   6
   3  -7 -12 35524.4 811.517   5
   3   7 -12 34528.9 883.299   6
   3  -7 -12 33848.0 805.646   6
   2   7 -12 1107.16 178.466   6
   2  -7 -12 884.092 153.686   6
   1   7 -12 9924.51 446.918   6
   1  -7 -12 8784.24 389.295   6
   0   7 -12 18866.4 630.836   6
   0  -7 -12 17859.8 572.725   6
  -1  -7 -12 264.196 127.087   6
  -2  -7 -12 13995.3 528.724   6
   8  -8 -12 2664.35 262.839   3
   7  -8 -12 3829.29 295.981   3
   7  -8 -12 4183.27 266.494   6
   7   8 -12 4433.64 318.062   6
   6  -8 -12 60.7893 140.917   3
   6  -8 -12 251.601 128.650   6
   6   8 -12 242.954 145.006   6
   5  -8 -12 2415.75 226.349   3
   5  -8 -12 2675.32 219.416   6
   5   8 -12 2755.56 257.891   6
   4  -8 -12 2830.95 223.890   3
   4  -8 -12 3224.66 239.253   5
   4   8 -12 3266.68 274.528   6
   4  -8 -12 3335.94 238.130   6
   3  -8 -12 206.232 149.242   5
   3   8 -12 492.083 160.859   6
   3  -8 -12 580.853 148.709   6
   2  -8 -12 2940.35 250.578   5
   2   8 -12 3233.23 266.918   6
   2  -8 -12 2991.30 236.728   6
   1   8 -12 87.3049 137.835   6
   1  -8 -12 344.245 138.793   6
   0   8 -12 1654.96 218.079   6
   0  -8 -12 1347.07 184.533   6
  -1  -8 -12 3458.58 267.741   6
  -2  -8 -12 1099.28 181.892   6
   8  -9 -12 715.429 190.441   3
   7  -9 -12 213.165 158.971   3
   6  -9 -12 305.404 143.692   3
   6   9 -12 657.526 159.355   6
   5  -9 -12 28.2767 129.421   3
   5  -9 -12 240.738 122.574   6
   5   9 -12 13.0895 131.998   6
   4  -9 -12 2190.94 213.867   5
   4   9 -12 1676.13 212.830   6
   4  -9 -12 1793.77 183.325   6
   3  -9 -12 4290.23 282.048   5
   3   9 -12 4132.02 307.811   6
   3  -9 -12 4085.93 265.442   6
   2  -9 -12 1121.62 189.102   5
   2   9 -12 979.527 188.065   6
   2  -9 -12 1069.75 169.596   6
   1   9 -12 2747.19 261.071   6
   1  -9 -12 1874.17 198.836   6
   0   9 -12 3746.02 297.736   6
   0  -9 -12 3652.61 264.885   6
  -1  -9 -12 178.704 133.758   6
  -2  -9 -12 559.511 158.540   6
   8 -10 -12 6186.32 374.576   3
   7 -10 -12 9406.33 442.760   3
   6 -10 -12-204.728 163.857   3
   6  10 -12 97.2680 134.378   6
   5 -10 -12 7799.29 378.270   3
   5  10 -12 7710.13 404.975   6
   4 -10 -12 6537.84 337.467   5
   4  10 -12 6903.67 382.586   6
   4 -10 -12 6806.13 323.522   6
   3 -10 -12 22.0077 134.032   5
   3  10 -12-60.8053 132.778   6
   3 -10 -12-14.8254 103.667   6
   2 -10 -12 15414.3 537.956   5
   2  10 -12 15337.8 570.485   6
   2 -10 -12 14874.5 496.099   6
   1 -10 -12 2757.62 253.088   5
   1  10 -12 2791.54 262.561   6
   1 -10 -12 2573.48 224.255   6
   0 -10 -12 5826.57 323.392   6
  -1 -10 -12 13851.8 505.381   6
  -2 -10 -12 415.703 138.907   6
   8 -11 -12 1447.47 225.623   3
   7 -11 -12 584.674 175.537   3
   6 -11 -12 10383.3 450.561   3
   5 -11 -12 8001.75 382.367   3
   5  11 -12 7556.92 412.924   6
   4 -11 -12 3483.58 257.074   5
   4  11 -12 3413.14 289.331   6
   3 -11 -12 7369.39 375.933   5
   3  11 -12 7037.76 394.933   6
   2 -11 -12 1082.99 203.472   5
   2  11 -12 993.628 182.317   6
   2 -11 -12 1236.45 173.419   6
   1 -11 -12 9909.10 446.972   5
   1 -11 -12 9916.96 401.629   6
   0 -11 -12 4019.14 272.326   6
  -1 -11 -12 2135.16 216.894   6
  -2 -11 -12 12800.6 497.932   6
   7 -12 -12-16.1223 154.369   3
   6 -12 -12-77.6521 152.131   3
   5 -12 -12 317.214 150.622   3
   4 -12 -12 145.291 147.220   5
   3 -12 -12 576.361 171.640   5
   2 -12 -12 1041.65 192.278   5
   1 -12 -12 104.608 159.288   5
   0 -12 -12 713.222 193.912   5
  -1 -12 -12-159.988 134.402   6
  -2 -12 -12 137.058 137.344   6
   7 -13 -12 3436.80 297.193   3
   6 -13 -12 7963.91 407.344   3
   5 -13 -12 6623.09 360.615   3
   4 -13 -12 1309.91 207.313   5
   3 -13 -12 4383.02 315.384   5
   2 -13 -12 1383.70 214.842   5
   1 -13 -12 8528.84 429.264   5
   0 -13 -12 3883.54 308.549   5
   7 -14 -12 6574.10 390.255   3
   6 -14 -12 123.075 146.166   3
   5 -14 -12 7705.67 387.508   3
   4 -14 -12 9736.09 435.260   5
   3 -14 -12 57.5292 147.348   5
   2 -14 -12 12607.7 516.846   5
   1 -14 -12 1717.97 228.097   5
   4 -15 -12 2055.43 239.923   5
   3 -15 -12 4868.44 330.361   5
   2 -15 -12 21.9292 155.801   5
   1 -15 -12 1067.46 215.233   5
   6 -16 -12-71.4738 160.353   3
   4 -16 -12 3196.41 279.794   5
   3 -16 -12 783.378 199.102   5
   2 -16 -12 507.981 184.127   5
   4 -17 -12 3746.19 304.013   5
   3 -17 -12 10851.4 495.417   5
   8   0 -13 151.851 149.016   6
   7   0 -13 457.712 177.262   6
   6   0 -13 102.536 129.879   6
   5   0 -13 23.9954 126.938   6
   4   0 -13-33.2470 122.675   6
   3   0 -13 227.400 134.992   6
   2   0 -13 118.929 151.333   6
   1   0 -13-145.768 132.387   6
   8  -1 -13 2177.76 243.234   6
   7  -1 -13 11992.6 502.765   6
   7   1 -13 12427.4 516.768   6
   6  -1 -13 200.861 135.763   6
   6   1 -13 250.990 168.227   6
   5   1 -13 1693.23 208.411   6
   5  -1 -13 2015.05 217.261   6
   4   1 -13 1853.92 216.773   6
   4  -1 -13 2159.39 226.679   6
   3   1 -13 2099.31 235.585   6
   3  -1 -13 2627.15 249.883   6
   2   1 -13 10716.3 477.680   6
   2  -1 -13 11672.0 488.019   6
   1   1 -13 307.604 150.982   6
   1  -1 -13 267.690 132.288   6
   8  -2 -13 6279.21 370.521   6
   7  -2 -13 4196.91 308.073   6
   7   2 -13 4126.58 311.781   6
   6  -2 -13 10384.0 452.484   6
   6   2 -13 10564.9 473.911   6
   5   2 -13 2931.34 260.948   6
   5  -2 -13 3063.39 259.691   6
   4   2 -13 4505.26 318.276   6
   4  -2 -13 4460.77 304.933   6
   3   2 -13 17459.5 602.551   6
   3  -2 -13 16784.4 584.429   6
   2   2 -13 123.385 132.365   6
   2  -2 -13 209.673 143.115   6
   1  -2 -13 11224.5 476.826   6
   9  -3 -13 298.216 156.522   6
   8  -3 -13 393.396 154.581   6
   7  -3 -13 237.106 148.538   6
   6  -3 -13 456.790 159.509   6
   6   3 -13 365.031 157.225   6
   5   3 -13 4089.40 303.729   6
   5  -3 -13 3865.10 285.635   6
   4   3 -13 440.763 141.191   6
   4  -3 -13 340.640 143.352   6
   3   3 -13 316.612 151.547   6
   3  -3 -13 432.953 157.886   6
   2   3 -13 526.847 156.995   6
   2  -3 -13 552.653 157.110   6
   1  -3 -13 1446.68 205.766   6
   0  -3 -13 1322.60 197.291   6
   8  -4 -13 740.636 171.139   6
   7  -4 -13 807.267 181.889   6
   6  -4 -13 3228.94 263.585   6
   5  -4 -13 240.228 146.584   6
   5   4 -13 205.011 147.232   6
   4   4 -13 1905.37 234.516   6
   4  -4 -13 1721.81 213.140   6
   3   4 -13 3809.59 300.412   6
   3  -4 -13 4765.75 310.763   6
   2  -4 -13 252.928 144.292   6
   1  -4 -13 2377.01 244.867   6
   0  -4 -13 673.459 164.957   6
   8  -5 -13 8784.02 423.879   6
   7  -5 -13 3348.11 272.919   6
   6  -5 -13-128.664 153.962   3
   6  -5 -13 316.701 141.275   6
   5  -5 -13 12762.8 492.648   6
   4  -5 -13 4068.57 288.612   6
   3  -5 -13 953.790 172.400   6
   2  -5 -13 12451.7 489.584   6
   1  -5 -13 260.647 148.952   6
   0  -5 -13 3064.62 259.761   6
   7  -6 -13 1128.02 202.507   3
   7  -6 -13 1460.95 194.583   6
   6  -6 -13 5926.37 352.733   3
   6  -6 -13 5714.63 333.010   6
   5  -6 -13 3013.38 251.830   6
   4  -6 -13 12358.3 479.998   6
   3  -6 -13 4288.71 294.063   6
   2  -6 -13-76.9016 125.861   6
   1  -6 -13 2006.42 218.998   6
   0  -6 -13 5047.32 321.903   6
   7  -7 -13 405.695 172.739   3
   6  -7 -13-110.827 150.223   3
   6  -7 -13 185.287 145.620   6
   5  -7 -13 769.241 162.885   6
   4  -7 -13 432.094 154.824   6
   3  -7 -13 295.076 137.790   6
   2  -7 -13 79.1335 152.674   5
   2  -7 -13-48.4132 129.888   6
   1  -7 -13 55.6952 118.091   6
   0  -7 -13 335.175 140.792   6
   7  -8 -13 2711.44 274.236   3
   4  -8 -13 6835.35 351.204   6
   3  -8 -13 4810.50 303.101   6
   2  -8 -13 2616.78 257.258   5
   2  -8 -13 2883.16 251.448   6
   1  -8 -13 7678.71 387.113   6
   0  -8 -13 4541.37 305.384   6
   7  -9 -13 8678.46 438.874   3
   3  -9 -13 1414.88 187.005   6
   2  -9 -13 11701.2 488.350   5
   2  -9 -13 10563.8 445.964   6
   1  -9 -13 2994.00 279.066   5
   1  -9 -13 2454.22 239.337   6
   0  -9 -13 3393.86 269.275   6
   2 -10 -13 109.696 158.887   5
   1 -10 -13 557.116 187.778   5
   2 -11 -13 711.005 179.817   5
   1 -11 -13 1611.35 238.017   5
   2 -12 -13 308.013 175.089   5
   0   0   0    0.00    0.00   0
TITL bmo281_3m in P2(1)/c; 130K; Xcalibur
REM P2(1)/c (#14 in standard setting)
CELL 0.71073  10.854602  23.626135   9.679865  90.0000 104.1399  90.0000
ZERR    4.00   0.000313   0.000657   0.000343   0.0000   0.0034   0.0000
LATT  1
SYMM -x, y+1/2,-z+1/2
SFAC C H N O Cd
UNIT 80.00 80.00 16.00 40.00 4.00
TREF
HKLF 4
END
;
_shelx_hkl_checksum              37250
loop_
_space_group_symop_operation_xyz
'x, y, z'
'-x, y+1/2, -z+1/2'
'-x, -y, -z'
'x, -y-1/2, z-1/2'
loop_
_atom_site_label
_atom_site_type_symbol
_atom_site_fract_x
_atom_site_fract_y
_atom_site_fract_z
_atom_site_U_iso_or_equiv
_atom_site_adp_type
_atom_site_occupancy
_atom_site_site_symmetry_order
_atom_site_calc_flag
_atom_site_refinement_flags_posn
_atom_site_refinement_flags_adp
_atom_site_refinement_flags_occupancy
_atom_site_disorder_assembly
_atom_site_disorder_group
Cd1 Cd 0.31934(2) 0.10554(2) 0.47238(2) 0.02093(4) Uani 1 1 d . . . . .
O11 O 0.16405(13) 0.04458(5) 0.36101(13) 0.0311(3) Uani 1 1 d . . . . .
O12 O 0.23175(13) 0.09961(5) 0.21045(14) 0.0294(3) Uani 1 1 d . . . . .
C11 C 0.16382(15) 0.06030(6) 0.23581(17) 0.0217(3) Uani 1 1 d . . . . .
C12 C 0.07842(14) 0.02922(6) 0.11325(16) 0.0200(3) Uani 1 1 d . . . . .
C13 C -0.01368(15) -0.00798(7) 0.13789(17) 0.0218(3) Uani 1 1 d . . . . .
H13 H -0.0231 -0.0134 0.2320 0.026 Uiso 1 1 calc R U . . .
C14 C 0.09155(15) 0.03711(7) -0.02532(17) 0.0223(3) Uani 1 1 d . . . . .
H14 H 0.1540 0.0625 -0.0426 0.027 Uiso 1 1 calc R U . . .
O21 O 0.42350(13) 0.03360(5) 0.61964(13) 0.0302(3) Uani 1 1 d . . . . .
O22 O 0.33006(14) 0.09829(6) 0.72234(14) 0.0350(3) Uani 1 1 d . . . . .
C21 C 0.39694(15) 0.05461(7) 0.72827(17) 0.0224(3) Uani 1 1 d . . . . .
C22 C 0.44928(14) 0.02613(7) 0.86914(16) 0.0202(3) Uani 1 1 d . . . . .
C23 C 0.52082(15) -0.02329(7) 0.87554(17) 0.0222(3) Uani 1 1 d . . . . .
H23 H 0.5352 -0.0391 0.7906 0.027 Uiso 1 1 calc R U . . .
C24 C 0.42909(15) 0.04940(7) 0.99476(17) 0.0224(3) Uani 1 1 d . . . . .
H24 H 0.3809 0.0832 0.9911 0.027 Uiso 1 1 calc R U . . .
N11 N 0.51175(14) 0.12191(6) 0.43047(15) 0.0254(3) Uani 1 1 d . . . . .
N12 N 0.70227(14) 0.10050(6) 0.40508(16) 0.0254(3) Uani 1 1 d . . . . .
N13 N 1.12782(14) 0.22991(6) 0.91998(16) 0.0256(3) Uani 1 1 d . . . . .
N14 N 1.24848(14) 0.30551(6) 0.96919(15) 0.0252(3) Uani 1 1 d . . . . .
C101 C 0.60985(16) 0.08712(7) 0.46913(17) 0.0231(3) Uani 1 1 d . . . . .
H101 H 0.6141 0.0566 0.5340 0.028 Uiso 1 1 calc R U . . .
C102 C 0.54424(19) 0.15923(8) 0.3362(2) 0.0339(4) Uani 1 1 d . . . . .
H102 H 0.4921 0.1892 0.2895 0.041 Uiso 1 1 calc R U . . .
C103 C 0.66168(19) 0.14680(8) 0.3199(2) 0.0346(4) Uani 1 1 d . . . . .
H103 H 0.7068 0.1661 0.2616 0.041 Uiso 1 1 calc R U . . .
C104 C 0.82476(17) 0.07157(8) 0.4252(2) 0.0305(4) Uani 1 1 d . . . . .
H10A H 0.8357 0.0586 0.3317 0.037 Uiso 1 1 calc R U . . .
H10B H 0.8255 0.0378 0.4860 0.037 Uiso 1 1 calc R U . . .
C105 C 0.93461(18) 0.11011(8) 0.4942(2) 0.0317(4) Uani 1 1 d . . . . .
H10C H 0.9392 0.1416 0.4280 0.038 Uiso 1 1 calc R U . . .
H10D H 1.0149 0.0884 0.5096 0.038 Uiso 1 1 calc R U . . .
C106 C 0.92315(16) 0.13472(7) 0.63587(19) 0.0269(3) Uani 1 1 d . . . . .
H10E H 0.9106 0.1035 0.6992 0.032 Uiso 1 1 calc R U . . .
H10F H 0.8473 0.1594 0.6193 0.032 Uiso 1 1 calc R U . . .
C107 C 1.04011(16) 0.16894(8) 0.7103(2) 0.0284(3) Uani 1 1 d . . . . .
H10G H 1.1160 0.1442 0.7301 0.034 Uiso 1 1 calc R U . . .
H10H H 1.0541 0.2000 0.6471 0.034 Uiso 1 1 calc R U . . .
C108 C 1.02212(17) 0.19343(8) 0.8487(2) 0.0288(4) Uani 1 1 d . . . . .
H10I H 0.9424 0.2156 0.8289 0.035 Uiso 1 1 calc R U . . .
H10J H 1.0135 0.1621 0.9135 0.035 Uiso 1 1 calc R U . . .
C109 C 1.22376(19) 0.21661(8) 1.0366(2) 0.0338(4) Uani 1 1 d . . . . .
H109 H 1.2365 0.1816 1.0861 0.041 Uiso 1 1 calc R U . . .
C110 C 1.29645(19) 0.26368(8) 1.0666(2) 0.0360(4) Uani 1 1 d . . . . .
H110 H 1.3697 0.2673 1.1433 0.043 Uiso 1 1 calc R U . . .
C111 C 1.14675(16) 0.28339(7) 0.88283(18) 0.0246(3) Uani 1 1 d . . . . .
H111 H 1.0937 0.3028 0.8045 0.030 Uiso 1 1 calc R U . . .
O1 O 0.87131(16) 0.20138(8) 0.14025(18) 0.0536(4) Uani 1 1 d . . . . .
N1 N 0.72742(15) 0.16325(7) -0.04740(18) 0.0340(3) Uani 1 1 d . . . . .
C1 C 0.7863(2) 0.20589(9) 0.0319(2) 0.0375(4) Uani 1 1 d . . . . .
H1 H 0.7598 0.2431 0.0014 0.045 Uiso 1 1 calc R U . . .
C2 C 0.7628(2) 0.10502(9) -0.0122(3) 0.0453(5) Uani 1 1 d . . . . .
H2A H 0.7747 0.0854 -0.0972 0.068 Uiso 1 1 calc R U . . .
H2B H 0.6954 0.0863 0.0221 0.068 Uiso 1 1 calc R U . . .
H2C H 0.8421 0.1039 0.0624 0.068 Uiso 1 1 calc R U . . .
C3 C 0.6244(3) 0.17328(11) -0.1715(3) 0.0575(7) Uani 1 1 d . . . . .
H3A H 0.6416 0.1533 -0.2536 0.086 Uiso 1 1 calc R U . . .
H3B H 0.6172 0.2140 -0.1916 0.086 Uiso 1 1 calc R U . . .
H3C H 0.5448 0.1593 -0.1535 0.086 Uiso 1 1 calc R U . . .
loop_
_atom_site_aniso_label
_atom_site_aniso_U_11
_atom_site_aniso_U_22
_atom_site_aniso_U_33
_atom_site_aniso_U_23
_atom_site_aniso_U_13
_atom_site_aniso_U_12
Cd1 0.02419(6) 0.01884(6) 0.01717(6) -0.00211(4) 0.00010(4) -0.00114(4)
O11 0.0386(7) 0.0325(7) 0.0189(6) -0.0032(5) 0.0010(5) -0.0113(5)
O12 0.0335(7) 0.0273(6) 0.0238(6) -0.0034(5) -0.0001(5) -0.0097(5)
C11 0.0219(7) 0.0195(7) 0.0211(7) -0.0029(6) 0.0000(6) 0.0014(5)
C12 0.0202(7) 0.0176(7) 0.0195(7) -0.0026(5) -0.0002(6) 0.0013(5)
C13 0.0241(7) 0.0214(7) 0.0187(7) -0.0013(6) 0.0030(6) 0.0003(6)
C14 0.0216(7) 0.0207(7) 0.0236(8) -0.0013(6) 0.0033(6) -0.0024(5)
O21 0.0467(8) 0.0254(6) 0.0187(6) 0.0010(5) 0.0083(5) 0.0030(5)
O22 0.0413(8) 0.0390(7) 0.0223(6) 0.0023(5) 0.0031(6) 0.0167(6)
C21 0.0222(7) 0.0237(7) 0.0195(7) -0.0012(6) 0.0014(6) -0.0038(6)
C22 0.0191(7) 0.0233(7) 0.0169(7) -0.0015(5) 0.0019(6) -0.0014(5)
C23 0.0237(7) 0.0251(7) 0.0176(7) -0.0042(6) 0.0047(6) 0.0003(6)
C24 0.0217(7) 0.0231(7) 0.0210(7) -0.0026(6) 0.0027(6) 0.0030(6)
N11 0.0260(7) 0.0238(7) 0.0240(7) 0.0010(5) 0.0017(6) -0.0016(5)
N12 0.0261(7) 0.0232(7) 0.0260(7) -0.0015(5) 0.0042(6) -0.0038(5)
N13 0.0281(7) 0.0233(7) 0.0252(7) 0.0006(5) 0.0058(6) -0.0012(5)
N14 0.0294(7) 0.0205(6) 0.0230(7) 0.0032(5) 0.0013(6) 0.0000(5)
C101 0.0257(8) 0.0218(7) 0.0201(7) -0.0019(6) 0.0026(6) -0.0038(6)
C102 0.0354(9) 0.0278(9) 0.0358(10) 0.0106(7) 0.0037(8) -0.0018(7)
C103 0.0400(10) 0.0301(9) 0.0339(10) 0.0075(7) 0.0094(8) -0.0058(7)
C104 0.0285(8) 0.0280(9) 0.0361(9) -0.0069(7) 0.0103(7) -0.0007(6)
C105 0.0262(8) 0.0354(9) 0.0354(10) -0.0052(7) 0.0112(7) -0.0035(7)
C106 0.0232(8) 0.0269(8) 0.0307(9) -0.0003(7) 0.0066(7) -0.0015(6)
C107 0.0244(8) 0.0300(9) 0.0314(9) -0.0029(7) 0.0079(7) -0.0027(6)
C108 0.0275(8) 0.0283(8) 0.0315(9) -0.0007(7) 0.0089(7) -0.0053(6)
C109 0.0376(10) 0.0257(8) 0.0335(10) 0.0101(7) 0.0003(8) 0.0002(7)
C110 0.0357(10) 0.0287(9) 0.0349(10) 0.0096(7) -0.0081(8) -0.0012(7)
C111 0.0286(8) 0.0226(7) 0.0216(7) 0.0017(6) 0.0042(6) 0.0012(6)
O1 0.0485(9) 0.0662(11) 0.0392(9) 0.0044(8) -0.0027(7) -0.0234(8)
N1 0.0308(8) 0.0301(8) 0.0384(9) -0.0006(7) 0.0031(7) -0.0029(6)
C1 0.0398(10) 0.0374(10) 0.0353(10) 0.0011(8) 0.0088(9) -0.0098(8)
C2 0.0396(11) 0.0321(10) 0.0663(16) 0.0040(10) 0.0165(11) 0.0027(8)
C3 0.0546(14) 0.0480(14) 0.0555(15) -0.0036(11) -0.0140(12) -0.0007(11)
loop_
_atom_type_symbol
_atom_type_description
_atom_type_scat_dispersion_real
_atom_type_scat_dispersion_imag
_atom_type_scat_source
C C 0.0033 0.0016 'International Tables Vol C Tables 4.2.6.8 and 6.1.1.4'
H H 0.0000 0.0000 'International Tables Vol C Tables 4.2.6.8 and 6.1.1.4'
N N 0.0061 0.0033 'International Tables Vol C Tables 4.2.6.8 and 6.1.1.4'
O O 0.0106 0.0060 'International Tables Vol C Tables 4.2.6.8 and 6.1.1.4'
Cd Cd -0.8075 1.2024 'International Tables Vol C Tables 4.2.6.8 and 6.1.1.4'
loop_
_geom_angle_atom_site_label_1
_geom_angle_atom_site_label_2
_geom_angle_atom_site_label_3
_geom_angle
_geom_angle_site_symmetry_1
_geom_angle_site_symmetry_3
_geom_angle_publ_flag
O11 Cd1 O12 55.05(4) . . yes
O11 Cd1 C11 27.73(5) . . ?
O11 Cd1 O21 91.19(5) . . yes
O11 Cd1 O22 106.26(5) . . yes
O11 Cd1 C21 100.46(5) . . ?
O12 Cd1 C11 27.33(4) . . ?
O12 Cd1 C21 150.21(4) . . ?
O21 Cd1 O12 126.27(4) . . yes
O21 Cd1 C11 109.80(4) . . ?
O21 Cd1 O22 55.49(4) . . yes
O21 Cd1 C21 27.78(5) . . ?
O22 Cd1 O12 159.54(5) . . yes
O22 Cd1 C11 133.66(5) . . ?
O22 Cd1 C21 27.73(5) . . ?
C21 Cd1 C11 126.18(5) . . ?
N11 Cd1 O11 129.33(5) . . yes
N11 Cd1 O12 88.08(5) . . yes
N11 Cd1 C11 109.18(5) . . ?
N11 Cd1 O21 84.42(5) . . yes
N11 Cd1 O22 111.99(5) . . yes
N11 Cd1 C21 98.43(5) . . ?
N14 Cd1 O11 112.06(5) 4_465 . yes
N14 Cd1 O12 89.67(5) 4_465 . yes
N14 Cd1 C11 102.58(5) 4_465 . ?
N14 Cd1 O21 144.03(5) 4_465 . yes
N14 Cd1 O22 90.73(5) 4_465 . yes
N14 Cd1 C21 117.47(5) 4_465 . ?
N14 Cd1 N11 99.61(5) 4_465 . yes
C11 O11 Cd1 95.49(10) . . ?
C11 O12 Cd1 86.47(10) . . ?
O11 C11 Cd1 56.78(8) . . ?
O11 C11 C12 117.88(14) . . ?
O12 C11 Cd1 66.20(9) . . ?
O12 C11 O11 122.93(15) . . ?
O12 C11 C12 119.19(15) . . ?
C12 C11 Cd1 173.78(11) . . ?
C13 C12 C11 120.10(14) . . ?
C13 C12 C14 119.62(14) . . ?
C14 C12 C11 120.28(14) . . ?
C12 C13 H13 119.9 . . ?
C14 C13 C12 120.19(15) 3 . ?
C14 C13 H13 119.9 3 . ?
C12 C14 H14 119.9 . . ?
C13 C14 C12 120.19(15) 3 . ?
C13 C14 H14 119.9 3 . ?
C21 O21 Cd1 92.73(10) . . ?
C21 O22 Cd1 89.42(10) . . ?
O21 C21 Cd1 59.49(8) . . ?
O21 C21 C22 117.96(14) . . ?
O22 C21 Cd1 62.85(9) . . ?
O22 C21 O21 122.29(15) . . ?
O22 C21 C22 119.75(15) . . ?
C22 C21 Cd1 176.02(12) . . ?
C23 C22 C21 119.88(14) . . ?
C23 C22 C24 119.59(14) . . ?
C24 C22 C21 120.52(14) . . ?
C22 C23 H23 119.9 . . ?
C24 C23 C22 120.26(14) 3_657 . ?
C24 C23 H23 119.9 3_657 . ?
C22 C24 H24 119.9 . . ?
C23 C24 C22 120.15(14) 3_657 . ?
C23 C24 H24 119.9 3_657 . ?
C101 N11 Cd1 123.94(11) . . ?
C101 N11 C102 105.46(15) . . ?
C102 N11 Cd1 128.89(12) . . ?
C101 N12 C103 107.37(15) . . ?
C101 N12 C104 125.88(15) . . ?
C103 N12 C104 126.74(16) . . ?
C109 N13 C108 127.02(15) . . ?
C111 N13 C108 125.48(15) . . ?
C111 N13 C109 107.50(15) . . ?
C110 N14 Cd1 126.44(12) . 4_666 ?
C111 N14 Cd1 127.82(11) . 4_666 ?
C111 N14 C110 105.51(14) . . ?
N11 C101 N12 111.34(15) . . ?
N11 C101 H101 124.3 . . ?
N12 C101 H101 124.3 . . ?
N11 C102 H102 125.1 . . ?
C103 C102 N11 109.84(16) . . ?
C103 C102 H102 125.1 . . ?
N12 C103 H103 127.0 . . ?
C102 C103 N12 105.99(16) . . ?
C102 C103 H103 127.0 . . ?
N12 C104 H10A 109.3 . . ?
N12 C104 H10B 109.3 . . ?
N12 C104 C105 111.60(14) . . ?
H10A C104 H10B 108.0 . . ?
C105 C104 H10A 109.3 . . ?
C105 C104 H10B 109.3 . . ?
C104 C105 H10C 108.9 . . ?
C104 C105 H10D 108.9 . . ?
C104 C105 C106 113.36(15) . . ?
H10C C105 H10D 107.7 . . ?
C106 C105 H10C 108.9 . . ?
C106 C105 H10D 108.9 . . ?
C105 C106 H10E 109.1 . . ?
C105 C106 H10F 109.1 . . ?
C105 C106 C107 112.66(14) . . ?
H10E C106 H10F 107.8 . . ?
C107 C106 H10E 109.1 . . ?
C107 C106 H10F 109.1 . . ?
C106 C107 H10G 109.6 . . ?
C106 C107 H10H 109.6 . . ?
H10G C107 H10H 108.1 . . ?
C108 C107 C106 110.31(14) . . ?
C108 C107 H10G 109.6 . . ?
C108 C107 H10H 109.6 . . ?
N13 C108 C107 112.69(14) . . ?
N13 C108 H10I 109.1 . . ?
N13 C108 H10J 109.1 . . ?
C107 C108 H10I 109.1 . . ?
C107 C108 H10J 109.1 . . ?
H10I C108 H10J 107.8 . . ?
N13 C109 H109 127.1 . . ?
C110 C109 N13 105.88(15) . . ?
C110 C109 H109 127.1 . . ?
N14 C110 H110 125.1 . . ?
C109 C110 N14 109.87(16) . . ?
C109 C110 H110 125.1 . . ?
N13 C111 H111 124.4 . . ?
N14 C111 N13 111.23(15) . . ?
N14 C111 H111 124.4 . . ?
C1 N1 C2 121.44(18) . . ?
C1 N1 C3 121.29(18) . . ?
C2 N1 C3 117.27(18) . . ?
O1 C1 N1 125.8(2) . . ?
O1 C1 H1 117.1 . . ?
N1 C1 H1 117.1 . . ?
N1 C2 H2A 109.5 . . ?
N1 C2 H2B 109.5 . . ?
N1 C2 H2C 109.5 . . ?
H2A C2 H2B 109.5 . . ?
H2A C2 H2C 109.5 . . ?
H2B C2 H2C 109.5 . . ?
N1 C3 H3A 109.5 . . ?
N1 C3 H3B 109.5 . . ?
N1 C3 H3C 109.5 . . ?
H3A C3 H3B 109.5 . . ?
H3A C3 H3C 109.5 . . ?
H3B C3 H3C 109.5 . . ?
loop_
_geom_bond_atom_site_label_1
_geom_bond_atom_site_label_2
_geom_bond_distance
_geom_bond_site_symmetry_2
_geom_bond_publ_flag
Cd1 O11 2.2782(12) . yes
Cd1 O12 2.4848(13) . yes
Cd1 C11 2.7106(15) . ?
Cd1 O21 2.3262(12) . yes
Cd1 O22 2.4000(13) . yes
Cd1 C21 2.6970(16) . ?
Cd1 N11 2.2561(15) . yes
Cd1 N14 2.2355(14) 4_465 yes
O11 C11 1.267(2) . ?
O12 C11 1.247(2) . ?
C11 C12 1.506(2) . ?
C12 C13 1.395(2) . ?
C12 C14 1.396(2) . ?
C13 H13 0.9500 . ?
C13 C14 1.388(2) 3 ?
C14 C13 1.388(2) 3 ?
C14 H14 0.9500 . ?
O21 C21 1.258(2) . ?
O22 C21 1.255(2) . ?
C21 C22 1.502(2) . ?
C22 C23 1.395(2) . ?
C22 C24 1.400(2) . ?
C23 H23 0.9500 . ?
C23 C24 1.385(2) 3_657 ?
C24 C23 1.385(2) 3_657 ?
C24 H24 0.9500 . ?
N11 C101 1.325(2) . ?
N11 C102 1.375(2) . ?
N12 C101 1.340(2) . ?
N12 C103 1.376(2) . ?
N12 C104 1.465(2) . ?
N13 C108 1.466(2) . ?
N13 C109 1.372(2) . ?
N13 C111 1.343(2) . ?
N14 Cd1 2.2355(14) 4_666 ?
N14 C110 1.377(2) . ?
N14 C111 1.319(2) . ?
C101 H101 0.9500 . ?
C102 H102 0.9500 . ?
C102 C103 1.354(3) . ?
C103 H103 0.9500 . ?
C104 H10A 0.9900 . ?
C104 H10B 0.9900 . ?
C104 C105 1.519(3) . ?
C105 H10C 0.9900 . ?
C105 H10D 0.9900 . ?
C105 C106 1.523(3) . ?
C106 H10E 0.9900 . ?
C106 H10F 0.9900 . ?
C106 C107 1.529(2) . ?
C107 H10G 0.9900 . ?
C107 H10H 0.9900 . ?
C107 C108 1.515(2) . ?
C108 H10I 0.9900 . ?
C108 H10J 0.9900 . ?
C109 H109 0.9500 . ?
C109 C110 1.353(3) . ?
C110 H110 0.9500 . ?
C111 H111 0.9500 . ?
O1 C1 1.221(3) . ?
N1 C1 1.331(2) . ?
N1 C2 1.446(2) . ?
N1 C3 1.447(3) . ?
C1 H1 0.9500 . ?
C2 H2A 0.9800 . ?
C2 H2B 0.9800 . ?
C2 H2C 0.9800 . ?
C3 H3A 0.9800 . ?
C3 H3B 0.9800 . ?
C3 H3C 0.9800 . ?
