#------------------------------------------------------------------------------
#$Date: 2017-12-29 11:04:17 +0200 (Fri, 29 Dec 2017) $
#$Revision: 204582 $
#$URL: file:///home/coder/svn-repositories/cod/cif/1/54/85/1548558.cif $
#------------------------------------------------------------------------------
#
# This file is available in the Crystallography Open Database (COD),
# http://www.crystallography.net/
#
# All data on this site have been placed in the public domain by the
# contributors.
#
data_1548558
loop_
_publ_author_name
'Marina Barsukova'
'Tatiana Goncharova'
'Denis Samsonenko'
'Danil Dybtsev'
'Andrei Potapov'
_publ_section_title
;
 Synthesis, Crystal Structure, and Luminescent Properties of New Zinc(II)
 and Cadmium(II) Metal-Organic Frameworks Based on Flexible
 Bis(imidazol-1-yl)alkane Ligands
;
_journal_name_full               Crystals
_journal_page_first              132
_journal_paper_doi               10.3390/cryst6100132
_journal_volume                  6
_journal_year                    2016
_chemical_formula_sum            'C21 H26 Cd N4 O5'
_chemical_formula_weight         526.86
_space_group_crystal_system      triclinic
_space_group_IT_number           2
_space_group_name_Hall           '-P 1'
_space_group_name_H-M_alt        'P -1'
_symmetry_space_group_name_Hall  '-P 1'
_symmetry_space_group_name_H-M   'P -1'
_atom_sites_solution_hydrogens   geom
_atom_sites_solution_primary     direct
_atom_sites_solution_secondary   difmap
_cell_angle_alpha                107.371(8)
_cell_angle_beta                 91.269(8)
_cell_angle_gamma                116.622(10)
_cell_formula_units_Z            2
_cell_length_a                   9.2444(10)
_cell_length_b                   10.0116(8)
_cell_length_c                   14.4659(13)
_cell_measurement_reflns_used    5826
_cell_measurement_temperature    120(2)
_cell_measurement_theta_max      74.3120
_cell_measurement_theta_min      5.1220
_cell_volume                     1123.1(2)
_computing_cell_refinement
;
CrysAlisPro, Agilent Technologies,
Version 1.171.37.35 (release 13-08-2014 CrysAlis171 .NET)
(compiled Aug 13 2014,18:06:01)
;
_computing_data_collection
;
CrysAlisPro, Agilent Technologies,
Version 1.171.37.35 (release 13-08-2014 CrysAlis171 .NET)
(compiled Aug 13 2014,18:06:01)
;
_computing_data_reduction
;
CrysAlisPro, Agilent Technologies,
Version 1.171.37.35 (release 13-08-2014 CrysAlis171 .NET)
(compiled Aug 13 2014,18:06:01)
;
_computing_molecular_graphics    'ShelXle (H\"ubschle, 2011)'
_computing_publication_material  'CIFTAB-2013 (Sheldrick, 2013)'
_computing_structure_refinement  'SHELXL-2013 (Sheldrick, 2013)'
_computing_structure_solution    'SHELXS-2013 (Sheldrick, 2013)'
_diffrn_ambient_temperature      120(2)
_diffrn_detector                 'CCD plate'
_diffrn_detector_area_resol_mean 4.2207
_diffrn_detector_type            TitanS2
_diffrn_measured_fraction_theta_full 0.996
_diffrn_measured_fraction_theta_max 0.970
_diffrn_measurement_device       'four-circle diffractometer'
_diffrn_measurement_device_type  'GV1000, TitanS2'
_diffrn_measurement_method       '\w scan'
_diffrn_radiation_monochromator  mirror
_diffrn_radiation_probe          x-ray
_diffrn_radiation_type           CuK\a
_diffrn_radiation_wavelength     1.54184
_diffrn_reflns_av_R_equivalents  0.0568
_diffrn_reflns_av_unetI/netI     0.0540
_diffrn_reflns_Laue_measured_fraction_full 0.996
_diffrn_reflns_Laue_measured_fraction_max 0.970
_diffrn_reflns_limit_h_max       11
_diffrn_reflns_limit_h_min       -11
_diffrn_reflns_limit_k_max       12
_diffrn_reflns_limit_k_min       -10
_diffrn_reflns_limit_l_max       15
_diffrn_reflns_limit_l_min       -17
_diffrn_reflns_number            8600
_diffrn_reflns_point_group_measured_fraction_full 0.996
_diffrn_reflns_point_group_measured_fraction_max 0.970
_diffrn_reflns_theta_full        67.684
_diffrn_reflns_theta_max         74.359
_diffrn_reflns_theta_min         5.148
_diffrn_source                   'rotating-anode X-ray tube'
_diffrn_source_type              'GV1000 (Cu) X-ray Source'
_exptl_absorpt_coefficient_mu    8.124
_exptl_absorpt_correction_T_max  0.988
_exptl_absorpt_correction_T_min  0.951
_exptl_absorpt_correction_type   gaussian
_exptl_absorpt_process_details
;
CrysAlisPro, Agilent Technologies,
Version 1.171.37.35 (release 13-08-2014 CrysAlis171 .NET)
(compiled Aug 13 2014,18:06:01)
Numerical absorption correction based on gaussian integration over
a multifaceted crystal model
Empirical absorption correction using spherical harmonics,
implemented in SCALE3 ABSPACK scaling algorithm.
;
_exptl_crystal_colour            colorless
_exptl_crystal_density_diffrn    1.558
_exptl_crystal_description       plate
_exptl_crystal_F_000             536
_exptl_crystal_size_max          0.42
_exptl_crystal_size_mid          0.23
_exptl_crystal_size_min          0.06
_refine_diff_density_max         1.790
_refine_diff_density_min         -1.490
_refine_diff_density_rms         0.162
_refine_ls_extinction_coef       .
_refine_ls_extinction_method     none
_refine_ls_goodness_of_fit_ref   1.055
_refine_ls_hydrogen_treatment    constr
_refine_ls_matrix_type           full
_refine_ls_number_parameters     282
_refine_ls_number_reflns         4465
_refine_ls_number_restraints     0
_refine_ls_restrained_S_all      1.055
_refine_ls_R_factor_all          0.0503
_refine_ls_R_factor_gt           0.0487
_refine_ls_shift/su_max          0.000
_refine_ls_shift/su_mean         0.000
_refine_ls_structure_factor_coef Fsqd
_refine_ls_weighting_details
'w=1/[\s^2^(Fo^2^)+(0.0944P)^2^] where P=(Fo^2^+2Fc^2^)/3'
_refine_ls_weighting_scheme      calc
_refine_ls_wR_factor_gt          0.1236
_refine_ls_wR_factor_ref         0.1292
_reflns_Friedel_coverage         0.000
_reflns_Friedel_fraction_full    .
_reflns_Friedel_fraction_max     .
_reflns_number_gt                4272
_reflns_number_total             4465
_reflns_threshold_expression     'I > 2\s(I)'
_cod_data_source_file            4.cif
_cod_data_source_block           DSMSAB
_cod_database_code               1548558
_shelx_space_group_comment
;
The symmetry employed for this shelxl refinement is uniquely defined
by the following loop, which should always be used as a source of
symmetry information in preference to the above space-group names.
They are only intended as comments.
;
_shelx_estimated_absorpt_t_min   0.132
_shelx_estimated_absorpt_t_max   0.641
_shelxl_version_number           2013-3
_shelx_res_file
;
TITL DSMSAB in P-1; 120K; CG-1000
CELL  1.54184    9.2444   10.0116   14.4659   107.371    91.269   116.622
ZERR        2    0.0010    0.0008    0.0013     0.008     0.008     0.010
LATT   1
SFAC C  H  Cd  N  O
UNIT 42 52 2   8  10
 
LIST 4 ! automatically inserted. Change 6 to 4 for CHECKCIF!!
TEMP -153
 
L.S. 6
FMAP 2
PLAN 5
BOND $H
 
SIZE 0.42 0.23 0.06
ACTA
 
WGHT    0.094400
FVAR       5.56944
CD1   3    0.823418    0.437515    0.105663    11.00000    0.01917    0.01786 =
         0.01387    0.00569   -0.00001    0.00873
O11   5    0.821436    0.335096    0.236136    11.00000    0.02723    0.02448 =
         0.01580    0.00384   -0.00153    0.01347
O12   5    0.988841    0.591720    0.271396    11.00000    0.03599    0.02680 =
         0.01803    0.01001    0.00266    0.01358
C11   1    0.922042    0.471128    0.296374    11.00000    0.02070    0.02700 =
         0.01474    0.00491   -0.00063    0.01440
C12   1    0.961844    0.486546    0.402383    11.00000    0.01673    0.02156 =
         0.01402    0.00492    0.00117    0.00887
C13   1    0.900460    0.351763    0.429491    11.00000    0.01715    0.02272 =
         0.01742    0.00278   -0.00374    0.00670
AFIX  43
H13   2    0.832103    0.250104    0.381217    11.00000   -1.20000
AFIX   0
C14   1    1.062294    0.636220    0.473935    11.00000    0.01999    0.02525 =
         0.01901    0.00696    0.00307    0.01015
AFIX  43
H14   2    1.104765    0.729171    0.456394    11.00000   -1.20000
AFIX   0
O21   5    1.043378    0.402085    0.061868    11.00000    0.02141    0.01989 =
         0.02980    0.00543    0.00085    0.01292
O22   5    1.108751    0.331652   -0.086229    11.00000    0.03010    0.01930 =
         0.02700    0.01092    0.00466    0.01151
C21   1    1.062462    0.307007   -0.008227    11.00000    0.01916    0.01909 =
         0.02338    0.01067   -0.00099    0.00838
C22   1    1.029894    0.146882   -0.004614    11.00000    0.01632    0.01990 =
         0.02306    0.00901    0.00313    0.00993
C23   1    0.966167    0.102219    0.074044    11.00000    0.03085    0.02608 =
         0.02128    0.01088    0.00921    0.01773
AFIX  43
H23   2    0.943552    0.172079    0.124755    11.00000   -1.20000
AFIX   0
C24   1    1.064258    0.044731   -0.078180    11.00000    0.03033    0.02569 =
         0.02219    0.01248    0.00957    0.01469
AFIX  43
H24   2    1.108750    0.075630   -0.131508    11.00000   -1.20000
AFIX   0
N11   4    0.593505    0.451966    0.158307    11.00000    0.02904    0.03372 =
         0.02425    0.00954    0.00789    0.02271
N12   4    0.375986    0.404727    0.229051    11.00000    0.02325    0.04700 =
         0.02600    0.00276    0.00185    0.02073
C101  1    0.499331    0.371605    0.209937    11.00000    0.02991    0.03717 =
         0.02840    0.01313    0.00714    0.02345
AFIX  43
H101  2    0.516899    0.298187    0.231297    11.00000   -1.20000
AFIX   0
C102  1    0.525684    0.543506    0.142747    11.00000    0.04059    0.04196 =
         0.03159    0.00657   -0.00588    0.02679
AFIX  43
H102  2    0.566225    0.614557    0.107032    11.00000   -1.20000
AFIX   0
C103  1    0.391844    0.515434    0.186747    11.00000    0.03804    0.04775 =
         0.03359    0.00427   -0.00500    0.03114
AFIX  43
H103  2    0.322778    0.562997    0.188021    11.00000   -1.20000
AFIX   0
C104  1    0.258067    0.348224    0.291857    11.00000    0.02170    0.07047 =
         0.02925    0.00406    0.00271    0.02201
AFIX  23
H10A  2    0.232967    0.238389    0.285300    11.00000   -1.20000
H10B  2    0.154379    0.345502    0.269692    11.00000   -1.20000
AFIX   0
C105  1    0.324296    0.454683    0.399599    11.00000    0.03530    0.07981 =
         0.02868    0.00748    0.01065    0.03588
AFIX  23
H10C  2    0.235155    0.421541    0.437849    11.00000   -1.20000
H10D  2    0.357054    0.565761    0.404957    11.00000   -1.20000
AFIX   0
C106  1    0.471724    0.449535    0.445049    11.00000    0.03053    0.06543 =
         0.03079    0.00245    0.00625    0.03005
AFIX  23
H10E  2    0.563870    0.489306    0.409830    11.00000   -1.20000
H10F  2    0.441497    0.337889    0.436714    11.00000   -1.20000
AFIX   0
C201  1    0.700882    0.190098   -0.120172    11.00000    0.01998    0.02991 =
         0.01851    0.00364   -0.00342    0.00796
AFIX  43
H201  2    0.809117    0.237526   -0.133627    11.00000   -1.20000
AFIX   0
N21   4    0.659625    0.238318   -0.033923    11.00000    0.02203    0.02403 =
         0.01583    0.00325   -0.00369    0.00845
N22   4    0.571291    0.066561   -0.185737    11.00000    0.02872    0.02732 =
         0.01728    0.00510   -0.00068    0.01408
C202  1    0.493513    0.139013   -0.046539    11.00000    0.02418    0.03264 =
         0.02283    0.00779    0.00300    0.00958
AFIX  43
H202  2    0.428077    0.143863    0.002802    11.00000   -1.20000
AFIX   0
C203  1    0.436775    0.032620   -0.140370    11.00000    0.02379    0.02694 =
         0.02679    0.00686    0.00204    0.00410
AFIX  43
H203  2    0.326808   -0.048335   -0.168560    11.00000   -1.20000
AFIX   0
C204  1    0.569299   -0.013687   -0.288613    11.00000    0.03490    0.03233 =
         0.01805    0.00375    0.00200    0.01559
AFIX  23
H20A  2    0.483690   -0.126642   -0.309283    11.00000   -1.20000
H20B  2    0.676962   -0.010956   -0.294722    11.00000   -1.20000
AFIX   0
C205  1    0.535372    0.062342   -0.356589    11.00000    0.03487    0.03050 =
         0.01961    0.00598    0.00012    0.01344
AFIX  23
H20C  2    0.625497    0.172731   -0.339799    11.00000   -1.20000
H20D  2    0.431536    0.066680   -0.347507    11.00000   -1.20000
AFIX   0
C206  1    0.521627   -0.033024   -0.464241    11.00000    0.03400    0.03129 =
         0.02091    0.00465    0.00147    0.01245
AFIX  23
H20E  2    0.627684   -0.032423   -0.473468    11.00000   -1.20000
H20F  2    0.436163   -0.144906   -0.479246    11.00000   -1.20000
AFIX   0
O1    5    0.942288    0.088957   -0.350566    11.00000    0.05657    0.04526 =
         0.06939    0.00540    0.00346    0.02416
AFIX 147
H1    2    0.958671    0.173393   -0.306275    11.00000   -1.50000
AFIX   0
C1    1    1.091811    0.087365   -0.359196    11.00000    0.06567    0.07917 =
         0.08757    0.00556    0.00918    0.04988
AFIX 137
H1A   2    1.144620    0.141308   -0.404987    11.00000   -1.50000
H1B   2    1.071702   -0.022992   -0.384202    11.00000   -1.50000
H1C   2    1.163973    0.142662   -0.294454    11.00000   -1.50000
AFIX   0
HKLF 4
 
REM  DSMSAB in P-1; 120K; CG-1000
REM R1 =  0.0487 for    4272 Fo > 4sig(Fo)  and  0.0503 for all    4465 data
REM    282 parameters refined using      0 restraints
 
END
 
WGHT      0.0944      0.0000
 
REM Highest difference peak  1.790,  deepest hole -1.490,  1-sigma level  0.162
Q1    1   0.8025  0.4001  0.0369  11.00000  0.05    1.79
Q2    1   0.8423  0.4822  0.1760  11.00000  0.05    1.61
Q3    1   0.7776  0.3264  0.0781  11.00000  0.05    1.35
Q4    1   0.8729  0.5576  0.1490  11.00000  0.05    1.22
Q5    1   0.7819  0.5232  0.1344  11.00000  0.05    1.10
;
_shelx_res_checksum              37117
_shelx_hkl_file
;
   0   0   2 13819.0 744.058   1
   0   0   3 19294.4 1053.72   1
   0   0   4 141953. 4022.71   1
   0   0   5 160241. 4594.50   1
   0   0   6 120974. 3974.62   1
   0   0   7 157.187 138.217   1
   0   0   8 18720.7 1478.94   1
   0   0  -9 57589.8 2761.15  15
   0   0   9 63979.1 3012.62   1
   0   0  10 59445.7 3048.20   1
   0   0 -10 60938.9 2914.30  15
   0   0 -11 35975.9 2242.13  15
   0   0  11 31569.4 2257.22   1
   0   0 -12 2589.40 608.404  15
   0   0  12 1690.28 560.746  14
   0   0 -13 14339.4 1389.33  15
   0   0 -14 20693.2 1599.89  15
   0   0 -15 23605.4 1566.37  15
   0   0 -16 9814.61 835.159  15
   0   1 -17 9647.81 735.307  15
   0   1 -16 122.373 62.1432  15
   0   1 -15 19094.6 1469.22  15
   0   1 -14 75754.2 3400.84  15
   0   1 -13 20983.3 1727.39  15
   0   1 -13 17261.9 1295.82  12
   0   1 -12 273.079 73.8971  12
   0   1 -12 261.791 187.841  15
   0   1 -11 698.310 317.596  15
   0   1 -11 606.420 288.250  12
   0  -1  11 344.328 159.860   1
   0  -1  10 58792.2 2981.52   1
   0   1 -10 53816.2 2646.10  15
   0  -1   9 147293. 5140.05   1
   0  -1   8 83894.6 3463.61   1
   0  -1   7 116935. 4061.13   1
   0  -1   6 134124. 4220.70   1
   0  -1   5 132872. 3999.99   1
   0   1  -5 138937. 3062.30  17
   0   1  -4 12656.5 569.055  17
   0  -1   4 11951.8 832.391   1
   0   1  -3 108867. 2515.02  17
   0  -1   3 102831. 2761.99   1
   0   1  -2 12726.7 564.742  17
   0  -1   2 13430.4 545.748   1
   0  -1   1 25092.1 633.866   1
   0   1  -1 26402.3 665.677  14
   0   1   0 327618. 7276.60  17
   0   1   0 200763. 7070.15  16
   0   1   1 182186. 3864.94   1
   0   1   1 176735. 3833.30  17
   0   1   2 2274.15 301.832   1
   0   1   3 178271. 4647.30   1
   0   1   4 100055. 3260.67   1
   0   1   5 26130.4 1520.78   1
   0   1   6 286848. 7411.66   1
   0   1   7 10285.5 1038.59   1
   0   1   8 610.146 260.044   1
   0  -1  -9 10364.9 1131.14  15
   0   1   9 9778.39 1117.41   1
   0   1  10 102125. 4527.43  14
   0  -1 -10 108963. 4141.36  15
   0   1  11 6556.33 1080.76  14
   0  -1 -11 6950.57 942.623  15
   0  -1 -12 262.844 292.635  15
   0  -1 -13 9317.00 1076.55  15
   0  -1 -14 23559.3 1595.33  15
   0  -1 -15 39220.6 1888.09  15
   0  -1 -16 23052.2 1144.36  15
   0   2 -17 32924.7 1530.23  15
   0   2 -16 16896.8 1256.03  15
   0   2 -15 390.531 162.510  15
   0   2 -15 468.174 204.977  12
   0   2 -14 23878.8 1572.81  12
   0   2 -14 24737.4 1808.13  15
   0   2 -13 17562.1 1411.50  12
   0   2 -13 18761.3 1607.37  15
   0   2 -12 39274.4 2229.40  12
   0  -2  12 38961.7 2638.50   1
   0   2 -12 41726.4 2447.08  15
   0  -2  11 830.502 396.165   1
   0   2 -11 566.229 305.189  12
   0   2 -11 709.315 297.229  15
   0  -2  10 1220.32 435.298   1
   0   2 -10 1027.80 313.394  12
   0   2 -10 778.479 294.192  15
   0  -2   9 23093.4 1811.61   1
   0  -2   8 62721.9 2973.01   1
   0  -2   7 67192.5 2886.97   1
   0   2  -6 33724.1 1337.85  17
   0  -2   6 31752.4 1742.67   1
   0   2  -5 62264.0 1948.55  17
   0  -2   5 53801.4 2172.80   1
   0   2  -4 340110. 7353.41  17
   0  -2   4 328893. 7374.95   1
   0   2  -3 345839. 7819.21  17
   0  -2   3 374383. 7528.28   1
   0  -2   2 133170. 2778.02   1
   0   2  -2 114133. 3168.37  17
   0   2  -1 349665. 6691.29  14
   0   2  -1 347714. 6700.69  16
   0   2   0 641533. 12103.3  14
   0   2   0 567863. 12403.3  17
   0   2   1 393330. 8551.65  17
   0   2   1 421052. 8505.85  14
   0   2   2 20371.7 1079.71  14
   0   2   3 2169.91 397.908  14
   0   2   3 2671.90 396.380   1
   0   2   4 97193.1 3237.09   1
   0   2   4 101326. 3650.68  14
   0   2   5 88937.7 3623.92  14
   0   2   5 90272.3 3261.97   1
   0   2   6 19803.2 1648.06  14
   0   2   7 33889.8 2274.50  14
   0   2   8 16729.3 1631.75  14
   0  -2  -8 14786.2 1292.68  15
   0  -2  -9 1040.41 327.339  15
   0   2   9 1092.26 459.967  14
   0   2  10 84319.7 4145.56  14
   0  -2 -10 101608. 3915.40  15
   0  -2 -11 51511.7 2673.33  15
   0  -2 -12 13520.4 1278.27  15
   0  -2 -13 635.809 251.599  15
   0  -2 -14 4813.40 615.363  15
   0  -2 -15 20277.2 1085.15  15
   0   2  15 19978.7 1117.80   6
   0   3 -17 37220.6 1632.34  15
   0   3 -16 29116.0 1675.57  15
   0   3 -16 31626.1 1563.35  12
   0   3 -15 3606.93 624.043  15
   0   3 -15 3198.39 544.480  12
   0   3 -14 53151.3 2709.15  15
   0   3 -14 52089.0 2576.98  12
   0   3 -13 75562.1 3325.83  15
   0   3 -13 75417.1 3301.08  12
   0   3 -12 28491.2 1979.80  15
   0  -3  12 32549.6 2399.17   1
   0   3 -12 32442.0 2089.65  12
   0   3 -11 63728.5 3059.95  12
   0  -3  11 68596.3 3524.86   1
   0   3 -10 2624.73 521.483  15
   0  -3  10 4383.38 800.956   1
   0   3 -10 3794.28 712.856  12
   0  -3   9 48470.1 2736.60   1
   0  -3   8 110781. 4197.37   1
   0  -3   7 178870. 5632.72   1
   0   3  -7 197160. 5069.26  17
   0  -3   6 89133.5 3276.33   1
   0   3  -6 101740. 3216.15  17
   0  -3   5 42647.1 1847.93   1
   0   3  -5 48845.8 2073.32  17
   0  -3   4 227621. 5359.27   1
   0   3  -4 238075. 5946.27  17
   0  -3   3 222656. 4801.75   1
   0   3  -3 217674. 5627.97  17
   0  -3   2 140402. 3096.50   1
   0   3  -2 147058. 3274.34  16
   0   3  -2 146894. 3268.52  14
   0   3  -1 1230.90 186.965  16
   0   3  -1 1199.54 179.842  14
   0   3  -1 820.939 213.643  17
   0   3   0 1155.87 195.646  14
   0   3   0 1386.52 265.303  17
   0   3   1 138225. 3838.36  17
   0   3   1 141423. 3613.41  14
   0   3   2 304486. 7206.15  14
   0   3   3 162005. 4869.71  14
   0   3   4 13394.4 1279.92  14
   0   3   5 7202.67 1028.54  14
   0   3   6 35320.4 2452.02  14
   0   3   7 32283.1 2397.73  14
   0   3   7 26274.6 1859.42   3
   0  -3  -8 9875.28 1093.14  15
   0   3   8 11665.5 1428.74  14
   0   3   9 3840.10 831.737  14
   0  -3  -9 4469.18 737.841  15
   0   3  10 53065.7 2774.21   7
   0  -3 -10 52470.0 2661.41  15
   0   3  11 34288.4 2068.35   7
   0  -3 -11 36813.2 2094.44  15
   0  -3 -12 12295.2 1081.81  15
   0  -3 -13 866.280 230.656  15
   0   3  14 2103.44 367.117   6
   0   4 -17 18503.1 1027.46  12
   0   4 -16 21124.7 1307.63  12
   0   4 -16 18900.6 1284.97   9
   0   4 -15 2341.07 455.121  15
   0   4 -15 3375.80 592.380  12
   0   4 -14 14648.3 1282.22  15
   0   4 -14 16121.7 1418.29  12
   0   4 -13 29730.6 1920.70  15
   0   4 -13 36624.5 2283.84  12
   0  -4  12 75095.4 3791.57   1
   0   4 -12 68639.2 3146.51  15
   0   4 -11 48467.8 2746.13  12
   0  -4  11 47995.7 2894.33   1
   0  -4  10 252.304 231.505   1
   0   4 -10 153.436 207.095  12
   0  -4   9 8562.10 1093.16   1
   0   4  -9 6544.57 948.351  12
   0  -4   8 126916. 4632.05   1
   0  -4   7 230896. 6782.91   1
   0   4  -7 258033. 6854.34  17
   0  -4   6 69950.7 2911.22   1
   0   4  -6 84834.5 3285.41  17
   0  -4   5 44175.5 1939.41   1
   0   4  -5 52057.4 2463.50  17
   0   4  -4 118423. 3966.40  17
   0  -4   4 101855. 2938.04   1
   0   4  -3 383683. 8651.59  17
   0   4  -3 354447. 7184.68  16
   0   4  -2 151036. 4375.93  17
   0   4  -2 155548. 3474.14  16
   0   4  -1 146792. 3591.04  14
   0   4  -1 139708. 4316.31  17
   0   4   0 17933.1 1224.71  17
   0   4   0 18139.6 973.679  14
   0   4   1 63939.5 2267.91  14
   0   4   2 115488. 3680.38  14
   0   4   3 158273. 5069.59  14
   0   4   4 5121.44 873.539  14
   0   4   5 10998.5 1232.09   8
   0   4   5 10247.5 1359.86  14
   0   4   5 10371.8 1217.14   3
   0   4   5 10835.1 1339.27   7
   0   4   6 4637.04 954.700  14
   0   4   6 5103.79 920.026   7
   0   4   6 3650.11 742.862   8
   0   4   7 13009.1 1631.55  14
   0   4   7 16134.1 1634.25   7
   0   4   8 51359.0 2884.85   7
   0   4   8 34302.0 2665.69  14
   0   4   9 20958.2 1737.90   7
   0   4  10 3732.38 636.266   7
   0   4  11 15329.3 1203.72   7
   0   4  12 24931.0 1638.21   6
   0   4  13 16844.9 1114.14   6
   0   5 -17 43414.6 1701.70  12
   0   5 -17 35433.4 1549.14   9
   0   5 -16 45096.4 2120.07   9
   0   5 -16 44561.7 2053.29  12
   0   5 -15 24065.3 1720.22   9
   0   5 -15 25193.0 1676.22  12
   0   5 -14 1814.32 490.261  12
   0   5 -13 12489.6 1347.87  12
   0   5 -12 7259.76 1020.22  12
   0   5 -11 56622.5 2924.60  13
   0   5 -11 74118.9 3513.52  12
   0   5 -10 5196.58 879.767  13
   0   5 -10 7060.60 1036.52  12
   0   5  -9 92.0698 250.552  13
   0   5  -9 448.668 229.677  12
   0   5  -8 17561.2 1670.63  13
   0   5  -8 17840.1 1632.91  12
   0   5  -6 263457. 7911.97  17
   0   5  -5 68867.1 3384.83  17
   0   5  -4 22132.1 1066.03  16
   0   5  -4 26862.3 1950.37  17
   0   5  -3 66258.2 3120.45  17
   0   5  -2 75343.9 3227.98  17
   0   5  -2 68613.5 2165.34  14
   0   5  -1 43817.5 1675.61  14
   0   5   0 13039.9 903.224  14
   0   5   1 261.858 153.232  14
   0   5   2 50857.6 2422.80  14
   0   5   2 44351.7 2682.81   7
   0   5   3 133995. 5187.55   5
   0   5   3 148479. 5525.42   8
   0   5   3 152962. 5229.45  14
   0   5   3 148216. 5720.37   7
   0   5   4 25405.3 2051.85   8
   0   5   4 22044.0 1968.18  14
   0   5   4 26165.8 2247.29   7
   0   5   5 25486.9 2022.22   8
   0   5   5 23988.6 2179.67   7
   0   5   6 14271.2 1630.12   7
   0   5   6 15308.6 1552.92   8
   0   5   7 49673.1 3010.77   7
   0   5   8 47076.0 2739.83   7
   0   5   9 16238.7 1389.31   7
   0   5  10 36.6032 109.846   7
   0   5  10 181.229 128.216   6
   0   5  11 29429.0 1669.24   6
   0   5  11 19985.4 1150.60   7
   0   5  12 30029.1 1456.97   6
   0   6 -17 9582.46 717.666   9
   0   6 -17 11154.1 768.117  12
   0   6 -17 10469.2 828.331  11
   0   6 -16 29338.9 1565.24  12
   0   6 -16 29796.8 1651.02   9
   0   6 -15 31474.6 1814.54  12
   0   6 -15 31169.2 1962.16   9
   0   6 -14 16429.2 1571.69   9
   0   6 -14 15549.3 1359.43  12
   0   6 -13 1235.31 397.491  12
   0   6 -13 957.777 389.705   9
   0   6 -12 12085.0 1256.88  13
   0   6 -12 13573.1 1628.06   9
   0   6 -12 13592.1 1390.85  12
   0   6 -11 61763.4 3191.20  13
   0   6 -11 64264.5 3307.89  12
   0   6 -10 7322.25 1092.39  13
   0   6 -10 7808.06 1325.73   9
   0   6 -10 8373.51 1170.18  12
   0   6  -9 2095.48 603.566  12
   0   6  -9 2401.98 499.694  10
   0   6  -9 2243.42 599.904  13
   0   6  -9 2377.25 677.316   9
   0   6  -8 4142.96 868.622  13
   0   6  -8 3585.93 618.577  10
   0   6  -8 3743.87 847.380   9
   0   6  -8 3923.40 772.339  12
   0   6  -7 106269. 4787.66  13
   0   6  -7 91933.4 3494.24  10
   0   6  -7 107585. 4167.10   9
   0   6  -6 87727.3 3689.92   9
   0   6  -6 95393.6 4749.25  13
   0   6  -6 88388.5 3603.62  10
   0   6  -6 76669.9 3939.16   5
   0   6  -6 84126.5 3207.43   7
   0   6  -5 68404.4 3049.17   9
   0   6  -5 70047.0 3651.48   5
   0   6  -5 77518.7 4414.39  13
   0   6  -5 77533.4 3388.19  10
   0   6  -5 72222.3 2906.62   7
   0   6  -4 11774.7 1351.95   5
   0   6  -4 13665.7 1376.21  10
   0   6  -4 11307.3 1662.22  13
   0   6  -3 36625.7 2433.80   5
   0   6  -3 38233.5 2496.61  10
   0   6  -3 36818.9 2026.00   7
   0   6  -2 52857.6 2549.91   7
   0   6  -2 53786.3 2918.85   5
   0   6  -2 48398.5 3337.14   8
   0   6  -2 52421.4 3103.68  10
   0   6  -1 107718. 4381.22   5
   0   6  -1 98802.7 4758.48  10
   0   6  -1 108284. 4044.23   7
   0   6  -1 103010. 5082.54   8
   0   6   0 33739.8 2205.02   7
   0   6   0 34403.0 2695.00   8
   0   6   0 32693.9 2266.63   5
   0   6   0 30626.3 2551.33  10
   0   6   1-63.6431 185.777   5
   0   6   1 358.328 165.599   7
   0   6   1 96.5269 284.064   8
   0   6   1 427.486 395.464  10
   0   6   2 27084.7 2146.09   5
   0   6   2 26686.7 2239.04   8
   0   6   2 28077.2 2287.23   7
   0   6   2 20143.2 1846.36   6
   0   6   2 24742.0 2212.37  10
   0   6   3 51882.4 3301.67   6
   0   6   3 47374.5 2966.45  10
   0   6   3 65055.9 3500.43   8
   0   6   3 58751.0 3313.53   5
   0   6   3 58376.7 3574.20   7
   0   6   4 65891.0 3927.45   7
   0   6   4 61062.2 3766.75   6
   0   6   4 71338.3 3687.89   8
   0   6   5 7568.94 1246.60   7
   0   6   5 8065.68 1305.90   6
   0   6   5 7573.38 1081.76   8
   0   6   6 3273.32 800.565   6
   0   6   6 3828.40 836.314   7
   0   6   7 7699.50 1054.59   7
   0   6   7 7366.71 1072.71   6
   0   6   8 25772.9 1753.24   7
   0   6   8 27155.6 1965.40   6
   0   6   9 16804.4 1342.64   6
   0   6   9 16062.0 1169.91   7
   0   6  10 933.227 213.533   7
   0   6  10 1098.57 287.336   6
   0   7 -17 7613.99 554.275  12
   0   7 -16 27449.2 1356.82  12
   0   7 -16 27709.3 1471.55   9
   0   7 -15 35231.4 2006.93   9
   0   7 -15 33691.2 1747.10  12
   0   7 -14 26692.5 1982.06   9
   0   7 -14 24727.0 1619.53  12
   0   7 -13 859.656 259.127  13
   0   7 -13 1230.89 459.152  12
   0   7 -13 387.906 343.528   9
   0   7 -12 6774.79 933.546  13
   0   7 -12 6794.52 950.849  12
   0   7 -12 5845.83 1053.43   9
   0   7 -11 50459.9 2925.67  13
   0   7 -11 42968.7 3219.33   9
   0   7 -11 51380.5 2870.24  12
   0   7 -10 42981.3 2262.69  10
   0   7 -10 50822.0 3088.23  13
   0   7 -10 50809.6 2939.90  12
   0   7 -10 49342.7 3344.12   9
   0   7  -9 49351.2 3234.61   9
   0   7  -9 50032.1 3233.01  13
   0   7  -9 45379.1 2433.15  10
   0   7  -9 44455.0 2836.97  12
   0   7  -8 20770.5 2003.19   5
   0   7  -8 24987.4 1819.76  10
   0   7  -8 28001.4 2239.08   9
   0   7  -8 24378.4 2332.23  13
   0   7  -7 445.813 256.609   9
   0   7  -7 648.562 270.548  10
   0   7  -7 1214.93 666.691  13
   0   7  -7 404.914 393.512   5
   0   7  -6 73954.2 3394.10   9
   0   7  -6 68781.1 4048.53   5
   0   7  -6 71729.6 4535.54  13
   0   7  -6 73781.5 3530.78  10
   0   7  -6 76332.0 3181.66   7
   0   7  -5 59125.0 3610.09   5
   0   7  -5 58578.2 3177.81  10
   0   7  -5 56028.7 2738.43   9
   0   7  -5 54701.4 4107.49  13
   0   7  -5 60540.1 2764.79   7
   0   7  -4 19101.3 2022.35   8
   0   7  -4 22924.0 2018.08  10
   0   7  -4 21880.9 1605.95   7
   0   7  -4 21329.8 2543.80  13
   0   7  -4 18006.7 1410.26   4
   0   7  -4 21655.6 2074.97   5
   0   7  -3 1451.89 526.580  10
   0   7  -3 1482.80 693.665  13
   0   7  -3 1548.71 551.898   5
   0   7  -3 1136.52 346.760   4
   0   7  -3 1455.82 511.825   8
   0   7  -3 1401.90 414.601   7
   0   7  -2 1137.24 568.274  13
   0   7  -2 2072.87 517.962   7
   0   7  -2 1599.63 643.200  10
   0   7  -2 1715.93 628.789   8
   0   7  -2 1789.40 588.475   5
   0   7  -1 106690. 4363.55   7
   0   7  -1 94620.4 5008.40  10
   0   7  -1 104861. 5361.97   8
   0   7  -1 99641.4 4570.56   5
   0   7   0 28709.7 2631.95  10
   0   7   0 29273.7 2586.14   8
   0   7   0 28315.1 2269.19   5
   0   7   0 31996.0 2372.16   7
   0   7   1 27020.4 2265.05   5
   0   7   1 24706.6 2312.01   8
   0   7   1 26920.9 2305.74   7
   0   7   1 24945.4 2320.43  10
   0   7   2 13787.5 1572.60  10
   0   7   2 14284.3 1609.26   5
   0   7   2 13675.5 1613.28   8
   0   7   2 11244.0 1406.82   6
   0   7   2 13530.2 1689.72   7
   0   7   3 5178.95 992.994   8
   0   7   3 4220.75 887.869   6
   0   7   3 6282.50 1145.21   7
   0   7   4 16039.0 1808.07   7
   0   7   4 14640.7 1728.89   6
   0   7   5 45330.7 2858.79   7
   0   7   5 39082.6 2734.51   6
   0   7   6 924.937 369.579   7
   0   7   6 778.956 358.185   6
   0   7   7 8149.92 960.196   6
   0   7   7 7780.85 877.427   7
   0   7   8 12917.8 951.522   7
   0   7   8 12777.9 1026.98   6
   0   8 -16 289.623 115.471   4
   0   8 -16 327.032 110.629  12
   0   8 -15 21473.6 1357.89   9
   0   8 -15 17129.9 1038.81  12
   0   8 -14 19917.6 1267.11  12
   0   8 -14 18113.6 1133.77  13
   0   8 -13 14862.9 1203.50  13
   0   8 -13 14960.8 1193.78  12
   0   8 -13 15537.2 1559.90   9
   0   8 -12 516.634 215.394  12
   0   8 -12 94.8673 208.341   9
   0   8 -12 439.194 236.732  13
   0   8 -11 16521.0 1831.10   9
   0   8 -11 19350.7 1723.42  13
   0   8 -11 16040.9 1448.01  12
   0   8 -10 41690.2 2761.61  13
   0   8 -10 38150.9 2099.89  10
   0   8 -10 40750.6 2837.95   9
   0   8  -9 51420.4 3333.68  13
   0   8  -9 50908.4 3095.07   9
   0   8  -9 49084.8 2560.25  10
   0   8  -8 58975.8 3860.81  13
   0   8  -8 59534.9 3181.72   9
   0   8  -8 58794.5 2936.06  10
   0   8  -8 57748.7 3622.59   5
   0   8  -7 3805.55 718.207  10
   0   8  -7 3716.15 988.942   5
   0   8  -7 3996.94 997.685  13
   0   8  -6 26015.8 1821.03   4
   0   8  -6 28236.3 2687.53   5
   0   8  -6 25573.2 2757.93  13
   0   8  -6 28235.1 2163.72  10
   0   8  -5 50097.9 3559.47   5
   0   8  -5 49042.3 2986.49  10
   0   8  -5 48653.0 2547.23   7
   0   8  -5 40605.3 2259.08   4
   0   8  -5 41948.9 2825.58   8
   0   8  -5 44203.1 3783.22  13
   0   8  -4 80910.1 4157.27  10
   0   8  -4 79026.2 4891.07  13
   0   8  -4 83712.1 3539.59   7
   0   8  -4 67311.8 2927.54   4
   0   8  -4 77217.6 4337.07   8
   0   8  -4 80979.8 4481.93   5
   0   8  -3 22684.9 2354.80   8
   0   8  -3 22423.2 2223.06  10
   0   8  -3 22199.7 2196.51   5
   0   8  -3 21660.7 2264.86  13
   0   8  -3 22891.2 1800.01   7
   0   8  -2 382.428 395.167   5
   0   8  -2 228.789 187.811   8
   0   8  -2-127.099 421.109  10
   0   8  -2 238.604 214.590   7
   0   8  -1 51936.7 3287.92   5
   0   8  -1 54444.0 3717.50   8
   0   8  -1 52074.8 3601.97  10
   0   8  -1 57575.5 3281.62   7
   0   8   0 56958.9 3626.17  10
   0   8   0 61586.4 3550.65   7
   0   8   0 54846.5 3371.94   5
   0   8   0 61816.5 3789.53   8
   0   8   1 28229.0 2289.45  10
   0   8   1 29579.1 2437.95   8
   0   8   1 27981.5 2436.43   7
   0   8   2 1780.50 637.156   7
   0   8   2 1285.66 366.955  10
   0   8   3 6831.02 1089.13   7
   0   8   4 43955.5 2655.67   7
   0   8   5 37450.6 2139.05   7
   0   8   6 5975.48 676.589   7
   0   8   7 516.828 161.716   7
   0   9 -15 13868.2 851.386   4
   0   9 -14 16770.6 936.586  13
   0   9 -14 19118.9 1264.27   4
   0   9 -13 18023.8 1172.30  13
   0   9 -13 14317.3 1257.00   4
   0   9 -12 359.852 206.088   4
   0   9 -12 355.280 229.871  13
   0   9 -11 2494.76 583.896  13
   0   9 -11 1403.12 467.322   4
   0   9 -11 1776.28 395.076  10
   0   9 -10 16397.6 1594.50  13
   0   9 -10 13181.2 1376.75   4
   0   9 -10 15098.7 1195.62  10
   0   9  -9 35747.6 2631.16  13
   0   9  -9 30867.8 1877.17  10
   0   9  -9 30191.7 2038.22   4
   0   9  -8 32994.3 2737.63  13
   0   9  -8 33710.8 2719.64   5
   0   9  -8 29882.0 1953.71   4
   0   9  -8 31225.4 2016.67  10
   0   9  -7 4602.28 797.518  10
   0   9  -7 3840.81 977.953   5
   0   9  -7 3985.60 1023.56  13
   0   9  -7 3875.13 632.525   4
   0   9  -6 18201.8 1713.30  10
   0   9  -6 15357.7 1215.79   4
   0   9  -6 18994.1 2249.41  13
   0   9  -6 18734.3 2226.87   5
   0   9  -5 51306.4 3677.61  13
   0   9  -5 53881.6 2708.03   7
   0   9  -5 50534.1 3110.62  10
   0   9  -5 53932.4 3767.67   5
   0   9  -4 51918.2 3357.65  10
   0   9  -4 60052.5 2931.31   7
   0   9  -4 53091.4 3626.29   5
   0   9  -4 49674.0 3289.78  13
   0   9  -3 26568.2 2031.04  13
   0   9  -3 32814.2 2643.59  10
   0   9  -3 32288.9 2657.64   5
   0   9  -2 10617.2 1489.08  10
   0   9  -2 12578.7 1386.83   7
   0   9  -2 9110.08 1331.63   5
   0   9  -1 20740.5 1955.28  10
   0   9  -1 22857.3 1974.15   7
   0   9   0 37911.7 2425.68  10
   0   9   0 34279.8 2497.20   7
   0   9   1 17745.1 1407.49  10
   0   9   1 18128.0 1748.39   7
   0   9   2 29217.3 2097.15   7
   0   9   3 491.879 224.247   7
   0   9   4 7082.37 729.838   7
   0  10 -12 14315.4 974.623  13
   0  10 -12 6987.33 715.422   4
   0  10 -11 619.801 192.465   4
   0  10 -11 841.608 237.131  13
   0  10 -10 3358.77 474.905  10
   0  10 -10 2884.93 464.813   4
   0  10  -9 19776.9 1722.82  13
   0  10  -9 17790.8 1247.97  10
   0  10  -8 40241.3 2701.46  13
   0  10  -8 43716.5 2217.22  10
   0  10  -7 13210.4 1539.31  13
   0  10  -7 14084.4 1277.41  10
   0  10  -6 2406.35 683.165  13
   0  10  -6 1569.97 490.469  10
   0  10  -5 4291.61 804.764  10
   0  10  -5 4582.60 753.744  13
   0  10  -4 16772.6 1660.91  10
   0  10  -3 29094.9 2183.61  10
   0  10  -2 2458.34 586.251  10
   0  10  -2 2792.42 602.545   7
   0  10  -1 267.678 204.651  10
   0  10  -1 161.933 195.053   7
   0  10   0 17782.3 1431.67   7
   0  10   1 24542.5 1517.97   7
   0  11  -8 16008.8 1101.56  10
   0  11  -7 28469.7 1651.55  10
   0  11  -6 11942.4 1101.33  10
   0  11  -5 1048.96 314.034  10
   0  11  -4 12881.6 1095.70  10
  -1  11  -2 1451.09 351.753  10
  -1  11  -3 4806.74 730.667  10
  -1  11  -4 14953.5 1427.00  10
  -1  11  -5 22207.6 1750.90  10
  -1  11  -6 6126.81 857.638  10
  -1  11  -7 337.093 195.045  10
  -1  11  -7 13.4885 141.632  13
  -1  11  -8 13535.6 1130.08  10
  -1  11  -8 12222.2 1208.35  13
  -1  11  -9 20701.3 1544.22  13
  -1  11 -10 7682.34 823.282  13
  -1  10   3 9906.39 842.456   7
  -1  10   2 757.088 292.347   7
  -1  10   1 1161.00 412.554   7
  -1  10   0 7057.60 817.683  10
  -1  10   0 6287.23 927.102   7
  -1  10  -1 34779.6 2285.01   7
  -1  10  -1 40571.4 2444.59  10
  -1  10  -2 11841.0 1394.42  10
  -1  10  -2 10433.3 1182.02   7
  -1  10  -3 852.843 351.917   7
  -1  10  -3 504.748 305.526  10
  -1  10  -3 302.979 175.173   5
  -1  10  -4 5229.95 797.847  13
  -1  10  -4 7770.81 1283.52   5
  -1  10  -4 7219.91 1163.98  10
  -1  10  -4 7413.60 893.811   7
  -1  10  -5 33166.0 2826.51   5
  -1  10  -5 25300.9 1436.94   4
  -1  10  -5 31882.9 2397.80  13
  -1  10  -5 32531.2 2397.38  10
  -1  10  -6 52511.5 3368.83  13
  -1  10  -6 55992.6 3057.37  10
  -1  10  -6 50555.0 3680.16   5
  -1  10  -6 44076.4 2097.05   4
  -1  10  -7 10431.1 1573.00   5
  -1  10  -7 9800.85 1458.50  13
  -1  10  -7 9460.81 931.771   4
  -1  10  -7 10261.7 1169.48  10
  -1  10  -8 5444.82 984.106  13
  -1  10  -8 5081.04 726.172   4
  -1  10  -8 4611.10 930.006   5
  -1  10  -8 4438.31 723.750  10
  -1  10  -9 25647.8 1666.75  10
  -1  10  -9 24116.4 1684.74   4
  -1  10  -9 27623.7 2179.09  13
  -1  10  -9 21317.0 1869.39   5
  -1  10 -10 29867.9 1952.79   4
  -1  10 -10 36104.9 2267.65  13
  -1  10 -10 33027.1 1781.28  10
  -1  10 -11 13100.5 1182.31  13
  -1  10 -11 8522.01 993.814   4
  -1  10 -12 2907.34 534.413   4
  -1  10 -12 4606.12 598.445  13
  -1  10 -13 3165.76 484.101   4
  -1   9   6 231.530 103.716   7
  -1   9   5 9916.50 917.666   7
  -1   9   4 39366.5 2267.09   7
  -1   9   3 28417.3 2136.07   7
  -1   9   2 12765.8 1526.33   7
  -1   9   1 218.441 141.226  10
  -1   9   1 362.140 184.673   7
  -1   9   0 20027.3 1867.49  10
  -1   9   0 20545.1 2069.86   8
  -1   9   0 19441.8 1816.56   5
  -1   9   0 21391.8 1998.07   7
  -1   9  -1 73477.2 3727.64   7
  -1   9  -1 72482.7 4054.64  10
  -1   9  -1 68629.0 3693.02   5
  -1   9  -1 76787.3 4391.34   8
  -1   9  -2 19367.4 2253.75   8
  -1   9  -2 21112.3 1777.86   7
  -1   9  -2 21154.3 2165.83  10
  -1   9  -2 20049.5 1982.32   5
  -1   9  -3 546.248 209.170   7
  -1   9  -3 352.360 193.301   4
  -1   9  -3 643.346 386.152  13
  -1   9  -3 630.231 291.910   5
  -1   9  -3 1276.91 733.848  10
  -1   9  -3 269.635 249.756   8
  -1   9  -4 12840.8 1674.86   5
  -1   9  -4 14745.4 1689.39  10
  -1   9  -4 14097.7 1781.80  13
  -1   9  -4 13139.4 1266.86   7
  -1   9  -4 12727.7 1734.65   8
  -1   9  -4 12274.1 1109.00   4
  -1   9  -5 45733.6 3391.18   5
  -1   9  -5 45045.1 2366.30   4
  -1   9  -5 50140.8 3666.85  13
  -1   9  -5 51640.8 3182.73  10
  -1   9  -5 43754.4 2980.46   8
  -1   9  -5 45946.4 2399.84   7
  -1   9  -6 45948.2 3659.89  13
  -1   9  -6 43475.5 2415.61   4
  -1   9  -6 45282.1 3483.14   5
  -1   9  -6 47175.5 2913.07  10
  -1   9  -7 63464.1 3260.25  10
  -1   9  -7 63485.0 4125.67   5
  -1   9  -7 62206.9 4147.55  13
  -1   9  -7 62454.5 3084.15   4
  -1   9  -8-391.594 402.815   5
  -1   9  -8 241.932 253.555  10
  -1   9  -8 141.833 218.711  13
  -1   9  -8 527.359 308.183   4
  -1   9  -9 31922.6 2319.46   4
  -1   9  -9 30812.0 2393.71   5
  -1   9  -9 37187.8 2732.61  13
  -1   9  -9 31969.2 2035.60  10
  -1   9 -10 57903.9 3339.45   4
  -1   9 -10 64135.5 2878.47  10
  -1   9 -11 35600.3 2297.63  13
  -1   9 -12 16395.7 1362.57  13
  -1   9 -13 316.860 212.493   4
  -1   9 -13 742.079 258.763  13
  -1   9 -14 8479.42 880.881   4
  -1   9 -15 25409.2 1281.69   4
  -1   8   8 13465.1 831.667   7
  -1   8   7 17173.2 1192.93   7
  -1   8   6 5577.37 790.665   7
  -1   8   5 20927.3 1825.87   7
  -1   8   4 22676.9 2098.96   7
  -1   8   4 21609.0 1807.24   8
  -1   8   3 12839.9 1693.02   7
  -1   8   3 11377.8 1382.44   8
  -1   8   2 28631.9 2233.35   5
  -1   8   2 24728.4 2178.09   8
  -1   8   2 24217.4 2338.90   7
  -1   8   2 22481.7 1809.03  10
  -1   8   1 3204.40 772.353   5
  -1   8   1 2558.62 634.463  10
  -1   8   1 3416.38 847.916   7
  -1   8   1 2965.07 766.927   8
  -1   8   0 950.950 464.845   7
  -1   8   0 458.377 321.771   5
  -1   8   0 139.833 221.825  10
  -1   8   0 477.565 269.089   8
  -1   8  -1 98020.3 4283.33   7
  -1   8  -1 88084.7 4219.88   5
  -1   8  -1 92147.6 4803.37  10
  -1   8  -1 88702.6 5016.51   8
  -1   8  -2 62627.6 3084.29   7
  -1   8  -2 55264.5 3946.53   8
  -1   8  -2 55412.0 3262.15   5
  -1   8  -2 49700.9 2387.40   4
  -1   8  -2 54783.7 3584.90  10
  -1   8  -3 17062.6 2002.37  13
  -1   8  -3 20758.0 1640.62   7
  -1   8  -3 19947.1 1960.24   5
  -1   8  -3 21071.3 2089.43  10
  -1   8  -3 20748.7 2357.09   8
  -1   8  -3 19994.5 1473.19   4
  -1   8  -4 797.485 371.313  10
  -1   8  -4 757.838 292.217   4
  -1   8  -4 614.632 324.537   7
  -1   8  -4 706.836 377.178   8
  -1   8  -4 1225.78 507.203  13
  -1   8  -4 641.773 198.318   5
  -1   8  -5 6575.87 1113.94   8
  -1   8  -5 8759.07 1548.29  13
  -1   8  -5 7806.54 915.665   7
  -1   8  -5 8039.92 988.141   4
  -1   8  -5 8311.52 1184.73  10
  -1   8  -5 8544.32 1361.23   5
  -1   8  -6 88778.0 3787.82   4
  -1   8  -6 82465.9 3329.35   7
  -1   8  -6 89659.7 4067.49  10
  -1   8  -6 92600.7 5246.99  13
  -1   8  -6 81899.6 4546.55   5
  -1   8  -7 63006.6 3229.45  10
  -1   8  -7 60621.2 3846.18   5
  -1   8  -7 66480.8 3379.13   9
  -1   8  -7 65256.8 4173.53  13
  -1   8  -8 7402.06 1002.14  10
  -1   8  -8 8712.74 1229.94   9
  -1   8  -8 8327.02 1318.63   5
  -1   8  -8 7692.57 1376.66  13
  -1   8  -9 1954.09 649.266  13
  -1   8  -9 1335.82 460.398   9
  -1   8  -9 1701.42 499.240   5
  -1   8  -9 1594.90 433.986  10
  -1   8 -10 32981.9 2264.78  12
  -1   8 -10 37664.5 2881.29   9
  -1   8 -10 36781.4 2152.18  10
  -1   8 -10 42793.5 2804.75  13
  -1   8 -11 63372.1 3150.39  12
  -1   8 -11 61198.3 3758.78   9
  -1   8 -11 71089.6 3458.16  13
  -1   8 -12 26536.2 2261.59   9
  -1   8 -12 31817.9 2058.90  13
  -1   8 -12 29991.5 1919.45  12
  -1   8 -13 5716.38 754.305  13
  -1   8 -13 5354.10 903.201   9
  -1   8 -13 3204.44 682.537  11
  -1   8 -13 4722.38 680.878  12
  -1   8 -14 348.590 160.438  13
  -1   8 -14 120.443 111.310  12
  -1   8 -14 400.031 273.121   9
  -1   8 -14 399.199 206.417  11
  -1   8 -15 12557.5 1049.43   9
  -1   8 -15 11674.2 892.156  12
  -1   8 -16 24009.5 1128.84  12
  -1   8 -16 19689.2 1072.71   4
  -1   7   9 447.991 184.470   6
  -1   7   9 549.051 199.870   7
  -1   7   8 18982.5 1399.09   7
  -1   7   8 17390.7 1375.13   6
  -1   7   7 38642.8 2353.97   7
  -1   7   7 34470.0 2250.95   6
  -1   7   6 40983.4 2710.80   6
  -1   7   6 44637.9 2839.38   7
  -1   7   5 20973.9 2051.75   6
  -1   7   5 25364.3 2293.95   7
  -1   7   5 24173.0 1972.52   8
  -1   7   4 1785.80 629.516   6
  -1   7   4 3381.75 872.599   7
  -1   7   4 2701.58 695.483   8
  -1   7   3 5223.05 1005.15   6
  -1   7   3 7968.40 1374.82   7
  -1   7   3 7749.45 1112.93   5
  -1   7   3 6952.64 1141.23   8
  -1   7   2 26184.8 2282.46   8
  -1   7   2 27481.3 2460.45   7
  -1   7   2 22793.0 1978.16  10
  -1   7   2 27784.7 2164.58   5
  -1   7   1 14509.3 1631.91  10
  -1   7   1 17893.6 1803.52   7
  -1   7   1 15713.4 1578.68   5
  -1   7   1 14688.6 1736.80   8
  -1   7   0 939.078 471.988   8
  -1   7   0 827.951 381.082   5
  -1   7   0 1131.62 433.680   7
  -1   7   0 1066.23 551.220  10
  -1   7  -1 93636.4 4902.10   8
  -1   7  -1 92311.7 4555.13  10
  -1   7  -1 98902.1 4121.79   5
  -1   7  -1 102564. 4014.58   7
  -1   7  -2 64983.1 4100.39   8
  -1   7  -2 72651.4 3471.96   5
  -1   7  -2 73491.2 3158.20   7
  -1   7  -2 61355.8 2702.21   4
  -1   7  -2 70772.3 3775.27  10
  -1   7  -3 31908.1 2267.51   5
  -1   7  -3 24565.9 2435.47   8
  -1   7  -3 27292.4 1735.19   4
  -1   7  -3 28069.8 1800.61   7
  -1   7  -3 31068.6 2341.87  10
  -1   7  -3 30603.3 2323.55  17
  -1   7  -3 24613.8 2442.09  13
  -1   7  -4 6429.42 1004.15  10
  -1   7  -4 6713.06 1059.31   5
  -1   7  -4 5692.93 1019.55  17
  -1   7  -4 6100.20 818.466   4
  -1   7  -4 5687.60 752.977   7
  -1   7  -4 4359.38 1003.56   8
  -1   7  -4 5110.75 1150.33  13
  -1   7  -5 28549.4 2427.05  17
  -1   7  -5 24140.9 2105.58   5
  -1   7  -5 27849.4 1879.97   9
  -1   7  -5 26558.0 2003.67  10
  -1   7  -5 25388.9 2514.39  13
  -1   7  -5 21130.6 1484.06   7
  -1   7  -6 30030.5 2400.97   5
  -1   7  -6 35832.6 2778.53  17
  -1   7  -6 33965.1 2860.94  13
  -1   7  -6 34504.9 2222.98  10
  -1   7  -6 34666.0 2223.93   9
  -1   7  -7 74266.1 4096.83  17
  -1   7  -7 69808.0 4029.13  13
  -1   7  -7 59513.6 3558.68   5
  -1   7  -7 72394.8 3624.74   9
  -1   7  -7 67579.6 3225.75  10
  -1   7  -8 23723.1 2166.99  13
  -1   7  -8 21526.8 1663.15  10
  -1   7  -8 20184.2 1872.04   5
  -1   7  -8 25255.3 2108.24   9
  -1   7  -9 337.545 261.335  12
  -1   7  -9 287.569 188.920   9
  -1   7  -9 257.341 177.929  10
  -1   7 -10 39276.1 2651.44  13
  -1   7 -10 33024.5 2010.87  10
  -1   7 -10 40277.7 2558.23  12
  -1   7 -10 38144.0 2951.94   9
  -1   7 -11 137160. 5204.35  13
  -1   7 -11 126914. 5860.85   9
  -1   7 -11 141194. 5199.41  12
  -1   7 -12 69172.1 3254.76  13
  -1   7 -12 71376.2 3993.10   9
  -1   7 -12 72937.8 3384.93  12
  -1   7 -13 6980.76 837.428  13
  -1   7 -13 8033.41 1185.66   9
  -1   7 -13 9009.90 1064.20  12
  -1   7 -14 1884.04 500.332   9
  -1   7 -14 1329.89 357.175  12
  -1   7 -15 6052.65 826.422  11
  -1   7 -15 6253.46 780.766   9
  -1   7 -15 5362.56 680.491  12
  -1   7 -16 34189.0 1774.07  11
  -1   7 -16 33221.9 1620.18   9
  -1   7 -16 33971.2 1602.18  12
  -1   7 -17 31178.3 1362.78  11
  -1   6  11 43455.5 1817.43   6
  -1   6  11 32202.9 1410.85   7
  -1   6  10 6295.36 716.792   7
  -1   6  10 5405.05 709.345   6
  -1   6   9-50.9788 129.090   7
  -1   6   8 16973.4 1564.20   7
  -1   6   7 37615.1 2618.71   7
  -1   6   7 33206.6 2198.54   8
  -1   6   6 76270.0 4152.55   7
  -1   6   6 76862.2 3713.00   8
  -1   6   5 4133.46 821.925   8
  -1   6   5 4267.44 944.007   7
  -1   6   4 6626.59 1068.14   8
  -1   6   4 5489.11 920.535   5
  -1   6   4 6362.26 1190.25   7
  -1   6   3 12382.0 1349.09   5
  -1   6   3 13673.3 1523.65   8
  -1   6   3 14117.5 1719.09   7
  -1   6   2 66522.3 3596.54   7
  -1   6   2 59413.8 3338.47   8
  -1   6   2 58918.7 3020.28   5
  -1   6   2 54384.1 3281.98   3
  -1   6   1 44161.9 2458.68   5
  -1   6   1 44927.2 2900.72   8
  -1   6   1 51360.8 2842.61   7
  -1   6   0 9565.00 1294.92   8
  -1   6   0 10259.1 1074.48  17
  -1   6  -1 4288.34 710.977  17
  -1   6  -2 68939.4 3185.17  17
  -1   6  -3 92098.1 3874.31  17
  -1   6  -4 58504.8 3142.70  17
  -1   6  -5 240.260 250.298  17
  -1   6  -6 61185.5 3514.87  13
  -1   6  -6 60576.4 3027.54   9
  -1   6  -7 69174.4 3680.98  13
  -1   6  -7 82474.4 3768.01  17
  -1   6  -7 61223.9 2876.31  10
  -1   6  -7 75365.3 3586.46   9
  -1   6  -8 83612.9 4075.52   9
  -1   6  -8 68388.7 3485.90  12
  -1   6  -8 80798.6 3889.66  13
  -1   6  -8 67046.5 2995.71  10
  -1   6  -8 87364.7 3827.71  17
  -1   6  -9 64765.6 3278.36  12
  -1   6  -9 63071.6 3332.31  13
  -1   6  -9 60776.4 3046.54  17
  -1   6  -9 67616.7 3849.52   9
  -1   6 -10 21249.3 2156.02   9
  -1   6 -10 21505.7 1829.28  12
  -1   6 -10 21098.4 1794.41  13
  -1   6 -11 64956.3 3315.56  12
  -1   6 -11 59963.1 3679.98   9
  -1   6 -11 59123.3 3058.69  13
  -1   6 -12 19954.9 1706.45  12
  -1   6 -12 17591.2 1467.13  13
  -1   6 -12 19683.9 1956.06   9
  -1   6 -13 12070.1 1266.57  12
  -1   6 -13 11797.6 1406.70   9
  -1   6 -14 1931.11 484.694  12
  -1   6 -14 1155.23 445.228   9
  -1   6 -15 526.732 220.936  12
  -1   6 -15 357.679 158.811   9
  -1   6 -16 13217.5 1027.04  12
  -1   6 -16 12058.1 973.824   9
  -1   6 -17 45656.1 1761.85  12
  -1   6 -17 46393.9 1968.41  11
  -1   5  12 10919.6 794.489   7
  -1   5  12 15243.5 1120.45   6
  -1   5  11 52768.7 2355.78   7
  -1   5  10 38497.5 2227.54   7
  -1   5   9 8415.89 1094.76   7
  -1   5   8 3146.52 735.260   7
  -1   5   7 18911.7 1674.54   3
  -1   5   7 21010.6 1983.17   7
  -1   5   7 16779.5 1573.41   8
  -1   5   6 26768.0 2028.16   3
  -1   5   6 26296.3 2047.09   8
  -1   5   6 31799.8 2549.56   7
  -1   5   5 95218.7 4087.13   3
  -1   5   5 95531.2 4068.37   8
  -1   5   4 13301.8 1437.60   3
  -1   5   4 13571.9 1639.99   7
  -1   5   4 13194.2 1381.37   8
  -1   5   4 11541.7 1345.55  14
  -1   5   3 25487.5 1717.93  14
  -1   5   2 93725.6 3165.20  14
  -1   5   1 110712. 3248.52  14
  -1   5   1 121439. 3848.19  17
  -1   5   0 95428.2 2640.37  14
  -1   5   0 109244. 3527.60  17
  -1   5  -1 16913.2 1246.03  17
  -1   5  -2 41539.6 2068.09  17
  -1   5  -3 33052.4 1866.46  17
  -1   5  -4 103688. 3810.09  17
  -1   5  -5 1079.66 349.903  17
  -1   5  -6 4933.39 746.901  17
  -1   5  -7 37290.4 2144.04  17
  -1   5  -8 95995.5 3657.43  17
  -1   5  -9 78024.2 3552.45  13
  -1   5  -9 96203.2 3918.73  12
  -1   5 -10 48110.1 2687.39  12
  -1   5 -10 36365.8 2248.47  13
  -1   5 -11 14156.2 1418.07  12
  -1   5 -12 66081.4 3281.15  12
  -1   5 -13 45643.2 2607.29  12
  -1   5 -14 13292.1 1316.25   9
  -1   5 -14 13345.3 1291.62  12
  -1   5 -15 9205.54 985.942  12
  -1   5 -15 9537.01 1005.70   9
  -1   5 -16 482.470 193.353   9
  -1   5 -16 626.375 217.960  12
  -1   5 -17 16052.9 1143.19  11
  -1   4  14 22822.0 1164.13   6
  -1   4  13 1698.99 309.621   7
  -1   4  12 668.808 242.562   7
   1  -4 -11 25597.3 1606.68  15
  -1   4  11 31483.7 1981.03   7
   1  -4 -10 72908.6 3089.77  15
  -1   4  10 85756.6 3705.64   7
  -1   4   9 14958.1 1667.46  14
   1  -4  -9 21883.8 1573.37  15
  -1   4   8 358.209 218.434   3
  -1   4   8 90.8844 110.106  14
  -1   4   7 9234.91 1113.20   3
  -1   4   7 8726.32 1253.13  14
  -1   4   6 40697.9 2426.12   3
  -1   4   6 44194.6 2865.14  14
  -1   4   5 59057.0 3242.30  14
  -1   4   4 15932.9 1484.61  14
  -1   4   3 29654.0 1801.42  14
  -1   4   2 71625.1 2515.67  17
  -1   4   2 76829.2 2652.67  14
  -1   4   1 170399. 4116.18  14
  -1   4   1 161916. 4426.32  17
  -1   4   0 17149.7 759.488  14
  -1   4   0 15415.4 972.922  17
  -1   4  -1 58320.0 1494.75  14
  -1   4  -1 55810.6 2166.13  17
  -1   4  -2 36300.7 1728.00  17
  -1   4  -3 221177. 5874.12  17
   1  -4   4 389473. 8199.43   1
  -1   4  -4 431911. 9571.82  17
  -1   4  -5 193605. 5315.83  17
   1  -4   5 177376. 4687.17   1
  -1   4  -6 9043.27 884.907  17
   1  -4   6 8573.08 844.543   1
  -1   4  -7 12495.8 1001.21  17
   1  -4   7 13019.3 1129.18   1
  -1   4  -8 104701. 3462.40  17
   1  -4   8 116336. 4095.45   1
  -1   4  -9 105346. 4172.07  12
   1  -4   9 131675. 4558.76   1
  -1   4 -10 86570.5 3723.21  12
   1  -4  10 96436.2 3970.73   1
  -1   4 -11 5927.18 872.146  12
  -1   4 -11 4178.57 718.149  15
   1  -4  11 5493.47 921.940   1
  -1   4 -12 33893.3 2180.43  12
  -1   4 -12 30571.6 2047.92  15
  -1   4 -13 67423.3 3233.37  15
  -1   4 -13 74026.2 3326.75  12
  -1   4 -14 61010.9 2863.40  12
  -1   4 -14 54351.5 2744.64  15
  -1   4 -15 18249.2 1394.96  15
  -1   4 -15 22069.2 1497.47  12
  -1   4 -15 18375.1 1353.71   9
  -1   4 -16 213.982 146.941  15
  -1   4 -16 346.531 149.383  12
  -1   4 -17 10304.0 873.962  11
   1  -3 -14 22578.9 1228.87  15
   1  -3 -13 12283.7 1037.39  15
  -1   3  13 10915.3 986.090   7
   1  -3 -12 1191.92 393.936  15
   1  -3 -11 12519.6 1200.73  15
   1  -3 -10 107404. 3919.89  15
  -1   3  10 95210.9 3786.73   3
  -1   3   9 28183.9 1936.68   3
   1  -3  -9 28088.7 1867.37  15
  -1   3   9 26439.5 2155.28  14
  -1   3   8 13325.1 1482.13  14
  -1   3   8 11546.3 1210.53   3
   1  -3  -8 12476.1 1163.15  15
  -1   3   7 1956.10 482.266   3
  -1   3   7 2312.70 593.104  14
  -1   3   6 618.908 339.755  14
  -1   3   6 1304.91 374.960   1
  -1   3   5 104349. 3625.27   1
  -1   3   4 88045.1 3108.62   1
  -1   3   3 4440.46 547.094   1
  -1   3   3 4546.97 448.440  17
  -1   3   2 33184.4 1352.57   1
  -1   3   2 32397.4 1283.78  17
  -1   3   1 30867.9 1149.64  14
  -1   3   1 24545.1 1110.50  17
  -1   3   0 47852.5 1273.69  14
  -1   3   0 42606.8 1616.03  17
  -1   3  -1 31533.2 1376.17  17
  -1   3  -1 32612.7 815.079  14
  -1   3  -2 185256. 4704.95  17
   1  -3   3 163433. 3594.68   1
  -1   3  -3 148931. 4258.35  17
   1  -3   4 167700. 4295.36   1
  -1   3  -4 168491. 4525.63  17
  -1   3  -5 114315. 3398.09  17
   1  -3   5 109339. 3459.90   1
  -1   3  -6 68999.1 2388.66  17
   1  -3   6 65477.9 2655.40   1
   1  -3   7 15158.8 1245.32   1
  -1   3  -7 14619.9 933.919  17
   1  -3   8 69011.9 3009.01   1
   1  -3   9 154609. 5201.79   1
  -1   3 -10 82269.7 3430.53  12
  -1   3 -10 72663.5 3295.36  15
  -1   3 -11 62391.7 2958.49  12
   1  -3  11 65545.1 3314.54   1
  -1   3 -11 60457.7 2986.97  15
  -1   3 -12 2912.61 573.323  12
  -1   3 -12 2997.90 610.482  15
  -1   3 -13 37271.5 2184.48  12
  -1   3 -13 37837.9 2346.84  15
  -1   3 -14 38239.4 2308.81  15
  -1   3 -14 38621.1 2132.72  12
  -1   3 -15 11553.0 1124.82  15
  -1   3 -15 11653.3 1032.10  12
  -1   3 -16 3112.77 532.250  15
  -1   3 -17 504.714 184.730  11
  -1   3 -17 905.619 253.160  15
   1  -2 -15 20267.8 1183.89  15
   1  -2 -14 36555.5 1915.89  15
   1  -2 -13 39000.9 2174.17  15
   1  -2 -12 9451.37 1070.94  15
  -1   2  11 1927.56 570.504  14
   1  -2 -11 2073.01 494.882  15
  -1   2  10 38111.2 2608.82  14
   1  -2 -10 41086.5 2336.55  15
   1  -2  -9 32715.6 2020.12  15
  -1   2   9 32664.9 2084.41   1
  -1   2   8 36005.0 2099.01   1
   1  -2  -8 32052.7 1931.53  15
  -1   2   7 368.229 174.684   1
  -1   2   6 32209.5 1826.55   1
  -1   2   5 130253. 4069.60   1
  -1   2   4 125422. 3816.16   1
  -1   2   3 9981.03 796.332   1
  -1   2   3 10192.3 527.634  17
  -1   2   2 53356.0 1825.82   1
  -1   2   2 49519.8 1449.60  17
  -1   2   1 4427.21 350.888  17
  -1   2   1 4335.49 372.343   1
  -1   2   0 14541.0 705.371  17
  -1   2   0 11797.8 443.550   1
  -1   2  -1 208704. 4795.38  17
   1  -2   2 340859. 6709.96   1
  -1   2  -2 319453. 7275.63  17
  -1   2  -3 39004.8 1519.30  17
   1  -2   3 41941.0 1478.05   1
  -1   2  -4 42059.6 1587.28  17
   1  -2   4 41706.9 1740.09   1
   1  -2   5 178488. 5057.57   1
  -1   2  -5 193304. 4554.71  17
  -1   2  -6 304857. 6816.62  17
   1  -2   6 318876. 7814.01   1
   1  -2   7 32448.1 1853.87   1
  -1   2  -7 27745.3 1127.84  17
   1  -2   8 22663.6 1615.90   1
   1  -2   9 78631.0 3433.56   1
  -1   2 -10 58303.2 2724.12  12
  -1   2 -10 66649.4 3076.49  15
  -1   2 -11 32759.7 1988.42  12
  -1   2 -11 38592.0 2308.95  15
  -1   2 -12 7657.83 903.870  12
   1  -2  12 6807.69 1103.20  14
  -1   2 -12 8377.77 1075.11  15
  -1   2 -13 22677.8 1800.34  15
  -1   2 -13 20782.7 1495.91  12
  -1   2 -14 67748.3 3190.56  15
  -1   2 -14 60568.6 2619.79  12
  -1   2 -15 44790.6 2373.68  15
  -1   2 -16 12195.9 1040.98  15
  -1   2 -17 1825.00 315.762  15
   1  -1 -16 861.088 221.801  15
   1  -1 -15 12880.1 1055.87  15
   1  -1 -14 77460.4 3188.65  15
   1  -1 -13 113085. 4262.47  15
   1  -1 -12 83966.1 3627.06  15
  -1   1  11 9478.79 1198.26   1
   1  -1 -11 10708.0 1186.42  15
   1  -1 -10 15890.1 1412.26  15
  -1   1  10 13095.5 1365.72   1
   1  -1  -9 30075.3 1957.50  15
  -1   1   9 33983.1 2159.63   1
  -1   1   8 142130. 4894.21   1
  -1   1   7 75390.8 3105.30   1
  -1   1   6 10346.8 973.301   1
  -1   1   5 90448.2 3098.82   1
  -1   1   4 53404.5 2014.94   1
  -1   1   3 61622.2 1841.64   1
  -1   1   3 51674.2 1207.48  17
  -1   1   2 9084.01 381.582  17
  -1   1   2 11124.7 539.783   1
  -1   1   1 3958.70 280.715  17
  -1   1   1 4439.61 253.867   1
  -1   1   0 305268. 6448.07  17
   1  -1   1 263010. 5136.21  14
  -1   1  -1 246660. 5769.70  17
   1  -1   2 130585. 3083.22   1
  -1   1  -2 140078. 3483.08  17
   1  -1   3 477.202 154.219   1
  -1   1  -3 487.935 137.432  17
  -1   1  -4 1692.42 246.641  17
   1  -1   4 5795.47 600.591   1
  -1   1  -5 270342. 5735.72  17
   1  -1   5 253933. 6657.86   1
  -1   1  -6 296026. 6325.86  17
   1  -1   6 326070. 7811.00   1
   1  -1   7 48199.0 2375.76   1
   1  -1   8 10204.1 1086.36   1
   1  -1   9 14193.9 1345.32   1
   1  -1  10 44802.0 2708.14  14
  -1   1 -10 43000.9 2364.09  15
   1  -1  11 66430.4 3548.36  14
  -1   1 -11 73450.1 3314.73  15
   1  -1  12 10293.3 1375.66  14
  -1   1 -12 10274.3 1005.29  12
  -1   1 -12 11594.8 1290.77  15
  -1   1 -13 3763.78 714.452  15
  -1   1 -14 31499.7 2082.99  15
  -1   1 -15 26882.9 1730.10  15
  -1   1 -16 25700.6 1478.66  15
  -1   1 -17 335.694 125.371  15
   1   0 -17 22595.7 1100.40  15
   1   0 -16 16715.6 1128.09  15
   1   0 -15 1120.64 314.425  15
   1   0 -14 14481.7 1326.85  15
   1   0 -13 39174.3 2366.78  15
  -1   0  12 7103.29 1080.20   1
   1   0 -12 6360.05 941.384  15
   1   0 -11 1332.32 450.327  15
  -1   0  11 1028.80 442.459   1
  -1   0  10 11198.2 1286.32   1
   1   0 -10 11285.7 1192.78  15
  -1   0   9 46800.8 2636.90   1
  -1   0   8 167764. 5476.17   1
  -1   0   7 123190. 4255.78   1
  -1   0   6 6608.15 760.038   1
  -1   0   5 77982.2 2638.71   1
  -1   0   4 95121.4 2681.31   1
  -1   0   3 5131.75 390.972   1
  -1   0   2 40295.6 1175.93   1
   1   0  -1 221.733 60.0948  14
   1   0   0 81088.2 1888.52  14
   1   0   1 181410. 4083.76  14
   1   0   1 200203. 4128.07  16
   1   0   2 661840. 13355.8  14
   1   0   3 568435. 11925.1   1
   1   0   4 5109.42 581.666   1
   1   0   5 181072. 5121.68   1
   1   0   6 341859. 8540.77   1
   1   0   7 202834. 5984.90   1
   1   0   8 23862.3 1866.62  14
   1   0   9 1188.41 416.910  14
  -1   0  -9 1229.99 384.265  15
  -1   0 -10 75133.0 3383.85  15
   1   0  10 77604.7 3832.78  14
  -1   0 -11 58750.6 2994.54  15
   1   0  11 52966.1 3214.48  14
  -1   0 -12 94106.8 3991.03  15
  -1   0 -13 19986.4 1657.85  15
  -1   0 -14 1799.99 442.778  15
  -1   0 -15 8938.96 894.142  15
  -1   0 -16 20832.4 1190.77  15
   1   1 -17 38652.2 1648.02  15
   1   1 -16 44634.0 2091.82  15
   1   1 -15 34744.8 1988.26  15
   1   1 -14 727.466 322.224  15
   1   1 -13 27247.8 1959.96  15
   1   1 -13 22685.1 1550.63  12
  -1  -1  12 91669.8 4306.15   1
   1   1 -12 101131. 4021.97  15
   1   1 -11 13523.0 1347.31  15
   1   1 -11 10314.3 1088.36  12
  -1  -1  11 13698.4 1530.94   1
   1   1 -10 2606.43 528.298  12
   1   1 -10 3354.82 648.748  15
  -1  -1  10 3725.65 776.884   1
  -1  -1   9 1572.95 531.093   1
  -1  -1   8 27783.2 1915.44   1
  -1  -1   7 188962. 5627.20   1
  -1  -1   6 32407.6 1670.31   1
  -1  -1   5 18930.1 1061.74   1
  -1  -1   4 27821.1 1144.80   1
  -1  -1   3 92440.6 2377.03   1
   1   1  -2 365499. 7485.70  14
  -1  -1   2 366239. 7462.28   1
   1   1  -1 135743. 3084.05  14
   1   1   0 13836.4 650.753  14
   1   1   0 13390.5 627.859  16
   1   1   1 33038.3 1205.33  14
   1   1   2 360166. 7906.35  14
   1   1   3 397541. 9091.96  14
   1   1   4 131854. 4230.94  14
   1   1   5 78235.3 3287.94  14
   1   1   6 98219.5 3993.59  14
   1   1   7 57964.3 3065.55  14
  -1  -1  -8 38213.6 2237.79  15
   1   1   8 45346.5 2728.08  14
   1   1   9 26862.3 2157.08  14
  -1  -1  -9 27555.9 1907.27  15
  -1  -1 -10 43811.8 2521.12  15
   1   1  10 42703.7 2802.31  14
  -1  -1 -11 50955.9 2749.58  15
   1   1  11 38123.0 2711.19  14
  -1  -1 -12 40942.3 2401.05  15
  -1  -1 -13 13305.6 1248.00  15
   1   1  14 132.509 83.1658   6
  -1  -1 -14 340.909 205.840  15
  -1  -1 -15 12320.2 921.349  15
   1   1  15 8625.59 725.587   6
   1   2 -17 12398.8 887.139  15
   1   2 -16 37747.2 1903.36  15
   1   2 -16 31476.0 1473.37  12
   1   2 -15 33161.4 1956.07  15
   1   2 -15 32965.7 1748.69  12
   1   2 -14 652.695 270.925  15
   1   2 -14 529.964 235.333  12
   1   2 -13 17826.3 1469.30  12
   1   2 -13 17815.8 1551.68  15
  -1  -2  12 52984.5 3258.88   1
   1   2 -12 49838.2 2638.80  12
   1   2 -12 52713.0 2778.05  15
   1   2 -11 81021.5 3507.96  15
  -1  -2  11 87661.4 4215.86   1
   1   2 -10 30101.6 1980.16  15
   1   2 -10 29867.9 1998.53  12
  -1  -2   9 13865.6 1466.20   1
  -1  -2   8 6918.98 941.505   1
  -1  -2   7 43259.9 2208.75   1
  -1  -2   6 86529.3 2963.89   1
  -1  -2   5 39391.9 1608.78   1
  -1  -2   4 80319.3 2309.01   1
  -1  -2   3 21765.1 922.122   1
   1   2  -2 137379. 3350.41  14
  -1  -2   2 144019. 3288.98   1
   1   2  -1 21790.7 933.031  16
   1   2  -1 22071.1 944.405  14
   1   2   0 88102.7 2423.93  16
   1   2   0 82443.9 2395.57  14
   1   2   1 8844.42 647.008  14
   1   2   2 119154. 3475.11  14
   1   2   3 569631. 12700.2  14
   1   2   4 119972. 4236.14  14
   1   2   5 18187.3 1585.82  14
   1   2   6 104697. 4428.23  14
  -1  -2  -7 86679.2 3692.61  15
   1   2   7 111657. 4664.99  14
  -1  -2  -8 49785.0 2686.57  15
   1   2   8 55603.2 3247.28  14
  -1  -2  -9 32772.4 2148.80  15
   1   2   9 27888.8 2292.89  14
  -1  -2 -10 13120.3 1296.56  15
   1   2  10 9983.97 1356.70  14
  -1  -2 -11 10644.1 1146.20  15
  -1  -2 -12 28531.5 1813.71  15
  -1  -2 -13 13964.7 1147.02  15
   1   2  13 13784.4 1249.11   6
   1   2  14 6057.31 671.128   6
  -1  -2 -14 4815.23 559.525  15
   1   3 -17 5278.43 481.951  12
   1   3 -17 4987.03 499.055   9
   1   3 -17 5433.54 548.040  15
   1   3 -16 30014.9 1650.43  15
   1   3 -16 32615.2 1614.54  12
   1   3 -15 53680.2 2444.87  12
   1   3 -15 52969.1 2484.78  15
   1   3 -14 24185.5 1728.50  12
   1   3 -14 25944.4 1755.67  15
   1   3 -13 1672.27 432.691  15
   1   3 -13 1998.98 543.062  12
   1   3 -12 50962.6 2772.09  12
  -1  -3  12 49613.5 3154.91   1
   1   3 -12 44921.8 2497.92  15
   1   3 -11 100601. 4176.48  12
   1   3 -11 90592.0 3771.87  15
   1   3 -10 20068.4 1683.55  12
  -1  -3  10 24836.4 2079.82   1
  -1  -3   9 930.930 379.501   1
  -1  -3   8 3976.93 710.645   1
  -1  -3   7 51803.4 2449.46   1
  -1  -3   6 142064. 4155.48   1
  -1  -3   5 189581. 4772.73   1
  -1  -3   4 1925.79 285.607   1
  -1  -3   3 6393.28 493.273   1
   1   3  -3 6561.27 534.600  14
   1   3  -2 255973. 5876.37  16
   1   3  -2 258246. 5880.05  14
  -1  -3   2 264778. 5696.97   1
   1   3  -1 138773. 3622.85  14
   1   3  -1 141102. 3647.09  16
   1   3   0 72671.0 2370.76  14
   1   3   1 31729.0 1505.78  14
   1   3   2 33923.6 1703.97  14
   1   3   3 210618. 6027.95  14
   1   3   4 145203. 5147.68  14
   1   3   5 9227.68 1224.83  14
   1   3   6 1240.52 475.724  14
   1   3   6 654.779 312.865   7
  -1  -3  -7 6973.50 974.214  15
   1   3   7 9116.73 1335.33  14
   1   3   7 7964.48 1100.71   7
   1   3   8 17269.0 1840.26  14
  -1  -3  -8 17969.3 1596.36  15
   1   3   8 19131.4 1668.64   7
  -1  -3  -9 61426.0 2984.35  15
   1   3   9 59247.1 2953.72   7
  -1  -3 -10 7674.02 954.658  15
  -1  -3 -11 670.080 235.767  15
   1   3  12 6201.69 828.152   6
  -1  -3 -12 5002.98 622.513  15
   1   3  13 26698.1 1540.29   6
   1   4 -17 1005.02 243.867   9
   1   4 -17 1422.55 266.468  12
   1   4 -16 18928.9 1248.19  12
   1   4 -15 23041.8 1565.71  12
   1   4 -15 17414.8 1240.43  15
   1   4 -14 17613.0 1330.86  15
   1   4 -14 19965.0 1596.52  12
   1   4 -13 5779.87 890.119  12
   1   4 -13 4248.56 643.628  15
   1   4 -12 275.313 302.012  12
  -1  -4  12 623.685 311.216   1
   1   4 -11 137949. 5220.53  12
  -1  -4  11 132963. 5504.37   1
   1   4 -10 41993.5 2605.46  12
  -1  -4  10 48318.1 2912.88   1
   1   4  -9 13183.8 1396.97  13
   1   4  -9 16927.9 1594.82  12
  -1  -4   8 265.661 217.350   1
  -1  -4   7 2379.39 502.168   1
  -1  -4   6 89303.8 3108.70   1
  -1  -4   5 321339. 7437.58   1
  -1  -4   4 15482.0 888.279   1
   1   4  -4 16121.4 969.101  16
   1   4  -3 15611.7 935.796  14
  -1  -4   3 14166.4 813.491   1
   1   4  -3 14822.3 920.308  16
   1   4  -2 141553. 3792.78  14
  -1  -4   2 133355. 3452.40   1
   1   4  -2 146589. 3887.89  16
   1   4  -1 183481. 4748.20  14
   1   4   0 315458. 7502.84  14
   1   4   1 81494.6 2973.44  14
   1   4   2 514.451 253.111  14
   1   4   3 100688. 4048.67  14
   1   4   4 166027. 5941.81  14
   1   4   4 170912. 5900.30   8
   1   4   5 91878.5 4299.44   7
   1   4   5 84711.7 4373.66  14
   1   4   6 117.923 181.359  14
   1   4   6 148.456 142.129   7
   1   4   7 13372.8 1681.44  14
   1   4   7 18933.7 1709.40   7
   1   4   8 48409.7 2716.73   7
   1   4   9 37449.0 2165.53   7
   1   4  10 17477.5 1282.81   7
   1   4  10 22598.9 1761.50   6
   1   4  11 1982.08 447.312   6
   1   4  12 2991.97 483.091   6
   1   5 -17 1750.87 315.106   9
   1   5 -17 1509.78 273.699  12
   1   5 -16 4916.20 669.690   9
   1   5 -16 4739.73 595.129  12
   1   5 -15 22270.2 1545.40  12
   1   5 -14 56088.3 2815.62  12
   1   5 -13 45990.9 2650.91  12
   1   5 -12 1742.30 502.797  12
   1   5 -11 71231.4 3465.97  13
   1   5 -11 85460.1 3899.71  12
   1   5 -10 56647.0 3156.89  13
   1   5 -10 60501.8 3257.39  12
   1   5  -9 18632.0 1735.83  12
   1   5  -9 18937.6 1780.49  13
   1   5  -8 1658.02 482.844  12
   1   5  -8 1391.90 537.127  13
   1   5  -7 1446.00 448.700  13
   1   5  -6 15535.0 1063.76  16
   1   5  -5 121499. 3612.38  16
   1   5  -4 39869.3 1772.07  16
   1   5  -3 12301.5 904.031  14
   1   5  -2 24853.3 1356.33  14
   1   5  -1 175299. 4851.28  14
   1   5   0 54632.3 3041.34   5
   1   5   0 57292.5 2439.55  14
   1   5   0 52338.2 2685.20   7
   1   5   0 56759.0 3454.57   8
   1   5   1 43624.9 2237.20  14
   1   5   1 38484.5 2929.97  10
   1   5   1 42273.2 2675.66   5
   1   5   1 40915.7 2461.24   7
   1   5   1 45182.5 2976.08   8
   1   5   2 378.085 281.278   5
   1   5   2 443.358 276.482  14
   1   5   2 159.008 220.980   7
   1   5   2 208.056 261.441   6
   1   5   2 146.021 392.427  10
   1   5   2 18.4962 333.220   8
   1   5   3 17821.4 1778.35   8
   1   5   3 14226.2 1534.04  14
   1   5   3 14602.7 1673.28  10
   1   5   3 14662.2 1644.80   6
   1   5   3 16743.6 1689.28   7
   1   5   4 60605.7 3482.78   7
   1   5   4 57867.1 3552.70   6
   1   5   5 50100.1 3078.41   7
   1   5   5 46301.0 3206.33   6
   1   5   6 14395.8 1669.83   6
   1   5   6 13838.1 1520.99   7
   1   5   7 122.399 163.258   7
   1   5   7-22.9062 168.064   6
   1   5   8 6413.48 985.197   6
   1   5   8 6141.62 832.485   7
   1   5   9 10974.6 1178.28   6
   1   5   9 10038.0 929.625   7
   1   5  10 18399.1 1364.55   6
   1   5  11 3041.80 453.378   6
   1   6 -17 3904.81 416.864  12
   1   6 -17 2699.80 376.980  11
   1   6 -17 3708.95 430.260   9
   1   6 -16 278.403 114.107  12
   1   6 -16 463.104 217.480   9
   1   6 -15 5458.34 784.160   9
   1   6 -15 4380.16 636.752  12
   1   6 -14 23749.3 1905.10   9
   1   6 -14 21305.7 1592.17  12
   1   6 -13 32837.6 2082.98  12
   1   6 -13 34182.5 2542.41   9
   1   6 -12 40888.3 2474.97  12
   1   6 -12 37771.8 2334.65  13
   1   6 -12 34506.7 2771.29   9
   1   6 -11 6234.54 969.549  12
   1   6 -11 6248.74 984.584  13
   1   6 -11 4874.23 1052.49   9
   1   6 -10 11636.1 1381.42  12
   1   6 -10 9654.42 1476.24   9
   1   6 -10 11007.2 1364.59  13
   1   6  -9 17069.6 1812.12   9
   1   6  -9 15181.3 1691.13  13
   1   6  -9 15198.2 1612.33  12
   1   6  -8 9682.61 1279.53   9
   1   6  -8 7679.51 1185.71  12
   1   6  -8 8760.02 1358.84  13
   1   6  -8 8681.60 989.103  10
   1   6  -7 580.436 272.770   9
   1   6  -7 929.136 370.276  10
   1   6  -7 1209.37 557.560  13
   1   6  -7 840.565 426.797  12
   1   6  -7 760.454 408.010   5
   1   6  -6 6872.69 1231.35   5
   1   6  -6 7142.32 967.747  10
   1   6  -6 9065.75 1508.97  13
   1   6  -6 6831.60 932.371   9
   1   6  -6 9233.22 1020.27   7
   1   6  -5 50338.7 3376.68   5
   1   6  -5 50204.3 3786.65  13
   1   6  -5 56202.3 2634.30   7
   1   6  -5 51756.5 2825.92  10
   1   6  -4 57105.0 4344.75  13
   1   6  -4 70249.2 3027.73   7
   1   6  -4 57156.6 3421.64   8
   1   6  -4 66184.0 3846.07   5
   1   6  -4 64279.9 3402.67  10
   1   6  -3 32204.8 2480.73  10
   1   6  -3 30575.6 2500.71   5
   1   6  -3 27993.9 2974.92  13
   1   6  -3 34710.2 2086.26   7
   1   6  -3 32041.5 2680.73   8
   1   6  -2 5302.88 1010.23   5
   1   6  -2 6629.48 897.024   7
   1   6  -2 4957.52 1027.09  10
   1   6  -2 6040.21 1211.04   8
   1   6  -2 4279.60 1121.87  13
   1   6  -1 44299.1 2906.52   5
   1   6  -1 43770.1 2521.12   7
   1   6  -1 45991.5 3295.93   8
   1   6  -1 36192.6 2937.16  10
   1   6   0 61536.7 3178.48   7
   1   6   0 54247.5 3694.60  10
   1   6   0 61684.4 3465.99   5
   1   6   0 64294.5 3878.59   8
   1   6   1 40858.3 3174.05  10
   1   6   1 41004.1 2714.72   7
   1   6   1 43189.7 2903.18   5
   1   6   1 44658.4 3099.22   8
   1   6   1 33570.8 2327.86   6
   1   6   2 3284.71 815.627  10
   1   6   2 2999.33 734.454   6
   1   6   2 3125.32 781.031   8
   1   6   2 2770.23 727.103   7
   1   6   3 376.187 150.897   7
   1   6   3 579.333 305.525   6
   1   6   3 517.970 360.216  10
   1   6   4 31779.6 2494.89   7
   1   6   4 30207.8 2536.85   6
   1   6   5 139929. 5905.87   6
   1   6   5 153607. 5748.40   7
   1   6   6 41335.5 2799.58   6
   1   6   6 44186.9 2580.23   7
   1   6   7 8160.04 938.366   7
   1   6   7 8114.91 1059.29   6
   1   6   8 1723.40 355.427   7
   1   6   8 1915.86 466.934   6
   1   6   9 7315.01 762.430   6
   1   7 -16 7738.70 709.198   9
   1   7 -16 6852.03 597.986  12
   1   7 -15 3294.62 512.172  12
   1   7 -15 2071.25 446.300   9
   1   7 -14 28742.9 1659.49  12
   1   7 -14 33018.6 2164.28   9
   1   7 -13 61012.3 2726.82  13
   1   7 -13 63508.7 2847.09  12
   1   7 -13 62590.2 3471.15   9
   1   7 -12 19973.9 2009.85   9
   1   7 -12 24604.4 1783.98  12
   1   7 -12 25056.5 1838.06  13
   1   7 -11 198.821 329.642   9
   1   7 -11-198.342 314.110  13
   1   7 -11-3.62151 215.030  12
   1   7 -10 32858.7 2333.15  12
   1   7 -10 34383.2 2542.37  13
   1   7 -10 32617.4 2622.66   9
   1   7  -9 68513.4 3677.09   9
   1   7  -9 70756.7 3902.39  13
   1   7  -9 62563.2 2880.15  10
   1   7  -8 74317.7 4330.49  13
   1   7  -8 72003.3 3259.48  10
   1   7  -8 70290.6 3988.72   5
   1   7  -8 72549.7 3593.79   9
   1   7  -7 5401.31 1106.81   5
   1   7  -7 5150.47 823.998   9
   1   7  -7 6062.80 1285.98  13
   1   7  -7 5557.18 881.539  10
   1   7  -6 715.397 603.078   5
   1   7  -6 733.921 434.167  13
   1   7  -6 649.707 294.745  10
   1   7  -6 573.362 298.735   9
   1   7  -5 18802.0 1785.03  10
   1   7  -5 20889.2 1643.49   7
   1   7  -5 16305.8 2331.48  13
   1   7  -5 18264.3 2212.08   5
   1   7  -4 75000.1 3340.35   7
   1   7  -4 65402.4 4816.25  13
   1   7  -4 73807.5 4385.73   5
   1   7  -4 66931.7 3780.76  10
   1   7  -3 107010. 5318.68   5
   1   7  -3 98464.1 5795.33  13
   1   7  -3 116368. 4432.40   7
   1   7  -3 106115. 5155.75  10
   1   7  -2 77949.6 3579.40   7
   1   7  -2 57508.3 3943.93  13
   1   7  -2 73517.5 4406.40   8
   1   7  -2 61517.4 3977.18  10
   1   7  -2 68244.5 4032.60   5
   1   7  -1 18827.0 1994.41   5
   1   7  -1 21996.4 2302.54   8
   1   7  -1 17771.8 2112.43  10
   1   7  -1 19343.4 1787.49   7
   1   7   0 23176.1 2066.85   7
   1   7   0 23441.7 2394.28  10
   1   7   1 50632.0 3381.17  10
   1   7   1 41648.5 2667.87   6
   1   7   1 48537.1 3150.76   7
   1   7   2 29241.6 2421.34   7
   1   7   2 31615.8 2363.16  10
   1   7   2 25837.5 2186.26   6
   1   7   3 13031.5 1596.64   6
   1   7   3 15220.4 1688.20   7
   1   7   3 11697.9 1254.52  10
   1   7   4 253.652 233.377   7
   1   7   4 112.996 226.369   6
   1   7   5 6455.55 992.562   6
   1   7   5 7036.28 948.748   7
   1   7   6 18401.2 1323.78   7
   1   7   6 16588.2 1407.27   6
   1   7   7 4625.87 523.665   7
   1   7   7 4633.14 613.779   6
   1   8 -15 59.7963 77.0040  12
   1   8 -15 310.255 181.131   9
   1   8 -14 5434.47 561.949  13
   1   8 -14 6168.16 621.891  12
   1   8 -13 22145.5 1379.54  12
   1   8 -13 21864.9 1755.28   9
   1   8 -13 26337.7 1535.04  13
   1   8 -12 20912.8 1456.51  12
   1   8 -12 23773.5 1659.44  13
   1   8 -11 7086.80 883.194  12
   1   8 -11 8186.03 1172.92   9
   1   8 -10 492.715 362.355  13
   1   8 -10 725.795 248.287  10
   1   8 -10 528.640 288.010   9
   1   8  -9 17551.8 1886.73  13
   1   8  -9 17688.2 1610.17   9
   1   8  -9 16879.9 1364.24  10
   1   8  -8 55761.8 3745.05  13
   1   8  -8 51552.1 2673.38  10
   1   8  -7 19891.9 2327.92  13
   1   8  -7 14970.0 1316.16   4
   1   8  -7 18075.6 2121.69   5
   1   8  -7 19447.4 1641.58  10
   1   8  -6 764.517 477.755  13
   1   8  -6 229.841 277.488   5
   1   8  -6 579.557 307.078  10
   1   8  -5 778.021 372.866   5
   1   8  -5 1075.51 580.406  13
   1   8  -5 482.608 356.310  10
   1   8  -5 1385.65 439.545   7
   1   8  -4 18217.4 2263.30  13
   1   8  -4 21263.1 1737.42   7
   1   8  -4 18699.8 1981.91  10
   1   8  -4 22533.8 2427.78   5
   1   8  -3 44299.4 3194.04  13
   1   8  -3 53604.9 2903.90   7
   1   8  -3 40504.1 3117.07  10
   1   8  -3 46276.5 3417.01   5
   1   8  -2 53555.1 3003.61   7
   1   8  -2 40905.5 3176.26  10
   1   8  -1 1819.97 677.222  10
   1   8  -1 1421.19 480.868   7
   1   8   0 19513.6 1867.27   7
   1   8   0 16129.7 1768.05  10
   1   8   1 42325.3 2833.50   7
   1   8   1 44300.2 2670.03  10
   1   8   2 42529.1 2688.69   7
   1   8   2 36570.0 2121.37  10
   1   8   3 26644.6 1910.11   7
   1   8   4 6510.34 783.233   7
   1   8   5 10552.0 840.303   7
   1   9 -13 17664.8 1038.22  13
   1   9 -13 11986.4 995.318   4
   1   9 -12 9604.21 976.864   4
   1   9 -12 16530.0 1189.67  13
   1   9 -11 8266.17 921.721   4
   1   9 -11 12325.8 1161.92  13
   1   9 -10 347.367 290.559  13
   1   9 -10 126.779 82.1659  10
   1   9 -10 160.500 150.746   4
   1   9  -9 15233.8 1581.40  13
   1   9  -9 13800.2 1122.72  10
   1   9  -9 10860.9 987.550   4
   1   9  -8 53421.7 2574.68  10
   1   9  -8 55154.3 3495.40  13
   1   9  -7 16085.7 1436.83  10
   1   9  -7 13787.0 1843.74  13
   1   9  -6 14415.4 1825.41  13
   1   9  -6 16269.7 1571.84  10
   1   9  -5 807.106 393.053  13
   1   9  -5 739.337 385.714  10
   1   9  -4 2345.30 610.539  13
   1   9  -4 2841.17 708.305  10
   1   9  -3 39158.0 2398.38   7
   1   9  -3 29175.5 2406.48  10
   1   9  -2 54313.0 2934.77   7
   1   9  -2 46615.9 2981.63  10
   1   9  -1 12382.3 1357.60   7
   1   9  -1 12536.5 1353.93  10
   1   9   0 389.367 230.324   7
   1   9   0 431.268 195.063  10
   1   9   1 10689.0 1130.26   7
   1   9   2 36343.6 1907.64   7
   1   9   3 15515.6 990.228   7
   1  10 -11 7823.25 751.118  13
   1  10 -10 6008.63 762.883  13
   1  10  -9 126.082 83.7521  10
   1  10  -9 152.698 113.029  13
   1  10  -8 12420.0 1026.54  10
   1  10  -8 10149.5 1177.39  13
   1  10  -7 25421.9 1892.81  13
   1  10  -7 30427.8 1784.66  10
   1  10  -6 13825.7 1218.53  13
   1  10  -6 18288.0 1444.03  10
   1  10  -5 2351.43 538.121  10
   1  10  -4-93.3052 271.411  10
   1  10  -3 18781.9 1484.21  10
   1  10  -2 31273.9 1722.26  10
  -2  11   0 510.209 171.133   7
  -2  11  -1 9974.53 934.450   7
  -2  11  -2 15505.9 1342.83  10
  -2  11  -2 9915.59 930.602   7
  -2  11  -3 4930.38 861.589  10
  -2  11  -3 4726.85 837.415   5
  -2  11  -4 459.883 234.893  10
  -2  11  -4 531.304 299.165   5
  -2  11  -5 6851.43 1078.40  10
  -2  11  -5 7555.34 1227.60   5
  -2  11  -6 22260.0 1283.12   4
  -2  11  -6 28051.4 2528.51   5
  -2  11  -6 27551.5 1902.01  13
  -2  11  -6 31175.0 2170.96  10
  -2  11  -7 32626.6 2221.65  13
  -2  11  -7 32836.1 2098.46  10
  -2  11  -7 31265.0 2681.95   5
  -2  11  -7 27369.0 1507.38   4
  -2  11  -8 6120.82 939.372  13
  -2  11  -8 5797.34 997.894   5
  -2  11  -8 5199.49 643.972   4
  -2  11  -9 1573.46 418.222  13
  -2  11  -9 1286.67 345.532   4
  -2  11  -9 1020.47 345.187   5
  -2  11 -10 7085.74 782.870   4
  -2  11 -10 9780.31 980.337  13
  -2  11 -11 10953.1 921.744   4
  -2  11 -12 9078.87 745.459   4
  -2  10   4 13316.2 993.848   7
  -2  10   3 51767.4 2496.73   7
  -2  10   2 29328.4 2013.07   7
  -2  10   1 11133.9 1261.93   8
  -2  10   1 8496.16 1129.67   7
  -2  10   0 390.052 242.867   5
  -2  10   0-77.5442 161.249  10
  -2  10   0 779.198 356.590   8
  -2  10   0 485.268 223.529   7
  -2  10  -1 24843.1 2047.95  10
  -2  10  -1 22484.5 1885.52   5
  -2  10  -1 21618.8 1742.52   7
  -2  10  -1 23692.6 2251.39   8
  -2  10  -2 33167.4 2435.59   5
  -2  10  -2 33108.2 2955.24   8
  -2  10  -2 30863.8 2028.36   7
  -2  10  -2 35820.6 2694.85  10
  -2  10  -3 9994.17 1618.24   8
  -2  10  -3 10209.7 1061.23   7
  -2  10  -3 11218.5 1467.65   5
  -2  10  -3 9666.80 894.645   4
  -2  10  -3 11756.4 1568.31  10
  -2  10  -4 5444.87 1149.48   8
  -2  10  -4 5692.65 920.844  13
  -2  10  -4 6422.16 1173.96   5
  -2  10  -4 5329.68 691.522   4
  -2  10  -4 6184.72 1100.32  10
  -2  10  -4 5112.07 706.621   7
  -2  10  -5 445.790 240.832   8
  -2  10  -5 649.845 224.217   4
  -2  10  -5 1111.45 547.121   5
  -2  10  -5 827.118 494.023  10
  -2  10  -5 555.371 306.654  13
  -2  10  -6 5714.41 792.963   4
  -2  10  -6 6770.80 1152.56  13
  -2  10  -6 5947.58 1253.89   5
  -2  10  -6 7670.03 1119.28  10
  -2  10  -7 53374.5 2962.10  10
  -2  10  -7 52982.0 3605.46  13
  -2  10  -7 46362.7 3513.55   5
  -2  10  -7 49844.2 2611.45   4
  -2  10  -8 18246.0 2035.36   5
  -2  10  -8 16190.9 1486.59   4
  -2  10  -8 17104.8 1541.92  10
  -2  10  -8 18691.1 1954.06  13
  -2  10  -9 1019.83 396.943   4
  -2  10  -9 2119.33 585.898   5
  -2  10  -9 1784.50 618.556  13
  -2  10  -9 1014.51 325.208  10
  -2  10 -10 9788.95 1165.50  13
  -2  10 -10 7199.08 1020.89   4
  -2  10 -11 18003.3 1584.30   4
  -2  10 -11 25995.9 1730.95  13
  -2  10 -12 28332.3 1618.15  13
  -2  10 -12 20987.3 1601.55   4
  -2  10 -13 7976.07 828.301   4
  -2  10 -14-49.6019 82.4989   4
  -2   9   7 16023.6 916.270   7
  -2   9   6 24389.2 1447.86   7
  -2   9   5 462.423 282.751   7
  -2   9   4 4783.67 765.463   8
  -2   9   4 4801.26 881.292   7
  -2   9   3 18076.6 1850.20   7
  -2   9   3 19692.1 1702.42   8
  -2   9   2 18721.2 1695.70   5
  -2   9   2 17910.9 1736.98   8
  -2   9   2 16368.6 1842.32   7
  -2   9   1 27135.8 2310.37   8
  -2   9   1 24863.4 2256.77   7
  -2   9   1 25602.4 1937.55  10
  -2   9   1 28829.9 2177.83   5
  -2   9   0 22005.7 2220.21   8
  -2   9   0 21740.8 1915.04   5
  -2   9   0 22623.4 2048.28  10
  -2   9   0 21981.5 1990.56   7
  -2   9  -1 19219.3 2228.55   8
  -2   9  -1 17838.5 1339.61   4
  -2   9  -1 17377.2 1710.41   5
  -2   9  -1 20115.9 1770.78   7
  -2   9  -1 20853.4 2111.85  10
  -2   9  -2 16928.4 1918.00  10
  -2   9  -2 15414.4 2107.88   8
  -2   9  -2 14202.7 1386.29   7
  -2   9  -2 15406.9 1250.29   4
  -2   9  -2 14901.7 1656.29   5
  -2   9  -3 34483.1 3269.36   8
  -2   9  -3 33378.6 2493.43  13
  -2   9  -3 34016.9 2097.08   7
  -2   9  -3 38134.4 2893.62  10
  -2   9  -3 37381.6 2082.99   4
  -2   9  -3 35676.0 2681.26   5
  -2   9  -4 22761.1 1653.57   4
  -2   9  -4 23222.7 2222.30   5
  -2   9  -4 20812.5 1537.96   7
  -2   9  -4 22972.2 2297.51  13
  -2   9  -4 23157.5 2527.75   8
  -2   9  -4 24730.2 2280.67  10
  -2   9  -5 5825.23 872.047   4
  -2   9  -5 6803.22 1349.38  13
  -2   9  -5 6231.11 1180.64   5
  -2   9  -5 4622.22 677.491   7
  -2   9  -5 6522.91 1126.17  10
  -2   9  -5 5020.80 1014.65   8
  -2   9  -6 13874.5 1397.61   4
  -2   9  -6 13843.2 1938.36  13
  -2   9  -6 11674.6 1705.34   5
  -2   9  -6 14864.2 1608.24  10
  -2   9  -7 56162.3 3861.60   5
  -2   9  -7 63771.1 3300.16   4
  -2   9  -7 67173.7 4240.30  13
  -2   9  -7 65860.9 3407.24  10
  -2   9  -8 55714.0 3019.88  10
  -2   9  -8 55124.7 3201.78   4
  -2   9  -8 61460.7 3833.77  13
  -2   9  -8 56939.0 3704.89   5
  -2   9  -9 19086.0 1927.99  13
  -2   9  -9 16709.0 1509.84  10
  -2   9  -9 15257.9 1687.44   4
  -2   9  -9 17799.1 1831.83   5
  -2   9 -10 147.317 178.650   5
  -2   9 -10-162.223 206.807   4
  -2   9 -10 208.104 245.043  13
  -2   9 -10 255.850 214.992  10
  -2   9 -11 28828.2 2022.33  13
  -2   9 -11 21380.1 1999.43   4
  -2   9 -12 60985.3 3272.06   4
  -2   9 -12 53140.7 2529.67  12
  -2   9 -13 30386.5 1960.69   4
  -2   9 -13 34395.9 1771.04  13
  -2   9 -14 7149.01 809.549   4
  -2   9 -15 2450.00 369.463   4
  -2   8   8 3496.21 509.912   7
  -2   8   7 29290.7 1839.18   7
  -2   8   6 63668.9 3251.63   7
  -2   8   5 17323.8 1822.08   7
  -2   8   5 17252.7 1573.22   8
  -2   8   4-139.845 146.502   8
  -2   8   4 235.992 260.493   7
  -2   8   3 20479.0 2235.02   7
  -2   8   3 23639.0 2050.56   8
  -2   8   3 22750.0 1936.66   5
  -2   8   2 59159.2 3534.03   8
  -2   8   2 59449.7 3827.68   7
  -2   8   2 69779.3 3504.96   5
  -2   8   1 38309.6 2548.32   5
  -2   8   1 37094.1 2847.14   8
  -2   8   1 38820.2 2838.11   7
  -2   8   1 32005.8 2416.95  10
  -2   8   0 27525.7 1731.18   4
  -2   8   0 32190.6 2298.33   5
  -2   8   0 31130.5 2333.59   7
  -2   8   0 29476.4 2423.30  10
  -2   8   0 28556.8 2598.16   8
  -2   8  -1 3138.13 675.394   5
  -2   8  -1 3369.36 898.474   8
  -2   8  -1 3958.71 899.277  10
  -2   8  -1 3145.98 566.847   4
  -2   8  -1 3870.39 754.234   7
  -2   8  -2 26517.7 1737.29   4
  -2   8  -2 23444.2 1977.09   5
  -2   8  -2 24856.3 2631.79   8
  -2   8  -2 19543.3 1863.39  13
  -2   8  -2 25594.5 1811.24   7
  -2   8  -2 24728.7 2231.28  10
  -2   8  -2 20841.4 1910.77  17
  -2   8  -3 50743.2 3226.95  17
  -2   8  -3 59351.4 3458.87  10
  -2   8  -3 49955.0 3334.11  13
  -2   8  -3 53800.0 3154.29   5
  -2   8  -3 51158.5 3860.90   8
  -2   8  -3 59412.2 2756.09   4
  -2   8  -3 51016.1 2570.13   7
  -2   8  -4 36691.8 3150.16   8
  -2   8  -4 34551.3 1994.08   7
  -2   8  -4 42986.0 3251.62  13
  -2   8  -4 41769.0 2844.00   5
  -2   8  -4 37808.5 2921.43  17
  -2   8  -4 44321.7 2413.21   4
  -2   8  -4 46822.1 2946.20  10
  -2   8  -5 22097.3 2132.86   5
  -2   8  -5 16718.3 1916.34   8
  -2   8  -5 24655.2 1818.97   4
  -2   8  -5 24646.4 2045.98  10
  -2   8  -5 22310.6 2311.35  17
  -2   8  -5 23019.3 2448.29  13
  -2   8  -6-31.6427 380.006  13
  -2   8  -6 426.573 236.898   4
  -2   8  -6 307.025 279.029  10
  -2   8  -6 332.891 221.848   5
  -2   8  -6 743.072 488.293  17
  -2   8  -7 52533.8 3560.86  13
  -2   8  -7 46247.9 3246.56   5
  -2   8  -7 47861.1 3492.85  17
  -2   8  -7 53151.3 2920.67  10
  -2   8  -8 64112.5 3574.43   9
  -2   8  -8 65136.5 3787.21  13
  -2   8  -8 59296.6 3573.32   5
  -2   8  -8 61703.2 3130.55  10
  -2   8  -9 51185.9 3067.50   5
  -2   8  -9 56172.2 3363.91  13
  -2   8  -9 54793.0 3456.18   9
  -2   8  -9 53896.7 2845.90  10
  -2   8 -10 11770.0 1413.16  11
  -2   8 -10 14096.1 1540.80  13
  -2   8 -10 11462.7 1303.75  12
  -2   8 -10 15592.3 1825.26   9
  -2   8 -10 14703.1 1384.17  10
  -2   8 -11 17655.5 1845.50  11
  -2   8 -11 22532.4 1860.60  13
  -2   8 -11 19611.9 1675.48  12
  -2   8 -11 20311.5 2066.93   9
  -2   8 -12 56591.5 2781.27  13
  -2   8 -12 54847.3 3273.90   9
  -2   8 -12 53308.3 2731.99  12
  -2   8 -13 49082.0 2825.31   9
  -2   8 -13 39801.3 2637.16  11
  -2   8 -13 46401.0 2275.39  13
  -2   8 -13 46535.8 2391.90  12
  -2   8 -14 15936.9 1356.19   9
  -2   8 -14 13324.0 1294.17  11
  -2   8 -14 14477.4 1162.72  12
  -2   8 -15-3.11222 109.097  11
  -2   8 -15 38.6929 54.3719  12
  -2   8 -16 3688.02 402.011   4
  -2   8 -16 5017.09 537.889  11
  -2   7  10 21439.8 1183.89   7
  -2   7  10 16123.2 1033.99   6
  -2   7   9 16878.8 1259.49   6
  -2   7   9 18093.2 1323.54   7
  -2   7   8 133.422 81.2355   7
  -2   7   8-51.8263 155.215   6
  -2   7   7 16459.3 1440.71   8
  -2   7   7 17983.1 1734.91   7
  -2   7   6 93857.6 4685.52   7
  -2   7   6 93663.5 4088.65   8
  -2   7   5 33025.8 2427.77   8
  -2   7   5 36939.7 3016.54   7
  -2   7   4 27561.1 2227.53   8
  -2   7   4 27621.6 2689.58   7
  -2   7   3 1272.86 395.167   5
  -2   7   3 1732.03 557.084   8
  -2   7   3 1586.91 559.884   7
  -2   7   3 1977.08 680.539   3
  -2   7   2 1135.71 496.790   3
  -2   7   2 546.660 192.023   8
  -2   7   2 1176.28 471.197   7
  -2   7   2 1052.27 372.523   5
  -2   7   1 7062.80 1196.24   3
  -2   7   1 6444.54 775.469   4
  -2   7   1 7394.23 992.140   5
  -2   7   1 8049.47 1166.81   7
  -2   7   1 5815.46 948.358  10
  -2   7   1 6570.67 1102.71   8
  -2   7   0 35691.2 2218.22  17
  -2   7   0 39070.1 2860.56   8
  -2   7   0 39422.7 2435.44   7
  -2   7   0 37206.1 1975.72   4
  -2   7   0 33937.5 2512.42  10
  -2   7   0 39902.6 2367.56   5
  -2   7  -1 1388.30 589.282   8
  -2   7  -1 1774.41 472.129   5
  -2   7  -1 1225.90 318.152   4
  -2   7  -1 1284.73 520.200  10
  -2   7  -1 1231.71 433.615  17
  -2   7  -1 1340.81 385.910   7
  -2   7  -2 2743.82 515.556   7
  -2   7  -2 2879.59 593.232   5
  -2   7  -2 2559.21 690.497  13
  -2   7  -2 4099.44 789.563  10
  -2   7  -2 2949.71 808.423   8
  -2   7  -2 3234.08 677.628  17
  -2   7  -2 3978.21 641.569   4
  -2   7  -3 14902.2 1882.10   8
  -2   7  -3 21532.7 1542.47   4
  -2   7  -3 16190.7 1824.74  13
  -2   7  -3 18867.2 1640.59   5
  -2   7  -3 19648.1 1804.44  17
  -2   7  -3 20150.6 1767.05  10
  -2   7  -3 13808.3 1177.57   7
  -2   7  -4 89234.4 4005.28   5
  -2   7  -4 95394.3 3628.56   4
  -2   7  -4 84623.2 4510.19  13
  -2   7  -4 96205.9 4000.58  10
  -2   7  -4 89190.1 4244.52  17
  -2   7  -5 26579.3 2395.11  13
  -2   7  -5 25548.6 2099.99   5
  -2   7  -5 26849.9 2274.90  17
  -2   7  -5 29534.9 1974.03   9
  -2   7  -5 28656.9 2004.60  10
  -2   7  -6 5187.95 1013.44  17
  -2   7  -6 4365.44 911.574  13
  -2   7  -6 5734.32 886.788   9
  -2   7  -6 3683.96 775.288   5
  -2   7  -6 4580.86 777.879  10
  -2   7  -7 8446.59 1232.43   5
  -2   7  -7 10392.5 1357.66  13
  -2   7  -7 11745.6 1419.65   9
  -2   7  -7 10425.3 1186.50  10
  -2   7  -7 10104.7 1382.69  17
  -2   7  -8 44850.0 2975.40   9
  -2   7  -8 31867.4 2271.35  12
  -2   7  -8 45921.6 2906.33  13
  -2   7  -8 34554.4 2472.71   5
  -2   7  -8 35903.8 2500.41  11
  -2   7  -8 41046.7 2358.57  10
  -2   7  -8 41053.0 2704.21  17
  -2   7  -9 23471.1 1907.53   5
  -2   7  -9 32811.5 2401.71  13
  -2   7  -9 26107.3 2045.24  17
  -2   7  -9 27648.6 2088.20  12
  -2   7  -9 31837.6 2039.33  10
  -2   7  -9 33336.2 2674.10   9
  -2   7 -10 29330.6 2179.55  13
  -2   7 -10 28648.2 2129.71  12
  -2   7 -10 28733.8 2502.74   9
  -2   7 -11 21786.3 2131.40   9
  -2   7 -11 20351.1 1730.20  13
  -2   7 -11 22758.9 1828.14  12
  -2   7 -12 50365.6 2621.42  13
  -2   7 -12 53056.4 2845.33  12
  -2   7 -12 53063.7 3276.79   9
  -2   7 -13 74070.6 3633.44   9
  -2   7 -13 70294.6 3236.13  12
  -2   7 -14 40166.4 2313.29   9
  -2   7 -14 35903.5 2074.63  12
  -2   7 -14 37789.9 2481.74  11
  -2   7 -15 9088.82 1055.97  11
  -2   7 -15 9673.17 938.569   9
  -2   7 -15 9834.64 940.105  12
  -2   7 -16 820.499 210.862   4
  -2   7 -16 505.374 206.097  11
  -2   7 -16 408.934 182.920  12
  -2   7 -17 36252.3 1525.00  11
  -2   6  12 86.6243 43.2298   6
  -2   6  11 5013.99 632.091   6
  -2   6  11 4611.47 577.385   7
  -2   6  10 40109.9 2152.72   7
  -2   6   9 34029.0 2213.60   7
  -2   6   8 5963.02 994.766   7
  -2   6   7-124.885 110.505   8
  -2   6   7 295.751 204.061   3
  -2   6   7 92.0093 211.992   7
  -2   6   6 34599.2 2409.20   8
  -2   6   6 33196.1 2368.89   3
  -2   6   6 37774.0 2946.87   7
  -2   6   5 66224.7 4126.52   7
  -2   6   5 60318.8 3386.81   3
  -2   6   5 62330.6 3391.24   8
  -2   6   4 56220.1 3306.72   3
  -2   6   4 54867.1 3708.21   7
  -2   6   4 53393.0 3078.76   8
  -2   6   3 3739.41 653.648   5
  -2   6   3 4246.44 892.769   3
  -2   6   3 6119.79 1125.21   7
  -2   6   3 4823.30 864.493   8
  -2   6   2 18512.2 1494.02   5
  -2   6   2 19749.4 1830.13   8
  -2   6   2 24487.2 2082.90   7
  -2   6   2 19416.8 1910.04   3
  -2   6   2 18717.9 1314.66   4
  -2   6   2 22809.1 1528.78  17
  -2   6   1 41123.9 2696.25   8
  -2   6   1 47622.2 2268.76  17
  -2   6   0 52946.4 2450.25  17
  -2   6  -1 61584.1 2690.20  17
  -2   6  -2 32833.8 1950.19  17
  -2   6  -3 3050.73 607.638  17
  -2   6  -4 85570.4 3757.94  17
  -2   6  -5 47670.5 2758.28  17
  -2   6  -6 35379.8 2334.44  17
  -2   6  -7 623.624 315.052   9
  -2   6  -7 1081.24 414.949  13
  -2   6  -7 745.073 197.856  10
  -2   6  -7 712.898 328.107  17
  -2   6  -8 23290.8 1716.84  17
  -2   6  -8 24241.7 2053.14   9
  -2   6  -8 19642.7 1505.19  10
  -2   6  -8 21656.5 1810.38  13
  -2   6  -8 19315.3 1672.86  12
  -2   6  -9 53233.7 2942.10  13
  -2   6  -9 56197.8 2978.57  12
  -2   6  -9 62846.7 3556.60   9
  -2   6  -9 45949.5 2456.20  10
  -2   6  -9 55043.7 2728.01  17
  -2   6 -10 140511. 5876.08   9
  -2   6 -10 135050. 5053.44  13
  -2   6 -10 148294. 5303.45  12
  -2   6 -11 5164.23 788.841  13
  -2   6 -11 6059.86 953.881  12
  -2   6 -11 5015.36 938.117   9
  -2   6 -12 9164.06 1265.06   9
  -2   6 -12 7954.99 936.970  13
  -2   6 -12 9833.75 1166.40  12
  -2   6 -13 42720.4 2631.52   9
  -2   6 -13 41562.0 2432.48  12
  -2   6 -14 68714.7 3090.66  12
  -2   6 -14 70824.5 3192.47   9
  -2   6 -15 28942.6 1734.81  12
  -2   6 -15 24379.2 1552.14   9
  -2   6 -16 3547.16 501.488  12
  -2   6 -16 3979.63 625.090  11
  -2   6 -17 4028.34 510.375  11
  -2   5  13 15216.7 1009.27   6
  -2   5  12 5804.11 684.531   7
  -2   5  11 8390.79 971.107   7
  -2   5  10 70480.8 3327.96   7
  -2   5   9 87267.7 3755.65   3
  -2   5   8 48843.3 2766.06   3
  -2   5   7 8490.58 1131.15   3
  -2   5   6 21143.7 1786.11   8
  -2   5   6 23144.8 1884.65   3
  -2   5   5 25300.2 1973.12   3
  -2   5   5 20825.5 1757.14   8
  -2   5   4 124582. 4836.08   3
  -2   5   4 100097. 4298.43  14
  -2   5   3 20459.6 1278.91  17
  -2   5   3 20234.7 1485.60  14
  -2   5   2 922.423 264.149  17
  -2   5   1 16708.0 1085.35  17
  -2   5   0 81479.4 2865.08  17
  -2   5  -1 126462. 3947.32  17
  -2   5  -2 120476. 3999.62  17
  -2   5  -3 23838.7 1627.73  17
  -2   5  -4 200825. 6102.72  17
  -2   5  -5 293663. 8022.85  17
  -2   5  -6 33835.8 2017.44  17
  -2   5  -7 14813.2 1252.37  17
  -2   5  -8 16783.4 1285.63  17
  -2   5  -9 47786.9 2909.13   9
  -2   5  -9 54122.4 2756.91  12
  -2   5 -10 110040. 4168.42  12
  -2   5 -10 98385.7 4396.61   9
  -2   5 -11 23225.0 1792.92  12
  -2   5 -11 21397.7 1917.15   9
  -2   5 -12 4700.33 857.093   9
  -2   5 -12 4832.01 793.949  12
  -2   5 -13 9487.64 1114.75  12
  -2   5 -13 8172.58 1036.50   9
  -2   5 -13 6500.35 904.288  15
  -2   5 -14 47931.0 2467.82   9
  -2   5 -14 42206.5 2305.14  15
  -2   5 -15 19501.9 1377.21  15
  -2   5 -15 27539.3 1683.16  12
  -2   5 -16 3187.95 582.037  11
  -2   5 -17 8407.98 761.381  11
  -2   4  13 24269.5 1422.61   7
   2  -4 -13 17047.5 1056.03  15
  -2   4  12 15740.3 1329.05   7
   2  -4 -12 13328.3 1063.74  15
   2  -4 -11 5398.10 748.773  15
   2  -4 -10 54489.9 2624.87  15
  -2   4  10 57339.8 2888.33   3
  -2   4   9 58023.5 2948.75   3
   2  -4  -9 57506.4 2648.78  15
  -2   4   8 21326.9 1937.54  14
  -2   4   8 26256.6 1932.65   3
   2  -4  -8 21936.6 1576.99  15
  -2   4   7 17152.4 1543.84   3
  -2   4   7 16713.2 1662.81  14
  -2   4   6 311.118 225.511  14
  -2   4   6 337.839 170.041   1
  -2   4   5 62194.1 2745.17   1
  -2   4   5 70328.6 3408.90  14
  -2   4   4 158628. 4765.66   1
  -2   4   4 160943. 4130.92  17
  -2   4   3 76723.9 2379.41  17
  -2   4   3 70344.8 2614.45   1
  -2   4   3 76099.8 3107.75  14
  -2   4   2 19624.5 1044.11  17
  -2   4   2 20414.5 1210.24  14
  -2   4   1 13962.8 906.364  17
  -2   4   1 15863.7 788.764  14
  -2   4   0 30379.3 846.773  14
  -2   4   0 39008.8 1620.04  17
  -2   4  -1 25934.0 1398.64  17
  -2   4  -2 19498.2 1277.26  17
  -2   4  -3 753.928 262.225  17
  -2   4  -4 47809.5 2288.44  17
  -2   4  -5 72079.0 2812.54  17
   2  -4   5 60011.5 1856.16  14
  -2   4  -6 194675. 5516.27  17
  -2   4  -7 10438.8 920.888  17
  -2   4  -8 8573.71 794.750  17
  -2   4  -9 31206.6 1986.69  12
   2  -4   9 30566.2 1995.92  14
  -2   4 -10 73470.3 3500.41  15
  -2   4 -10 97368.2 3809.48  12
  -2   4 -11 135612. 5078.11  15
  -2   4 -11 152556. 5143.54  12
  -2   4 -12 19579.6 1666.61  15
  -2   4 -12 17997.0 1580.63   9
  -2   4 -12 20604.3 1641.46  12
  -2   4 -13 2109.58 515.248  15
  -2   4 -13 2650.93 569.169  12
  -2   4 -14 56782.0 2857.07  15
  -2   4 -14 60421.4 2794.94  12
  -2   4 -15 62561.6 2649.95  12
  -2   4 -15 61033.7 2762.62  15
  -2   4 -16 22753.5 1419.98  15
  -2   4 -16 27413.3 1677.08  11
  -2   4 -17 6940.65 637.101  11
  -2   3  14 997.211 258.406   7
   2  -3 -14 1330.27 301.464  15
   2  -3 -13 28825.1 1714.35  15
   2  -3 -12 56241.6 2661.06  15
   2  -3 -11 67889.0 3018.55  15
  -2   3  11 56543.8 2824.04   3
   2  -3 -10 1968.15 508.371  15
  -2   3  10 2429.77 584.232   3
  -2   3  10 1516.95 518.540  14
   2  -3  -9 18387.0 1503.30  15
  -2   3   9 17843.8 1569.07   3
  -2   3   9 14899.5 1406.19   1
   2  -3  -8 48771.4 2494.65  15
  -2   3   8 47749.2 2644.44   3
  -2   3   8 47358.3 2507.97   1
  -2   3   7 87434.1 3464.03   1
  -2   3   6 2836.74 536.165   1
  -2   3   5 9419.09 916.885   1
  -2   3   4 40325.7 1855.56   1
  -2   3   4 33072.4 1195.88  17
  -2   3   3 37710.8 1685.84   1
  -2   3   3 37577.4 1342.17  17
  -2   3   2 37836.5 1382.36  17
  -2   3   2 35182.9 1438.70   1
  -2   3   1 19762.1 827.416   1
  -2   3   1 21562.0 1035.00  17
  -2   3   0 73084.8 2255.74  17
  -2   3   0 60662.7 1473.35   1
  -2   3  -1 217059. 5333.60  17
  -2   3  -1 208854. 4194.90   1
  -2   3  -2 111852. 3480.26  17
   2  -3   3 153365. 3228.97  14
  -2   3  -3 165937. 4583.74  17
   2  -3   4 17785.9 859.741  14
  -2   3  -4 19691.4 1271.34  17
  -2   3  -5 229388. 5936.77  17
  -2   3  -6 202859. 5287.75  17
  -2   3  -7 51442.6 2005.70  17
   2  -3   9 48190.4 2630.29  14
  -2   3  -9 40084.9 2237.86  12
  -2   3 -10 42785.9 2511.93  15
   2  -3  10 50409.8 2829.70  14
  -2   3 -10 45880.8 2430.59  12
  -2   3 -11 57920.4 3033.72  15
   2  -3  11 53754.4 3113.49  14
  -2   3 -11 59782.0 2852.77  12
  -2   3 -12 67102.5 3243.79  15
  -2   3 -12 62541.2 2878.09  12
  -2   3 -13 9902.66 1185.45  15
  -2   3 -13 9761.42 1053.84  12
  -2   3 -14 46303.7 2281.62  12
  -2   3 -14 45747.1 2582.56  15
  -2   3 -15 73304.8 3133.47  15
  -2   3 -16 46165.3 2127.61  15
  -2   3 -16 41011.2 1934.77  11
  -2   3 -17 11191.6 798.780  15
   2  -2 -15 1408.80 304.601  15
   2  -2 -14 1217.07 319.581  15
   2  -2 -13 40718.9 2237.19  15
   2  -2 -12 70950.1 3251.26  15
  -2   2  11 60063.0 3293.71   1
   2  -2 -11 92277.0 3668.44  15
  -2   2  10-67.5908 192.273   1
   2  -2 -10 128.894 182.061  15
   2  -2  -9 40983.9 2352.31  15
  -2   2   9 39502.0 2428.51   1
   2  -2  -8 56846.8 2758.57  15
  -2   2   8 64130.2 3020.14   1
  -2   2   7 181040. 5592.15   1
  -2   2   6 121336. 4069.73   1
  -2   2   5 3796.04 547.737   1
  -2   2   4 31905.8 1018.67  17
  -2   2   4 36883.3 1578.32   1
  -2   2   3 88129.8 2414.52   1
  -2   2   3 78822.4 2105.00  17
  -2   2   2 152821. 3380.81   1
  -2   2   2 135853. 3418.61  17
  -2   2   1 319607. 6386.41   1
  -2   2   1 294191. 6796.49  17
  -2   2   0 527223. 11264.3  17
   2  -2   1 36226.5 940.058  16
  -2   2  -1 34949.3 1675.35  17
   2  -2   1 34998.4 938.109  14
  -2   2  -2 13936.2 1060.55  17
   2  -2   2 12128.0 520.836  14
   2  -2   3 2436.64 285.841  14
  -2   2  -3 3187.05 490.384  17
   2  -2   4 12603.2 847.505  14
  -2   2  -4 13607.1 989.576  17
   2  -2   5 509.671 194.409  14
  -2   2  -5 669.815 210.003  17
  -2   2  -6 391244. 8461.24  17
   2  -2   6 362769. 9265.94  14
  -2   2  -7 160309. 4109.83  17
   2  -2   7 169562. 5330.19  14
   2  -2   8 50903.2 2721.05  14
  -2   2  -9 11710.8 1200.04  15
   2  -2   9 14214.9 1439.95  14
  -2   2 -10 2039.37 529.200  15
   2  -2  10 1070.83 420.703  14
  -2   2 -10 890.826 295.631  12
   2  -2  11 91817.3 4310.73  14
  -2   2 -11 88543.6 3500.04  12
  -2   2 -11 96541.4 4053.56  15
  -2   2 -12 30474.1 2166.02  15
  -2   2 -12 27947.9 1759.37  12
  -2   2 -13 33677.1 2262.92  15
  -2   2 -13 30921.9 1810.12  12
  -2   2 -14 270.034 104.194  15
  -2   2 -15 23230.1 1601.45  15
  -2   2 -15 16349.7 1210.23  11
  -2   2 -16 38331.3 1879.06  15
  -2   2 -17 10545.9 721.843  15
   2  -1 -16 34598.7 1560.49  15
   2  -1 -15 14386.5 1123.49  15
   2  -1 -14 77.0376 157.663  15
   2  -1 -13 19826.4 1597.10  15
   2  -1 -12 59912.5 3016.01  15
  -2   1  11 104150. 4616.22   1
   2  -1 -11 117517. 4470.95  15
  -2   1  10 50023.4 2953.70   1
   2  -1 -10 54285.8 2809.00  15
  -2   1   9 211.822 166.185   1
   2  -1  -9 159.617 70.0985  15
  -2   1   8 35057.0 2235.55   1
  -2   1   7 262560. 7282.22   1
  -2   1   6 27201.3 1604.42   1
  -2   1   5 21754.0 1226.04   1
  -2   1   4 1314.77 244.129   1
  -2   1   4 719.790 130.824  17
  -2   1   3 177876. 4155.46   1
  -2   1   2 168536. 3839.86   1
  -2   1   1 718812. 14137.1   1
   2  -1   0 80779.6 1996.62  14
   2  -1   1 7363.10 441.158  14
   2  -1   1 7225.56 420.738  16
   2  -1   2 3086.30 318.771  14
   2  -1   3 3581.13 419.648  14
   2  -1   4 139541. 4077.63  14
   2  -1   5 13194.2 1126.04  14
   2  -1   6 95709.7 3770.37  14
  -2   1  -6 102847. 2914.21  17
   2  -1   7 105075. 4154.81  14
   2  -1   8 79160.2 3681.17  14
   2  -1   9 18999.2 1739.34  14
  -2   1  -9 17056.0 1495.84  15
  -2   1 -10 2886.60 650.184  15
   2  -1  10 2478.17 667.911  14
  -2   1 -10 1974.80 435.410  12
   2  -1  11 10322.8 1362.88  14
  -2   1 -11 8851.64 929.802  12
  -2   1 -12 60207.3 3188.96  15
  -2   1 -13 62372.7 3139.48  15
  -2   1 -14 12131.5 1221.64  15
  -2   1 -15 1331.88 353.227  15
  -2   1 -16 28959.5 1470.24  15
   2   0 -17 6069.06 538.304  15
   2   0 -16 33917.8 1669.80  15
   2   0 -15 63990.7 2723.96  15
   2   0 -14 19971.2 1565.50  15
   2   0 -13 672.257 314.730  15
   2   0 -12 51114.1 2777.69  15
  -2   0  12 40998.9 2834.39   1
   2   0 -11 49997.1 2767.36  15
  -2   0  11 49576.7 3096.50   1
   2   0 -10 99636.4 4033.77  15
  -2   0  10 96601.1 4410.48   1
   2   0  -9 990.422 349.138  15
  -2   0   9 1208.33 456.050   1
  -2   0   8 4453.10 745.879   1
  -2   0   7 117648. 4073.99   1
  -2   0   6 114549. 3597.84   1
  -2   0   5 8255.06 686.192   1
  -2   0   4 2927.03 350.048   1
  -2   0   3 59267.2 1817.80   1
   2   0  -2 43767.0 1429.81  14
  -2   0   2 42208.9 1388.19   1
   2   0  -1 642136. 12848.1  14
   2   0   0 287315. 6190.73  14
   2   0   1 248387. 5454.66  16
   2   0   1 243684. 5512.55  14
   2   0   2 177557. 4389.79  14
   2   0   3 273601. 6621.33  14
   2   0   4 175510. 5080.73  14
   2   0   5 135273. 4600.59  14
   2   0   6 5670.70 869.945  14
   2   0   7 103766. 4360.55  14
  -2   0  -8 141184. 5067.34  15
   2   0   8 150008. 5583.46  14
   2   0   9 134680. 5452.60  14
  -2   0  -9 142165. 5088.24  15
  -2   0 -10 8482.99 1103.69  15
   2   0  10 7749.02 1184.10  14
   2   0  11 40073.6 2829.96  14
  -2   0 -11 49628.0 2782.04  15
  -2   0 -12 69422.2 3335.14  15
  -2   0 -13 75348.5 3334.59  15
   2   0  13 73432.6 3280.85   6
  -2   0 -14 69998.5 2894.32  15
   2   0  14 57241.6 2558.92   6
  -2   0 -15 9655.55 855.235  15
   2   1 -17 332.519 120.626  15
   2   1 -16 17785.5 1216.29  15
   2   1 -15 65042.6 2820.11  15
   2   1 -14 20362.1 1401.99  12
   2   1 -14 24934.5 1761.92  15
   2   1 -13 740.546 295.974  15
   2   1 -13 668.334 261.338  12
   2   1 -12 6444.81 873.070  12
  -2  -1  12 5922.19 1065.80   1
   2   1 -12 6393.52 940.437  15
   2   1 -11 53599.2 2834.51  15
   2   1 -11 43964.6 2454.92  12
  -2  -1  11 51598.0 3248.19   1
   2   1 -10 126690. 4533.00  15
  -2  -1  10 131436. 5206.74   1
  -2  -1   9 38790.3 2513.39   1
  -2  -1   8 281.394 223.169   1
  -2  -1   7 173953. 5149.02   1
  -2  -1   6 104963. 3343.12   1
  -2  -1   5 103534. 3030.90   1
  -2  -1   4 143290. 3705.88   1
  -2  -1   3 15162.2 818.607   1
   2   1  -2 50870.0 1686.17  14
   2   1  -1 34586.7 1339.72  14
   2   1   0 159231. 3903.59  16
   2   1   0 160675. 4015.32  14
   2   1   1 1728.51 300.201  14
   2   1   1 1731.03 282.195  16
   2   1   2 44314.2 1797.53  14
   2   1   3 134725. 4108.07  14
   2   1   4 74629.6 3119.87  14
   2   1   5 85473.2 3704.27  14
   2   1   6 6053.41 985.643  14
  -2  -1  -7 12519.3 1291.76  15
   2   1   7 16323.1 1674.39  14
   2   1   8 86565.9 4265.87  14
  -2  -1  -8 85880.5 3811.29  15
  -2  -1  -9 145969. 5250.67  15
   2   1   9 134346. 5623.83  14
  -2  -1 -10 868.035 398.389  15
   2   1  10 758.374 373.185  14
  -2  -1 -11 41.9817 136.532  15
  -2  -1 -12 12845.2 1246.16  15
   2   1  12 13351.6 1343.82   6
  -2  -1 -13 22240.6 1573.50  15
   2   1  13 24381.0 1688.91   6
   2   1  14 24147.1 1402.98   6
  -2  -1 -14 28295.8 1539.81  15
  -2  -1 -15 5026.09 484.809  15
   2   2 -17 1789.39 310.277  15
   2   2 -16 5508.19 654.394  15
   2   2 -16 4640.89 520.968  12
   2   2 -15 61559.6 2657.12  15
   2   2 -15 56505.2 2415.02  12
   2   2 -14 73947.0 3210.76  15
   2   2 -14 71486.4 3038.08  12
   2   2 -13 42689.4 2393.12  12
   2   2 -13 43897.3 2465.93  15
   2   2 -12 2440.74 583.722  15
   2   2 -12 2340.33 539.459  12
  -2  -2  12 1943.08 648.626   1
  -2  -2  11 15644.9 1778.69   1
   2   2 -11 13159.8 1329.83  15
   2   2 -11 12872.9 1339.06  12
   2   2 -10 70871.7 3389.38  12
   2   2 -10 71573.0 3271.59  15
  -2  -2   9 69239.0 3483.31   1
  -2  -2   8 25000.7 1771.37   1
  -2  -2   7 692.802 240.348   1
  -2  -2   6 11432.5 906.598   1
  -2  -2   5 64082.0 2247.62   1
  -2  -2   4 61233.1 2074.70   1
   2   2  -3 13737.1 856.404  14
  -2  -2   3 14036.2 835.173   1
   2   2  -2 491.250 152.838  14
   2   2  -1 84521.8 2596.76  16
   2   2  -1 87648.9 2682.13  14
   2   2   0 31500.4 1469.96  14
   2   2   0 33283.1 1486.38  16
   2   2   1 15847.8 1071.32  14
   2   2   2 26347.2 1516.11  14
   2   2   3 57070.7 2561.43  14
   2   2   4 22689.7 1707.56  14
   2   2   5 18493.8 1708.82  14
   2   2   6 75435.4 3893.64  14
   2   2   7 5097.02 957.798  14
  -2  -2  -7 4379.76 827.966  15
   2   2   8 51990.5 3272.27  14
  -2  -2  -8 55511.7 3026.98  15
  -2  -2  -9 184996. 5893.96  15
   2   2   9 135265. 5801.33  14
  -2  -2 -10 79265.3 3541.83  15
  -2  -2 -11 3123.01 595.600  15
   2   2  11 3021.39 661.245   6
   2   2  12 2845.26 557.518   6
  -2  -2 -12 2173.83 466.396  15
   2   2  13 14785.7 1144.00   6
  -2  -2 -13 12581.0 962.376  15
   2   3 -17 5149.22 543.484   9
   2   3 -17 3828.84 403.988  12
   2   3 -16 988.500 264.735  15
   2   3 -16 1834.83 365.868  12
   2   3 -15 24741.2 1542.76  15
   2   3 -15 27729.4 1673.67  12
   2   3 -14 50691.8 2475.09  15
   2   3 -14 54076.0 2676.69  12
   2   3 -13 48388.0 2526.41  15
   2   3 -13 54609.0 2856.16  12
   2   3 -12 46298.0 2709.56  12
   2   3 -12 42572.3 2394.44  15
  -2  -3  12 45181.3 3132.38   1
   2   3 -11 13617.7 1443.91  12
   2   3 -11 11302.9 1189.62  15
  -2  -3  11 13251.6 1651.59   1
   2   3 -10 54064.2 2980.93  12
  -2  -3  10 65287.0 3580.07   1
  -2  -3   9 114717. 4728.05   1
  -2  -3   8 98868.2 3915.25   1
  -2  -3   7 13437.7 1137.99   1
  -2  -3   6 41804.6 1914.44   1
  -2  -3   5 150323. 4197.73   1
  -2  -3   4 148790. 3996.50   1
  -2  -3   3 57776.2 2027.79   1
   2   3  -3 53284.9 2068.94  14
   2   3  -2 5249.66 583.535  14
   2   3  -2 5142.71 561.592  16
   2   3  -1 2236.09 384.367  14
   2   3  -1 1734.10 340.128  16
   2   3   0 181919. 4992.94  14
   2   3   1 186580. 5282.91  14
   2   3   2 57961.1 2648.16  14
   2   3   3 13004.7 1289.65  14
   2   3   4 27776.4 2127.29  14
   2   3   5 99420.8 4523.18  14
   2   3   5 76534.7 3706.31   7
   2   3   6 41871.8 2603.83   7
   2   3   6 47052.7 3151.85  14
   2   3   7 10698.2 1488.95  14
   2   3   7 10541.1 1212.75   7
  -2  -3  -8 11017.8 1255.63  15
   2   3   8 12055.9 1475.20   6
   2   3   9 88799.1 4141.69   6
  -2  -3  -9 81689.9 3577.90  15
  -2  -3 -10 41300.9 2237.27  15
   2   3  10 45973.2 2689.24   6
   2   3  11 9200.58 1035.29   6
   2   3  12 830.893 250.300   6
   2   3  13 6601.90 598.769   6
   2   4 -17 14879.9 874.859  12
   2   4 -17 15774.8 1002.00   9
   2   4 -16 663.523 207.289  12
   2   4 -15 3327.41 570.389  12
   2   4 -14 29659.3 1959.00  12
   2   4 -13 60526.3 3112.04  12
   2   4 -12 18114.0 1682.01  12
  -2  -4  11 7935.66 1252.96   1
   2   4 -11 10411.7 1285.11  12
   2   4 -10 22544.6 1882.19  13
   2   4 -10 24491.2 2017.37  12
  -2  -4  10 24221.9 2148.79   1
  -2  -4   9 65343.9 3396.39   1
   2   4  -9 56618.5 3190.81  13
  -2  -4   8 56257.9 2831.72   1
   2   4  -8 44446.0 2865.75  13
  -2  -4   7 19117.9 1421.83   1
   2   4  -7 14042.5 1547.35  13
  -2  -4   6 383.318 145.616   1
  -2  -4   5 51463.1 2082.64   1
  -2  -4   4 43356.2 1863.21   1
   2   4  -4 46572.9 2030.56  16
   2   4  -3 13611.5 1033.24  16
  -2  -4   3 14344.0 944.383   1
   2   4  -3 13037.2 1014.46  14
  -2  -4   2 4965.20 547.386   1
   2   4  -2 4652.72 606.345  14
   2   4  -2 4886.55 632.533  16
   2   4  -1 78456.4 2931.96  14
   2   4   0 114922. 3889.96  14
   2   4   1 108558. 3907.96  14
   2   4   1 96020.6 4607.56   8
   2   4   2 82718.2 4588.06  10
   2   4   2 82409.6 3767.10   7
   2   4   2 88534.2 3925.36   6
   2   4   3 6110.83 1145.99  10
   2   4   3 5925.12 950.276   7
   2   4   3 6285.88 1049.33   6
   2   4   3 5826.21 958.457  14
   2   4   4 18151.6 1823.55  10
   2   4   4 17290.1 1707.98   7
   2   4   4 18112.3 1886.60  14
   2   4   4 20364.6 2001.74   6
   2   4   5 31793.1 2314.08   7
   2   4   5 33385.7 2628.39   6
   2   4   6 75416.0 3588.34   7
   2   4   6 80837.9 4209.18   6
   2   4   7 73212.3 3406.83   7
   2   4   7 84475.5 4218.89   6
   2   4   8 1356.94 509.114   6
   2   4   9 14333.7 1431.19   6
   2   4  10 53164.8 2593.09   6
   2   4  11 24488.0 1464.54   6
   2   4  12 6399.78 562.832   6
   2   5 -17 18039.7 1032.67   9
   2   5 -17 16513.6 915.181  12
   2   5 -16 5851.59 700.882   9
   2   5 -16 5439.58 614.578  12
   2   5 -15 1088.57 303.225  12
   2   5 -14 3867.13 659.472  12
   2   5 -13 16049.6 1489.64  12
   2   5 -12 81230.7 3698.91  12
   2   5 -12 68533.6 3219.61  13
   2   5 -11 4848.94 854.363  13
   2   5 -11 5087.77 883.573  12
   2   5 -10 1022.15 389.099  13
   2   5 -10 666.549 154.350  12
   2   5  -9 24290.7 2119.24  13
   2   5  -9 22172.0 1913.00  12
   2   5  -8 87301.6 4366.37  13
   2   5  -7 74404.0 3297.14  10
   2   5  -7 84385.5 3249.14  16
   2   5  -6 594.998 224.738  10
   2   5  -6 727.156 245.888  16
   2   5  -6 865.191 417.175  13
   2   5  -6 1304.69 448.809   9
   2   5  -5 8083.37 1376.92   5
   2   5  -5 9847.00 1046.76   7
   2   5  -5 8884.76 1524.72  13
   2   5  -5 8356.83 1055.30  10
   2   5  -5 8208.73 859.794  16
   2   5  -4 27446.5 2076.54  10
   2   5  -4 30205.1 1886.20   7
   2   5  -4 24522.9 2634.17  13
   2   5  -4 26099.9 2459.00   5
   2   5  -4 30106.9 1731.14  16
   2   5  -3 55467.2 3542.45   5
   2   5  -3 58341.6 2743.02   7
   2   5  -3 55688.0 2440.43  14
   2   5  -3 55434.0 3202.80  10
   2   5  -2 51761.8 2631.34   7
   2   5  -2 50664.1 2336.48  14
   2   5  -2 52166.2 3390.25   5
   2   5  -2 44584.8 3065.20  10
   2   5  -1 4283.89 653.262  14
   2   5  -1 4351.82 751.018   7
   2   5  -1 3382.01 1067.42  13
   2   5  -1 3202.24 615.479   6
   2   5  -1 3973.98 897.029   5
   2   5  -1 2399.96 801.552  10
   2   5   0 7027.90 1328.40  10
   2   5   0 7096.11 990.252   7
   2   5   0 6613.47 927.495   6
   2   5   0 6784.18 877.316  14
   2   5   1 55082.1 3032.12   7
   2   5   1 45227.8 2608.93  14
   2   5   1 48859.6 2816.21   6
   2   5   1 47401.8 3542.10  10
   2   5   2 48614.8 2960.71   7
   2   5   2 50279.2 3508.65  10
   2   5   2 46168.4 2927.78   6
   2   5   3 14039.2 1574.22   7
   2   5   3 12952.9 1585.34   6
   2   5   3 15173.0 1770.69  10
   2   5   3 9233.26 1351.34  14
   2   5   4 517.801 328.755  14
   2   5   4 238.671 158.514   7
   2   5   4 410.763 330.299   6
   2   5   4-83.5256 295.292  10
   2   5   5 86357.8 4484.92   6
   2   5   5 87630.5 4044.50   7
   2   5   6 60933.1 3528.34   6
   2   5   6 57002.0 2972.18   7
   2   5   7 38779.7 2580.29   6
   2   5   7 33990.3 1986.27   7
   2   5   8 6307.70 908.230   6
   2   5   9 1176.41 333.330   6
   2   5  10 26752.0 1413.37   6
   2   6 -16 27961.0 1356.55  12
   2   6 -16 29863.7 1554.97   9
   2   6 -15 11025.7 1085.06   9
   2   6 -15 10216.3 904.646  12
   2   6 -14 251.521 221.746   9
   2   6 -14 360.549 214.872  12
   2   6 -13 34619.8 2507.59   9
   2   6 -13 27581.8 1747.89  13
   2   6 -13 32078.7 2002.20  12
   2   6 -12 38923.4 2938.71   9
   2   6 -12 46288.3 2558.50  13
   2   6 -12 46197.1 2603.61  12
   2   6 -11 34012.3 2370.39  13
   2   6 -11 36400.4 2389.58  12
   2   6 -10 20621.7 1920.72  13
   2   6 -10 20276.7 1806.14  12
   2   6 -10 17281.9 1918.08   9
   2   6  -9 397.342 300.678  13
   2   6  -9 514.835 331.955  12
   2   6  -9 339.114 338.483   9
   2   6  -8 21498.0 1836.99   9
   2   6  -8 22079.2 2025.36  12
   2   6  -8 24808.5 2354.75  13
   2   6  -8 21174.6 1600.58  10
   2   6  -7 8568.90 1055.94   9
   2   6  -7 10721.0 1594.09  13
   2   6  -7 7809.09 1248.20  12
   2   6  -7 9603.60 1125.24  10
   2   6  -6 928.605 353.708  10
   2   6  -6 1252.60 605.666  13
   2   6  -6 1608.23 726.438   5
   2   6  -5 4539.28 774.705   7
   2   6  -5 4994.02 1272.52  13
   2   6  -5 4348.88 1121.07   5
   2   6  -5 4049.70 842.664  10
   2   6  -4 28873.3 2340.37  10
   2   6  -4 32452.4 2099.85   7
   2   6  -4 25095.4 2985.03  13
   2   6  -4 30160.6 2904.47   5
   2   6  -3 38378.9 2875.82  10
   2   6  -3 39420.7 2382.04   7
   2   6  -3 41501.0 3244.93   5
   2   6  -3 32659.8 3380.64  13
   2   6  -2 112019. 4416.67   7
   2   6  -2 96897.3 5738.87  13
   2   6  -2 103119. 5274.72  10
   2   6  -1 2443.31 745.728  10
   2   6  -1 3726.46 755.943   7
   2   6  -1 2301.29 788.864  13
   2   6  -1 2728.10 598.354   6
   2   6   0 3180.84 859.004  10
   2   6   0 3099.21 737.395   7
   2   6   0 2870.77 643.919   6
   2   6   1 19426.8 1893.11   7
   2   6   1 20453.1 2237.73  10
   2   6   1 17620.4 1728.75   6
   2   6   2 39731.3 2951.83  10
   2   6   2 36136.9 2665.17   6
   2   6   2 36091.5 2653.88   7
   2   6   3 48910.9 3010.94  10
   2   6   3 44724.0 2916.28   7
   2   6   3 44018.8 3073.31   6
   2   6   4 92.1275 256.088  10
   2   6   4 775.381 395.592   7
   2   6   4 579.621 293.542   6
   2   6   5 10726.8 1173.42   7
   2   6   5 10345.3 1347.47   6
   2   6   6 25695.2 1971.41   6
   2   6   6 25412.5 1607.10   7
   2   6   7 35938.6 1655.72   7
   2   6   7 44222.1 2280.68   6
   2   6   8 17315.8 1166.67   6
   2   7 -16 16276.6 931.275   9
   2   7 -15 5469.21 669.186   9
   2   7 -15 4841.73 517.546  12
   2   7 -14 81.8016 59.6421  12
   2   7 -14 340.465 253.304   9
   2   7 -14 26.3920 113.370  13
   2   7 -13 8527.37 1152.03   9
   2   7 -13 8366.58 857.224  13
   2   7 -13 10051.7 974.830  12
   2   7 -12 36196.0 2135.78  13
   2   7 -12 36477.5 2093.36  12
   2   7 -11 55875.9 2993.07  13
   2   7 -11 57191.1 2865.76  12
   2   7 -10 23543.2 2026.73   9
   2   7 -10 25009.1 2093.77  13
   2   7 -10 22115.1 1844.71  12
   2   7  -9 791.578 319.446  10
   2   7  -9 1256.01 519.091  13
   2   7  -9 836.342 358.364   9
   2   7  -9 650.585 307.780  12
   2   7  -8 37373.3 2982.33  13
   2   7  -8 29049.6 1971.46   9
   2   7  -8 33485.2 2082.69  10
   2   7  -7 110785. 5784.51  13
   2   7  -7 101903. 4155.93  10
   2   7  -6 21170.3 2550.35  13
   2   7  -6 22936.2 1877.02  10
   2   7  -5 3896.20 1088.77  13
   2   7  -5 4818.85 924.367  10
   2   7  -4 168.428 229.233  10
   2   7  -4 382.129 421.177  13
   2   7  -4 341.408 221.347   7
   2   7  -3 11216.2 1825.68  13
   2   7  -3 11313.4 1645.78  10
   2   7  -3 14584.9 1474.03   7
   2   7  -2 50867.4 3718.84  10
   2   7  -2 55027.8 3638.38  13
   2   7  -1 13361.7 1504.48   7
   2   7  -1 11641.3 1713.71  10
   2   7   0 1592.33 675.060  10
   2   7   0 1583.70 487.819   7
   2   7   0 1196.64 437.930   6
   2   7   1 6584.77 1071.09   7
   2   7   1 4819.96 853.248   6
   2   7   1 7228.85 1161.21  10
   2   7   2 41664.3 2688.81   7
   2   7   2 37710.0 2603.86   6
   2   7   2 46121.7 2733.90  10
   2   7   3 38544.2 2587.18   6
   2   7   3 43312.9 2285.75  10
   2   7   4 45587.4 2320.27   7
   2   7   4 38961.7 2429.43   6
   2   7   5 17.8006 91.0190   7
   2   7   5-50.9547 146.263   6
   2   7   6 4038.34 539.267   6
   2   8 -14 6773.06 671.355   4
   2   8 -13 534.043 169.736  13
   2   8 -12 5380.37 703.548  13
   2   8 -11 24104.0 1764.19  13
   2   8 -10 23083.7 1900.73  13
   2   8  -9 2980.31 540.170   4
   2   8  -9 4781.91 930.614  13
   2   8  -9 4104.18 617.243  10
   2   8  -8 21209.1 2193.37  13
   2   8  -8 20931.8 1536.35  10
   2   8  -7 28210.3 1930.54  10
   2   8  -7 25075.6 2537.92  13
   2   8  -6 31464.7 3031.03  13
   2   8  -6 42556.1 2582.03  10
   2   8  -5 24282.7 2534.11  13
   2   8  -5 22537.3 1991.96  10
   2   8  -4 2339.07 791.400  13
   2   8  -4 1091.26 455.294  10
   2   8  -3 2561.03 713.885  10
   2   8  -3 1840.32 559.016  13
   2   8  -2 33048.1 2294.51   7
   2   8  -2 25524.7 2351.23  10
   2   8  -1 42868.9 2647.54   7
   2   8  -1 38719.2 2774.62  10
   2   8   0 11424.0 1313.55   7
   2   8   0 11618.0 1304.20  10
   2   8   1 192.280 184.483  10
   2   8   1 597.582 320.758   7
   2   8   2 13462.5 1197.73   7
   2   8   3 33329.7 1683.01   7
   2   9 -12 1418.45 292.587  13
   2   9 -11 15541.8 1192.44  13
   2   9 -10 29183.3 1922.81  13
   2   9  -9 12223.4 1351.60  13
   2   9  -9 8881.67 794.933  10
   2   9  -8 213.080 174.550  13
   2   9  -8 81.9708 103.559  10
   2   9  -7 24104.4 1614.76  10
   2   9  -7 20248.5 1975.09  13
   2   9  -6 26958.3 2187.37  13
   2   9  -6 28677.2 1946.25  10
   2   9  -5 5796.74 895.015  13
   2   9  -5 7479.30 1039.49  10
   2   9  -4 847.648 399.028  10
   2   9  -3 5482.48 936.392  10
   2   9  -2 22396.5 1718.79  10
   2   9  -1 26282.4 1649.32  10
   2   9   0 12449.2 903.182  10
   2  10  -6 11744.5 1003.89  10
   2  10  -5 11557.7 1008.71  10
  -3  12  -6 11464.4 1368.84   5
  -3  12  -7 23507.8 1960.62   5
  -3  11   1 18188.4 1206.63   7
  -3  11   0 9554.23 1099.44   8
  -3  11   0 4587.65 620.902   7
  -3  11  -1 351.630 225.242   8
  -3  11  -1-58.0469 132.961   5
  -3  11  -2 20336.4 2042.97   8
  -3  11  -2 20761.6 1729.22   5
  -3  11  -3 23503.8 1950.66   5
  -3  11  -3 21663.4 2217.28   8
  -3  11  -4 12677.5 1628.04   8
  -3  11  -4 12652.8 1002.95   4
  -3  11  -4 16466.6 1737.22   5
  -3  11  -5 5404.57 658.404   4
  -3  11  -5 6603.69 1126.38  10
  -3  11  -5 6116.45 1113.06   5
  -3  11  -6 370.548 416.272   5
  -3  11  -6 761.260 432.635  10
  -3  11  -6 194.573 143.996   4
  -3  11  -7 23474.3 1573.65   4
  -3  11  -7 23382.2 2350.65   5
  -3  11  -8 23124.4 2201.30   5
  -3  11  -8 18984.1 1443.63   4
  -3  11  -9 14025.2 1252.48   4
  -3  11  -9 17174.8 1618.56   5
  -3  11 -10 1194.43 311.707   4
  -3  11 -11 829.180 252.043   4
  -3  11 -12 7074.19 696.632   4
  -3  10   5 16720.8 1053.85   7
  -3  10   4 4304.31 634.650   7
  -3  10   3 311.718 158.590   8
  -3  10   3 524.790 309.827   7
  -3  10   2 12172.8 1268.68   8
  -3  10   2 8162.12 1093.32   7
  -3  10   1 56880.9 3154.57   8
  -3  10   1 53338.6 2747.74   5
  -3  10   0 111891. 5072.43   8
  -3  10   0 94938.0 4068.32   7
  -3  10   0 102702. 4252.35   5
  -3  10   0 99857.7 4093.06  10
  -3  10  -1 748.124 282.565   5
  -3  10  -1 758.422 414.927   8
  -3  10  -1 620.227 318.471   7
  -3  10  -1 968.055 451.515  10
  -3  10  -2 10113.2 1711.03   8
  -3  10  -2 11769.9 1577.86  10
  -3  10  -2 9066.39 925.026   4
  -3  10  -2 7695.16 1096.10   5
  -3  10  -2 7603.10 906.910   7
  -3  10  -3 31353.5 3110.37   8
  -3  10  -3 34814.2 1957.19   4
  -3  10  -3 29349.2 1762.46   7
  -3  10  -3 41421.3 3060.97  10
  -3  10  -3 36629.8 2649.93   5
  -3  10  -4 48574.5 3833.36   8
  -3  10  -4 49089.8 2485.22   4
  -3  10  -4 52167.1 3058.02  13
  -3  10  -4 55786.2 3474.19   5
  -3  10  -4 60475.2 3750.85  10
  -3  10  -5 36350.2 2959.51   8
  -3  10  -5 47735.9 3182.12  10
  -3  10  -5 42512.3 3219.72   5
  -3  10  -5 42072.6 3004.08  13
  -3  10  -5 40180.3 2281.89   4
  -3  10  -6 3297.92 906.576   5
  -3  10  -6 2264.27 537.116   4
  -3  10  -6 2914.85 857.729  13
  -3  10  -6 3669.57 835.498  10
  -3  10  -7 5192.84 1101.26   5
  -3  10  -7 6879.33 963.134   4
  -3  10  -7 7466.20 1255.44  13
  -3  10  -7 7757.00 1108.46  10
  -3  10  -8 18368.3 1917.91  13
  -3  10  -8 14913.6 1860.80   5
  -3  10  -8 15202.8 1551.66   4
  -3  10  -8 16472.5 1595.17  10
  -3  10  -9 29101.5 2225.27   4
  -3  10  -9 34193.4 2484.45  13
  -3  10  -9 31771.9 2486.05   5
  -3  10 -10 12399.3 1282.36   5
  -3  10 -10 10952.8 1270.10   4
  -3  10 -10 13967.8 1408.74  13
  -3  10 -11 4926.30 750.423  13
  -3  10 -11 3160.23 646.322   4
  -3  10 -12 10344.5 1077.02   4
  -3  10 -13 19817.4 1323.47   4
  -3  10 -14 21574.3 1125.41   4
  -3   9   7 404.215 151.417   7
  -3   9   6 32299.9 1895.75   7
  -3   9   5 48901.7 2466.81   8
  -3   9   5 48806.1 2751.70   7
  -3   9   4 9073.77 1144.11   8
  -3   9   4 9733.60 1296.88   7
  -3   9   3 1605.68 509.172   8
  -3   9   3 955.892 454.328   7
  -3   9   2 11886.5 1478.08   8
  -3   9   2 10412.4 1427.49   7
  -3   9   2 12413.8 1351.34   5
  -3   9   1 44639.1 3184.12   8
  -3   9   1 46874.1 3030.18   7
  -3   9   1 44832.0 2659.57  10
  -3   9   1 53576.9 2981.81   5
  -3   9   0 89830.1 4848.75   8
  -3   9   0 88313.3 4045.47   7
  -3   9   0 89928.3 4323.89  10
  -3   9   0 85968.0 4018.32   5
  -3   9  -1 9720.49 1045.98   4
  -3   9  -1 11541.6 1804.73   8
  -3   9  -1 10060.6 1181.82   7
  -3   9  -1 10049.6 1264.66   5
  -3   9  -1 11716.3 1524.12  10
  -3   9  -2 998.718 431.197   5
  -3   9  -2 1233.18 354.722   4
  -3   9  -2 702.833 269.578   7
  -3   9  -2 1227.52 763.084   8
  -3   9  -2 1143.37 433.684  10
  -3   9  -3 28064.9 1850.21   4
  -3   9  -3 24774.6 2092.25  13
  -3   9  -3 20599.2 1514.89   7
  -3   9  -3 24535.5 2838.12   8
  -3   9  -3 25398.9 2156.74   5
  -3   9  -3 27986.7 2483.83  10
  -3   9  -4 31634.1 3140.63   8
  -3   9  -4 33594.1 2121.09   4
  -3   9  -4 35493.4 2812.67  13
  -3   9  -4 34548.4 2670.64   5
  -3   9  -4 39090.2 2836.09  10
  -3   9  -5 29930.2 2631.89   5
  -3   9  -5 32084.1 2143.82   4
  -3   9  -5 33527.2 2857.85  13
  -3   9  -5 32861.5 2537.42  10
  -3   9  -5 29674.7 2690.47   8
  -3   9  -6 22142.4 2345.30   5
  -3   9  -6 26021.2 2002.98   4
  -3   9  -6 26325.2 2564.81  13
  -3   9  -6 27898.9 2253.63  10
  -3   9  -7 7324.20 1097.67   4
  -3   9  -7 8713.04 1410.36  13
  -3   9  -7 7913.77 1132.17  10
  -3   9  -7 6056.26 1228.00   5
  -3   9  -8 17729.9 1809.31   4
  -3   9  -8 19195.5 1971.18  13
  -3   9  -8 18132.2 2040.96   5
  -3   9  -8 20027.7 1756.06  10
  -3   9  -9 58026.6 3470.17   5
  -3   9  -9 64025.1 3547.68  13
  -3   9  -9 53898.5 3368.98   4
  -3   9 -10 49298.2 2781.49   5
  -3   9 -10 49263.3 3154.21   4
  -3   9 -11 4676.29 828.459  11
  -3   9 -11 5943.86 1033.04   4
  -3   9 -12 2735.45 636.399   4
  -3   9 -12 2012.12 524.127  11
  -3   9 -13 18940.1 1479.99   4
  -3   9 -13 13912.1 1293.38  11
  -3   9 -14 29989.9 1593.38   4
  -3   9 -14 23735.0 1503.23  11
  -3   9 -15 13008.8 803.539   4
  -3   9 -15 12465.7 856.486  11
  -3   8   9 13679.2 936.145   7
  -3   8   8 12577.1 1097.43   7
  -3   8   7 391.500 187.867   7
  -3   8   6 27122.2 2177.76   7
  -3   8   6 26460.7 1879.50   8
  -3   8   5 37496.3 2474.80   8
  -3   8   5 38662.4 2954.68   7
  -3   8   4 19675.7 2181.83   7
  -3   8   4 21581.7 1950.63   8
  -3   8   3 5857.11 1057.94   8
  -3   8   3 5280.32 1147.67   7
  -3   8   3 5044.91 837.274   5
  -3   8   2 4601.93 825.755   5
  -3   8   2 3113.71 772.822   8
  -3   8   2 4659.09 1030.97   7
  -3   8   1 28604.0 2333.83   7
  -3   8   1 29240.1 2105.82   5
  -3   8   1 26094.5 2113.72  10
  -3   8   1 27667.9 2434.33   8
  -3   8   0 152457. 6536.10   8
  -3   8   0 174662. 5142.80   4
  -3   8   0 163401. 5589.83   5
  -3   8   0 159021. 5590.35   7
  -3   8   0 150613. 5934.13  10
  -3   8  -1 46175.4 2717.40   5
  -3   8  -1 49480.6 2440.69   4
  -3   8  -1 43769.2 2447.23   7
  -3   8  -1 44551.3 3406.60   8
  -3   8  -1 47523.7 3136.90  10
  -3   8  -2 6309.99 1357.78   8
  -3   8  -2 6925.51 867.448   4
  -3   8  -2 7570.92 1056.08   5
  -3   8  -2 5030.72 980.203  13
  -3   8  -2 5063.79 733.147   7
  -3   8  -2 6715.68 1152.82  10
  -3   8  -2 5710.70 967.074  17
  -3   8  -3 3268.36 954.795   8
  -3   8  -3 5492.27 784.159   4
  -3   8  -3 4459.97 906.400  13
  -3   8  -3 4424.91 878.200   5
  -3   8  -3 4602.43 934.763  17
  -3   8  -3 5660.90 945.399  10
  -3   8  -4 41982.7 2835.90   5
  -3   8  -4 48199.4 2559.85   4
  -3   8  -4 43196.0 3113.74  13
  -3   8  -4 46372.1 2915.42  10
  -3   8  -4 40330.8 3012.52  17
  -3   8  -5 55761.7 3733.85  17
  -3   8  -5 61206.9 3036.27   4
  -3   8  -5 59269.2 3783.77  13
  -3   8  -5 55755.7 3455.44   5
  -3   8  -5 59954.9 3262.35  10
  -3   8  -6 7639.97 1082.91   4
  -3   8  -6 9884.44 1475.96  13
  -3   8  -6 9240.35 1369.20   5
  -3   8  -6 9487.43 1221.12  10
  -3   8  -6 7649.18 1375.29  17
  -3   8  -7 775.090 330.137  17
  -3   8  -7 278.910 202.987   4
  -3   8  -7 841.735 389.356  10
  -3   8  -7 614.825 212.284   5
  -3   8  -7 926.455 546.686  13
  -3   8  -8 1869.68 588.072   5
  -3   8  -8 1496.46 597.708  13
  -3   8  -8 1825.40 566.966  10
  -3   8  -8 1718.41 498.642  11
  -3   8  -8 785.081 262.465  17
  -3   8  -9 35001.9 2666.29   9
  -3   8  -9 31428.1 2389.12   5
  -3   8  -9 35585.1 2505.18  13
  -3   8  -9 26097.7 1988.54  12
  -3   8  -9 30106.0 2375.90  11
  -3   8 -10 82678.2 4310.31  11
  -3   8 -10 78400.4 3637.12   5
  -3   8 -10 76122.9 3654.18  12
  -3   8 -10 88850.3 4491.17   9
  -3   8 -11 18554.5 1892.11   9
  -3   8 -11 18824.4 1638.40  12
  -3   8 -11 21686.5 1751.78  13
  -3   8 -11 17853.9 1955.24  11
  -3   8 -12 861.562 364.061  12
  -3   8 -12 832.767 371.790  11
  -3   8 -12 1610.93 539.171   9
  -3   8 -13 12029.2 1159.47  12
  -3   8 -13 10914.1 1339.59  11
  -3   8 -14 25958.9 1625.68   4
  -3   8 -14 28581.3 1666.23  12
  -3   8 -14 29793.0 1997.86  11
  -3   8 -15 59465.7 2478.46  11
  -3   8 -15 43571.6 1828.50   4
  -3   8 -16 27683.1 1365.07  11
  -3   7  10 5823.07 673.489   7
  -3   7  10 4219.35 543.741   6
  -3   7   9 28951.4 1854.65   7
  -3   7   8 32071.2 2225.11   7
  -3   7   7 21494.0 1711.35   8
  -3   7   7 21179.3 1763.51   3
  -3   7   7 24502.6 2148.36   7
  -3   7   6 1105.61 469.609   8
  -3   7   6 423.071 210.242   7
  -3   7   6 418.109 284.310   3
  -3   7   5 63033.9 3566.82   3
  -3   7   5 66360.5 4236.12   7
  -3   7   5 64762.9 3531.12   8
  -3   7   4 85196.0 4153.42   8
  -3   7   4 89200.9 4464.59   3
  -3   7   3 53145.9 3657.86   7
  -3   7   3 60654.7 3729.02   3
  -3   7   3 55866.0 3288.95   8
  -3   7   3 52278.8 2809.44   5
  -3   7   2 10832.9 1466.25   7
  -3   7   2 10796.0 1575.96   3
  -3   7   2 7656.62 937.031  17
  -3   7   2 9064.53 1281.15   8
  -3   7   2 9114.85 1083.49   5
  -3   7   1 2120.12 627.203   8
  -3   7   1 2495.13 525.768   4
  -3   7   1 2322.51 539.823   7
  -3   7   1 1455.94 610.627   3
  -3   7   1 2188.66 496.651   5
  -3   7   1 1842.45 455.932  17
  -3   7   1 1319.62 445.639  10
  -3   7   0 28202.4 1888.31   5
  -3   7   0 28815.4 2400.60   8
  -3   7   0 31857.3 1842.12   4
  -3   7   0 25607.8 1839.38   7
  -3   7   0 22851.9 2131.41   3
  -3   7   0 23874.4 2004.92  10
  -3   7   0 26734.6 1817.86  17
  -3   7  -1 43925.4 2389.52   5
  -3   7  -1 41275.0 2993.68   8
  -3   7  -1 50554.9 2351.35   4
  -3   7  -1 28757.8 1885.81   7
  -3   7  -1 28873.0 2169.71   3
  -3   7  -1 40653.3 2654.14  10
  -3   7  -1 38715.8 2205.93  17
  -3   7  -2 33792.4 2114.40   5
  -3   7  -2 32361.9 2140.40  17
  -3   7  -2 28967.7 2610.85   8
  -3   7  -2 38397.3 2071.43   4
  -3   7  -2 24140.2 2092.81  13
  -3   7  -2 33120.9 2337.14  10
  -3   7  -3 5983.47 943.211  17
  -3   7  -3 6246.67 824.498   4
  -3   7  -3 5389.08 1045.86  13
  -3   7  -3 6255.04 954.787  10
  -3   7  -3 4214.21 996.362   8
  -3   7  -4 12199.0 1196.20   4
  -3   7  -4 11523.2 1512.09  13
  -3   7  -4 13248.2 1354.14  10
  -3   7  -4 12463.7 1477.64  17
  -3   7  -4 7725.93 1344.36   8
  -3   7  -5 12971.2 1564.12  17
  -3   7  -5 13029.4 1618.68  13
  -3   7  -5 13672.0 1310.66   4
  -3   7  -5 13368.1 1361.15  10
  -3   7  -6 80875.7 3618.49   9
  -3   7  -6 75845.0 3974.15  13
  -3   7  -6 76169.3 3435.01  10
  -3   7  -6 74245.2 3961.50  17
  -3   7  -7 46886.9 2841.44   9
  -3   7  -7 44647.0 2898.51  13
  -3   7  -7 38400.9 2502.57  11
  -3   7  -7 45278.9 2578.15  10
  -3   7  -7 45075.2 2906.41  17
  -3   7  -8 21434.5 1951.18   9
  -3   7  -8 19404.0 1673.26  10
  -3   7  -8 22940.6 1974.74  13
  -3   7  -8 15790.0 1504.91  12
  -3   7  -8 19904.9 1886.90  11
  -3   7  -8 19082.7 1748.59  17
  -3   7  -9 669.141 362.371   9
  -3   7  -9 1349.80 434.631  13
  -3   7  -9 962.785 334.567  12
  -3   7  -9 572.055 449.707  11
  -3   7  -9 320.229 226.081  17
  -3   7 -10 64378.1 3713.39   9
  -3   7 -10 68228.3 3335.66  13
  -3   7 -10 61754.6 3246.64  12
  -3   7 -10 65330.6 3976.21  11
  -3   7 -11 11045.3 1435.70   9
  -3   7 -11 10810.3 1185.98  13
  -3   7 -11 10911.4 1229.59  12
  -3   7 -11 10869.6 1553.70  11
  -3   7 -12 797.113 362.492  11
  -3   7 -12 739.497 412.080   9
  -3   7 -12 391.125 273.970  12
  -3   7 -13 22157.8 1669.59  12
  -3   7 -13 22980.7 2054.61  11
  -3   7 -13 19773.0 1641.45   9
  -3   7 -14 35511.6 2018.58  12
  -3   7 -14 37095.4 2430.53  11
  -3   7 -14 33454.6 1905.84   9
  -3   7 -15 72397.7 3151.85  11
  -3   7 -16 35744.9 1784.78  11
  -3   7 -17 289.215 98.1355  11
  -3   6  12 28381.0 1365.03   7
  -3   6  12 28030.2 1392.30   6
  -3   6  11 2073.40 407.030   7
  -3   6  10 3787.80 675.272   7
  -3   6   9 26912.0 2039.24   7
  -3   6   9 24018.4 1798.85   3
  -3   6   8 50414.5 2847.43   3
  -3   6   7 37828.6 2463.85   8
  -3   6   7 41334.8 2624.94   3
  -3   6   6 5284.86 926.652   8
  -3   6   6 5019.73 892.377   3
  -3   6   5 10135.6 1282.77   8
  -3   6   5 10408.3 1367.63   3
  -3   6   4 117240. 4877.03   8
  -3   6   4 128845. 5393.61   3
  -3   6   3 108244. 5025.19   3
  -3   6   3 97900.6 4301.30   8
  -3   6   2 29351.2 2158.98   8
  -3   6   2 30202.7 2551.25   3
  -3   6   2 35539.3 1913.04   4
  -3   6   2 30759.1 1737.25  17
  -3   6   1 1295.58 343.351  17
  -3   6   0 10049.7 970.236  17
  -3   6  -1 83028.4 3340.20  17
  -3   6  -2 63152.2 2992.22  17
  -3   6  -3 21713.7 1785.05  17
  -3   6  -4 25765.3 2055.86  17
  -3   6  -5 72613.5 3704.15  17
  -3   6  -6 37149.0 2510.95  17
  -3   6  -7 37606.0 2471.67   9
  -3   6  -7 44238.3 2607.44  13
  -3   6  -7 46284.7 2650.24  17
  -3   6  -7 40669.1 2580.11  11
  -3   6  -7 37409.4 2203.58  10
  -3   6  -8 18372.6 1742.58   9
  -3   6  -8 18883.9 1655.71  13
  -3   6  -8 16849.1 1525.52  12
  -3   6  -8 19868.2 1580.85  17
  -3   6  -9 28.0334 161.770  17
  -3   6  -9 509.713 378.038   9
  -3   6  -9 492.338 269.567  13
  -3   6  -9 1027.33 411.708  12
  -3   6 -10 88489.8 4263.11   9
  -3   6 -10 88515.9 3691.42  13
  -3   6 -10 95370.8 4033.74  12
  -3   6 -11 45753.7 2848.57   9
  -3   6 -11 47127.1 2693.74  12
  -3   6 -12 51984.7 2910.17   9
  -3   6 -12 54806.5 2894.71  12
  -3   6 -13 5203.22 793.006   9
  -3   6 -13 5383.24 813.434  12
  -3   6 -14 2703.59 555.286  12
  -3   6 -14 3054.63 713.380  11
  -3   6 -15 30373.4 1997.71  11
  -3   6 -16 43429.1 2097.89  11
  -3   6 -17 2188.60 340.032  11
  -3   5  13 11963.0 876.801   7
  -3   5  12 17977.3 1346.67   7
  -3   5  10 6372.81 893.670   3
  -3   5   9 15505.5 1526.68   3
  -3   5   8 31510.5 2239.48   3
  -3   5   7 26136.8 2073.76   3
  -3   5   6 58078.9 3169.54   3
  -3   5   6 47252.8 2799.72   8
  -3   5   5 2735.05 656.212   3
  -3   5   5 2294.42 584.524   8
  -3   5   3 115506. 3453.34  17
  -3   5   2 73842.6 2619.05  17
  -3   5   1 4030.43 535.901  17
  -3   5   0 441.588 205.953  17
  -3   5  -1 65080.0 2739.12  17
  -3   5  -2 124302. 4370.46  17
  -3   5  -3 199421. 6278.98  17
  -3   5  -4 56284.9 2963.45  17
  -3   5  -5 73613.9 3433.00  17
  -3   5  -6 31231.7 2042.12  17
  -3   5  -7 73325.5 3176.30  17
  -3   5  -8 37681.9 2202.30  13
  -3   5  -8 40628.9 2404.67  12
  -3   5  -9 4775.00 843.008   9
  -3   5  -9 5533.14 790.385  13
  -3   5  -9 6438.77 938.202  12
  -3   5 -10 26859.1 2067.18   9
  -3   5 -10 36665.3 2282.97  12
  -3   5 -11 81904.3 3883.48  15
  -3   5 -11 87032.1 3841.68   9
  -3   5 -12 72826.2 3563.12  15
  -3   5 -12 87904.0 3690.90  12
  -3   5 -13 21092.2 1711.25  15
  -3   5 -13 24253.7 1775.40  12
  -3   5 -14 103.444 79.1751  15
  -3   5 -14 14.3884 83.7691  12
  -3   5 -14 150.781 111.491  11
  -3   5 -15 13527.0 1121.33  15
  -3   5 -15 18556.0 1503.73  11
  -3   5 -16 36706.2 1876.59  11
  -3   5 -17 24443.5 1157.75  11
  -3   4  14-62.8653 83.4089   7
   3  -4 -13 5663.13 623.077  15
   3  -4 -12 33040.7 1799.95  15
  -3   4  11 58020.5 2837.92   3
   3  -4 -11 57885.7 2672.99  15
   3  -4 -10 2143.07 501.105  15
  -3   4  10 3341.16 657.793   3
  -3   4   9 409.251 325.372  14
  -3   4   9 715.875 370.798   3
   3  -4  -9 460.686 224.016  15
   3  -4  -8 26231.5 1800.70  15
  -3   4   8 30770.3 2206.64   3
   3  -4  -7 49495.1 2544.29  15
  -3   4   7 49789.5 2548.30   1
  -3   4   6 52107.5 2524.35   1
  -3   4   5 42364.7 2174.92   1
  -3   4   4 21604.6 1415.07   1
  -3   4   4 19938.1 1025.70  17
  -3   4   3 72530.5 2701.03   1
  -3   4   3 79530.3 2494.25  17
  -3   4   2 102939. 3144.34   1
  -3   4   2 119383. 3315.70  17
  -3   4   1 26291.5 1107.96   1
  -3   4   1 33973.9 1559.55  17
  -3   4   0 1233.82 323.720  17
  -3   4   0 774.547 129.547   1
  -3   4  -1 50492.0 1327.41   1
  -3   4  -1 71196.6 2708.78  17
  -3   4  -2 178260. 5493.71  17
  -3   4  -3 179193. 5742.95  17
  -3   4  -4 65765.1 3107.16  17
  -3   4  -5 45.5877 81.2776  17
  -3   4  -6 84247.0 3341.71  17
  -3   4  -7 106671. 3690.01  17
  -3   4  -8 91036.7 3203.18  17
  -3   4  -9 13063.0 1353.20  15
  -3   4  -9 17792.2 1520.45  12
  -3   4 -10 6143.58 966.566  15
  -3   4 -10 7898.18 1016.34  12
  -3   4 -11 19077.1 1756.99  15
  -3   4 -11 21281.2 1667.91  12
  -3   4 -12 90460.9 4052.76  15
  -3   4 -12 91869.3 3768.87  12
  -3   4 -13 48257.2 2728.19  15
  -3   4 -13 49755.2 2555.61  12
  -3   4 -14 390.215 246.638  15
  -3   4 -14 222.891 137.319  11
  -3   4 -15 13682.1 1211.49  15
  -3   4 -15 16334.9 1335.25  11
  -3   4 -16 39813.5 1832.24  15
  -3   4 -16 39461.2 1812.63  11
   3  -3 -15 18341.2 965.025  15
   3  -3 -14 5791.33 651.942  15
   3  -3 -13 2097.24 431.399  15
   3  -3 -12 15174.8 1337.05  15
   3  -3 -11 63196.1 2997.44  15
  -3   3  11 58939.3 2986.60   3
   3  -3 -10 5464.70 863.795  15
  -3   3  10 3574.37 734.379   1
  -3   3  10 5806.70 924.013   3
   3  -3  -9 5189.72 830.841  15
  -3   3   9 3673.31 727.490   1
   3  -3  -8 17585.7 1503.48  15
  -3   3   8 17106.0 1549.36   1
  -3   3   7 54282.3 2741.52   1
  -3   3   6 216000. 6272.98   1
  -3   3   5 102559. 3552.71   1
  -3   3   4 7103.81 688.150   1
  -3   3   4 5779.25 488.943  17
  -3   3   3 5217.60 488.370  17
  -3   3   3 5354.52 510.844   1
  -3   3   2 85179.7 2651.23  17
  -3   3   2 89835.8 2415.10   1
  -3   3   1 189628. 4990.29  17
  -3   3   1 192391. 4345.35   1
  -3   3   0 958.326 160.143   1
  -3   3   0 870.940 265.627  17
  -3   3  -1 1271.11 384.597  17
   3  -3   1 1446.51 153.676  16
   3  -3   2 2332.58 212.415  14
  -3   3  -2 2749.11 551.128  17
  -3   3  -3 22615.9 1697.27  17
   3  -3   3 18480.4 787.907  14
  -3   3  -4 30610.5 1924.92  17
   3  -3   4 25658.7 1102.75  14
   3  -3   5 107154. 3308.53  14
  -3   3  -5 119633. 3983.45  17
  -3   3  -6 51011.8 2287.46  17
   3  -3   6 53143.8 2328.36  14
  -3   3  -7 66772.8 2550.67  17
   3  -3   7 67582.3 2977.88  14
   3  -3   8 91913.6 3835.46  14
   3  -3   9 24703.2 1931.35  14
  -3   3  -9 23600.2 1718.34  12
  -3   3  -9 21721.0 1807.29  15
  -3   3 -10 880.037 404.945  15
  -3   3 -10 745.482 356.932  12
   3  -3  10 351.309 177.102  14
  -3   3 -11 48393.2 2815.67  15
  -3   3 -11 45802.6 2448.75  12
  -3   3 -12 73240.1 3575.21  15
  -3   3 -12 73590.8 3191.57  12
  -3   3 -13 56252.6 3002.24  15
  -3   3 -14 7852.88 991.127  15
  -3   3 -14 7961.19 974.516  11
  -3   3 -15 167.631 186.687  15
  -3   3 -15 205.771 139.614  11
  -3   3 -16 15861.0 1095.53  15
   3  -2 -16 8058.03 594.649  15
   3  -2 -15 24413.8 1360.38  15
   3  -2 -14 19979.0 1381.93  15
   3  -2 -13 3814.21 646.014  15
   3  -2 -12 1393.75 442.684  15
   3  -2 -11 45209.9 2550.33  15
  -3   2  11 37307.3 2340.54   3
  -3   2  10 25435.4 2114.07   1
   3  -2 -10 31451.9 2141.20  15
   3  -2  -9 72825.9 3370.33  15
  -3   2   9 74924.3 3647.14   1
  -3   2   8 3370.63 705.367   1
   3  -2  -8 2334.75 503.700  15
  -3   2   7 85951.3 3611.18   1
  -3   2   6 66360.0 2794.44   1
  -3   2   5 95640.8 2929.72   1
  -3   2   5 67452.5 1950.13  17
  -3   2   4 50073.7 1829.72   1
  -3   2   4 40321.0 1485.70  17
  -3   2   3 1380.68 260.141  17
  -3   2   3 1435.15 263.520   1
  -3   2   2 162880. 3925.84   1
  -3   2   2 159261. 4443.95  17
  -3   2   1 589392. 11961.7   1
   3  -2   0 142306. 3362.87  14
   3  -2   1 74558.6 2031.04  14
   3  -2   1 75340.1 2010.28  16
   3  -2   2 1106.78 188.486  14
   3  -2   2 1323.44 210.016  16
   3  -2   3 76319.7 2328.31  14
   3  -2   4 133534. 3787.45  14
   3  -2   5 138093. 4305.18  14
  -3   2  -5 143264. 4364.37  17
  -3   2  -6 2059.59 385.954  17
   3  -2   6 2022.42 447.567  14
  -3   2  -7 14366.1 1016.62  17
   3  -2   7 16425.5 1490.25  14
  -3   2  -8 43979.5 2602.18  15
   3  -2   8 55015.9 2998.00  14
  -3   2  -9 86114.7 3545.41  12
  -3   2  -9 96359.1 4103.21  15
   3  -2   9 96392.2 4305.85  14
  -3   2 -10 8766.43 1151.78  15
   3  -2  10 7773.56 1178.75  14
  -3   2 -10 7791.28 941.026  12
  -3   2 -11 5095.57 877.660  15
   3  -2  11 3700.34 803.753  14
  -3   2 -12 19664.8 1755.29  15
  -3   2 -13 54620.9 2906.03  15
  -3   2 -13 46182.9 2444.03  11
  -3   2 -14 40433.7 2320.29  15
  -3   2 -15 14046.5 1167.01  15
  -3   2 -16 2782.65 423.485  15
   3  -1 -16 4783.22 531.019  15
   3  -1 -15 24549.9 1474.21  15
   3  -1 -14 14318.7 1258.88  15
   3  -1 -13 2157.57 522.001  15
   3  -1 -12 23660.9 1829.11  15
   3  -1 -11 66146.8 3232.88  15
  -3   1  11 57500.9 3448.83   1
   3  -1 -10 86183.7 3783.37  15
  -3   1  10 84172.1 4161.84   1
   3  -1  -9 160842. 5354.41  15
  -3   1   9 169514. 5945.99   1
  -3   1   8 80717.2 3639.07   1
  -3   1   7 9034.19 1000.83   1
  -3   1   6 183160. 5156.66   1
  -3   1   5 194419. 5043.83   1
  -3   1   4 151408. 4007.68   1
  -3   1   3 99577.8 2814.15   1
  -3   1   2 8725.50 615.893   1
   3  -1   0 138025. 3469.05  14
   3  -1   1 184800. 4455.96  14
   3  -1   1 184407. 4334.62  16
   3  -1   2 117561. 3348.22  14
   3  -1   2 126441. 3310.50  16
   3  -1   3 9510.63 777.820  14
   3  -1   4 112925. 3713.28  14
   3  -1   5 138813. 4642.08  14
   3  -1   6 16967.3 1532.91  14
   3  -1   7 61.1881 187.980  14
  -3   1  -8 32511.0 2261.54  15
   3  -1   8 34844.3 2514.32  14
  -3   1  -9 178871. 6177.19  15
   3  -1   9 171957. 6464.66  14
  -3   1 -10 42778.3 2663.68  15
   3  -1  10 36434.0 2691.82  14
  -3   1 -11 743.467 381.984  15
   3  -1  11 477.592 292.014  14
  -3   1 -12 11938.8 1359.57  15
  -3   1 -13 22568.9 1758.56  15
  -3   1 -14 36233.8 2060.06  15
  -3   1 -15 32688.3 1679.20  15
  -3   1 -16 2789.19 352.565  15
   3   0 -17 4563.89 440.831  15
   3   0 -16 242.445 138.923  15
   3   0 -15 17675.3 1286.50  15
   3   0 -14 22985.2 1632.71  15
   3   0 -13 29847.9 2019.32  15
   3   0 -12 18622.0 1631.00  15
   3   0 -12 14565.1 1265.87  12
  -3   0  12 15041.2 1707.83   1
  -3   0  11 3781.13 818.326   1
   3   0 -11 3382.94 612.882  12
   3   0 -11 4544.85 802.629  15
  -3   0  10 30322.3 2373.81   1
   3   0 -10 32525.5 2151.96  15
   3   0  -9 84117.2 3651.38  15
   3   0  -9 87022.8 4145.66   2
  -3   0   8 109460. 4191.43   1
  -3   0   7 17926.6 1337.25   1
  -3   0   6 108359. 3474.02   1
  -3   0   5 197309. 5088.88   1
  -3   0   4 88337.5 2730.38   1
  -3   0   3 57360.8 1986.13   1
   3   0  -2 2484.38 346.777  14
  -3   0   2 2805.37 361.063   1
   3   0  -1 68063.9 2215.44  14
   3   0   0 125561. 3421.36  14
   3   0   0 118501. 3239.05  16
   3   0   1 36907.2 1617.00  14
   3   0   1 38160.8 1529.86  16
   3   0   2 789.266 226.038  14
   3   0   3 191451. 5306.77  14
   3   0   4 182635. 5459.07  14
   3   0   5 101005. 4037.77  14
   3   0   6 16625.4 1628.21  14
   3   0   7 82.2898 173.187  14
  -3   0  -7 365.058 240.524  15
   3   0   8 468.426 275.390  14
  -3   0  -8 573.205 350.661  15
  -3   0  -9 123233. 4913.21  15
   3   0   9 108242. 5006.07  14
  -3   0 -10 19910.6 1762.22  15
   3   0  10 15815.8 1739.39  14
   3   0  10 18826.1 1761.00   6
  -3   0 -11 28325.6 2081.00  15
   3   0  11 26853.1 2063.99   6
  -3   0 -12 246.160 239.735  15
   3   0  12 22.3876 167.725   6
  -3   0 -13 9758.23 1040.98  15
   3   0  13 7959.06 882.797   6
  -3   0 -14 46552.0 2128.50  15
  -3   0 -15 63846.6 2166.61  15
   3   1 -17 4031.95 441.612  15
   3   1 -16 473.616 201.609  15
   3   1 -15 11306.6 1028.84  15
   3   1 -14 20224.7 1557.63  15
   3   1 -14 19553.0 1370.55  12
   3   1 -13 52120.2 2747.96  15
   3   1 -13 49327.9 2490.82  12
  -3  -1  12 16778.1 1865.55   1
   3   1 -12 17922.0 1527.46  12
   3   1 -12 19677.1 1681.29  15
  -3  -1  11 387.594 208.693   1
   3   1 -11 259.607 132.843  12
   3   1 -11 64.3349 104.601  15
   3   1 -10 4301.49 786.974  15
  -3  -1  10 4454.87 911.774   1
   3   1 -10 3286.09 665.699  12
  -3  -1   9 50524.8 2856.13   1
   3   1  -9 48342.3 3044.22   2
  -3  -1   8 107622. 4049.69   1
  -3  -1   7 43985.9 2166.45   1
  -3  -1   6 1919.51 377.244   1
  -3  -1   5 232736. 5872.18   1
  -3  -1   4 146316. 4023.59   1
  -3  -1   3 176430. 4562.77   1
   3   1  -3 175349. 4623.29  14
   3   1  -2 84234.4 2723.55  14
   3   1  -1 3867.71 489.662  14
   3   1  -1 3065.49 412.168  16
   3   1   0 45553.7 1927.25  14
   3   1   0 43901.8 1785.59  16
   3   1   1 86476.2 2850.16  16
   3   1   1 79432.6 2851.68  14
   3   1   2 117077. 3855.93  14
   3   1   3 3596.07 593.510  14
   3   1   4 53190.1 2740.22  14
   3   1   5 42200.1 2626.82  14
  -3  -1  -6 31020.2 2252.16  15
   3   1   6 40115.0 2696.28  14
   3   1   6 37181.3 2604.20   6
  -3  -1  -7 30116.1 2301.41  15
   3   1   7 32238.0 2453.84   6
   3   1   7 28587.3 2343.80  14
  -3  -1  -8 13975.0 1521.73  15
   3   1   8 12118.9 1562.88  14
   3   1   8 14566.3 1634.23   6
  -3  -1  -9 83231.7 3908.64  15
   3   1   9 81195.3 3990.72   6
  -3  -1 -10 80683.2 3747.14  15
   3   1  10 79133.4 3843.84   6
  -3  -1 -11 44075.4 2522.38  15
   3   1  11 41571.0 2533.42   6
  -3  -1 -12 8733.60 976.438  15
   3   1  12 9088.97 1031.61   6
   3   1  13 1039.29 271.904   6
  -3  -1 -13 1035.13 271.895  15
  -3  -1 -14 12338.4 805.530  15
   3   2 -17 15636.3 862.475  15
   3   2 -16 12052.6 909.458  15
   3   2 -16 10863.5 790.633  12
   3   2 -15 201.304 133.929  15
   3   2 -15 184.595 82.3456  12
   3   2 -14 10975.9 1070.65  12
   3   2 -14 10327.9 1053.03  15
   3   2 -13 40977.3 2391.38  12
   3   2 -13 44279.2 2442.07  15
   3   2 -12 165009. 5423.12  15
   3   2 -12 158064. 5466.77  12
   3   2 -11 14209.7 1381.71  15
   3   2 -11 14009.4 1434.86  12
  -3  -2  11 14159.1 1720.85   1
   3   2 -10 3009.87 643.133  15
  -3  -2  10 3171.24 774.124   1
   3   2  -9 69887.2 3791.16   2
  -3  -2   9 77325.0 3533.21   1
  -3  -2   8 176163. 5422.57   1
   3   2  -8 144368. 5699.11   2
  -3  -2   7 185712. 5450.95   1
  -3  -2   6 50028.9 2194.10   1
  -3  -2   5 116828. 3651.25   1
  -3  -2   4 82982.9 2832.15   1
   3   2  -3 82158.3 2876.14  14
  -3  -2   3 82745.7 2793.99   1
   3   2  -2 10280.9 845.466  16
   3   2  -2 9328.63 841.004  14
   3   2  -1 34383.3 1740.96  14
   3   2  -1 35687.7 1687.33  16
   3   2   0 31423.7 1707.61  14
   3   2   0 35321.4 1752.47  16
   3   2   1 132078. 4249.44  14
   3   2   2 179801. 5513.16  14
   3   2   3 1687.58 464.533  14
   3   2   4 3631.27 729.292  14
   3   2   4 3136.40 695.046   6
   3   2   5 21932.8 2012.50  14
   3   2   5 21484.0 1991.90   6
  -3  -2  -6 10965.9 1354.98  15
   3   2   6 13072.4 1648.20  14
   3   2   6 15156.7 1717.40   6
  -3  -2  -7 3367.01 761.805  15
   3   2   7 4043.45 919.414  14
   3   2   7 3930.47 888.112   6
   3   2   8 8175.73 1315.98  14
  -3  -2  -8 11949.6 1382.02  15
   3   2   8 12272.2 1523.52   6
  -3  -2  -9 8795.44 1134.89  15
   3   2   9 8410.67 1192.14   6
   3   2  10 19561.8 1724.36   6
  -3  -2 -10 19994.0 1600.15  15
   3   2  11 46296.1 2501.96   6
  -3  -2 -11 43488.5 2222.89  15
   3   2  12 27173.9 1596.84   6
  -3  -2 -12 21508.2 1279.51  15
   3   2  13 67.4922 77.3299   6
   3   3 -17 19654.1 1096.49   9
   3   3 -16 8813.70 749.248  12
   3   3 -15 500.623 191.660  15
   3   3 -15 364.032 151.958  12
   3   3 -14 7711.39 839.671  15
   3   3 -14 9539.05 1041.58  12
   3   3 -13 47420.8 2643.86  12
   3   3 -13 43519.9 2276.20  15
   3   3 -12 91105.7 3653.61  15
   3   3 -12 100736. 4252.07  12
   3   3 -11 8798.97 1030.85  15
  -3  -3  11 8426.30 1339.91   1
   3   3 -11 9748.49 1235.15  12
   3   3 -10 524.859 231.337  15
  -3  -3  10 697.279 302.834   1
   3   3 -10 849.051 398.748  13
  -3  -3   9 18064.8 1666.34   1
   3   3  -9 13682.2 1473.34  13
   3   3  -8 55862.8 3207.32  13
   3   3  -8 66806.0 3777.41   2
   3   3  -7 96606.3 4398.03  13
   3   3  -7 101613. 4698.25   2
  -3  -3   6 175943. 5112.81   1
  -3  -3   5 3927.11 570.307   1
  -3  -3   4 45892.3 2051.37   1
   3   3  -3 75716.2 2853.83  16
   3   3  -3 73973.6 2893.14  14
  -3  -3   3 77372.7 2791.27   1
   3   3  -2 70510.5 2738.15  16
   3   3  -2 66334.8 2739.64  14
  -3  -3   2 69856.9 2618.66   1
   3   3  -1 17583.8 1318.66  14
   3   3  -1 20734.2 1414.69  16
   3   3   0 1359.12 353.749  14
   3   3   1 23173.5 1658.27  14
   3   3   2 73044.7 3356.79  14
   3   3   2 70453.6 3450.68   6
   3   3   3 36335.8 2429.85  14
   3   3   3 39354.4 2619.85   6
   3   3   4 780.025 440.406  14
   3   3   4 327.673 212.706   7
   3   3   4 762.867 363.112   6
   3   3   5 7094.34 1226.00  14
   3   3   5 8489.06 1323.93   6
   3   3   5 9297.24 1269.27  10
   3   3   6 25218.2 2424.64  14
   3   3   6 36492.3 2791.57   6
   3   3   7 52742.0 3344.46   6
   3   3   8 52861.0 3169.27   6
   3   3   9 9847.26 1212.39   6
   3   3  10 8690.70 1010.84   6
   3   3  11 30867.0 1717.55   6
   3   3  12 45836.6 1773.42   6
   3   4 -17 13496.2 852.599   9
   3   4 -17 10457.9 659.980  12
   3   4 -16 18952.3 1141.75  12
   3   4 -15 26660.4 1604.94  12
   3   4 -14 3614.70 623.300  12
   3   4 -13 661.027 302.144  12
   3   4 -12 88951.4 4023.45  12
   3   4 -11 21667.0 1797.99  13
   3   4 -11 23871.8 1989.58  12
   3   4 -10 6856.66 1075.96  13
  -3  -4  10 4848.05 979.096   1
  -3  -4   9 3743.24 773.319   1
   3   4  -9 4857.97 919.506  13
   3   4  -8 43697.1 2925.16  13
  -3  -4   8 44481.3 2518.96   1
   3   4  -7 103284. 4829.56  13
  -3  -4   7 102956. 3866.19   1
   3   4  -6 94826.7 4720.06  13
  -3  -4   6 98225.5 3477.75   1
   3   4  -6 100753. 3576.95  16
   3   4  -5 237.997 210.690  16
   3   4  -5-15.2741 186.737  10
  -3  -4   5 131.613 55.2024   1
   3   4  -4 19818.0 1541.54   7
  -3  -4   4 20246.0 1343.61   1
   3   4  -4 17117.2 1602.07  10
   3   4  -4 19447.0 1401.07  16
   3   4  -3 71541.9 2906.58  16
   3   4  -3 62803.8 2755.48  14
   3   4  -3 60555.2 2846.15   7
   3   4  -3 49003.2 2534.86   6
  -3  -4   3 64943.2 2592.71   1
   3   4  -3 54954.0 3195.16  10
   3   4  -2 64340.8 3709.17  10
   3   4  -2 73397.7 3053.77  14
  -3  -4   2 71761.4 2811.66   1
   3   4  -2 67913.6 3089.77   7
   3   4  -2 60324.2 2889.15   6
   3   4  -1 29344.5 1873.23  14
   3   4  -1 28886.6 1957.44   7
  -3  -4   1 30560.2 1741.79   1
   3   4  -1 28100.7 1890.68   6
   3   4  -1 23306.2 2337.14  10
   3   4   0 2125.39 505.179  14
   3   4   0 1938.10 541.893   7
   3   4   0 2225.04 553.314   6
   3   4   0 1132.57 534.426  10
   3   4   1 15762.5 1489.74  14
   3   4   1 13883.2 1452.59   7
   3   4   1 16471.0 1582.42   6
   3   4   1 14163.0 1960.54  10
   3   4   2 54933.3 3167.28  14
   3   4   2 59269.5 3229.42   7
   3   4   2 65416.0 3508.47   6
   3   4   2 71023.1 4371.44  10
   3   4   3 52452.0 3309.87  14
   3   4   3 56543.8 3222.60   7
   3   4   3 63860.3 3662.41   6
   3   4   3 68721.8 4044.65  10
   3   4   4 36762.8 2739.70  10
   3   4   4 31265.4 2288.23   7
   3   4   4 33757.9 2695.81   6
   3   4   5 4627.54 823.552   7
   3   4   5 5230.60 923.657  10
   3   4   5 5285.42 1079.01   6
   3   4   6 25149.1 2251.69   6
   3   4   7 24206.9 2068.42   6
   3   4   8 20534.0 1715.15   6
   3   4   9 18382.1 1427.66   6
   3   4  10 617.980 219.366   6
   3   5 -16 25465.2 1278.86  12
   3   5 -16 26470.4 1439.26   9
   3   5 -15 33597.3 1945.10   9
   3   5 -15 30425.2 1654.51  12
   3   5 -14 5999.65 785.487  12
   3   5 -13 3898.88 677.910  12
   3   5 -12 42907.0 2442.25  13
   3   5 -12 45676.2 2641.45  12
   3   5 -11 35387.5 2380.50  13
   3   5 -11 35110.4 2389.85  12
   3   5 -10 28358.0 2280.17  13
   3   5 -10 27074.5 2134.80  12
   3   5  -9 9092.16 1292.98  13
   3   5  -8 11959.2 1546.25  13
   3   5  -7 15060.4 1398.98   9
   3   5  -7 18272.4 1529.17  10
   3   5  -7 14156.5 1331.60  16
   3   5  -6 62942.5 4163.54  13
   3   5  -6 63553.9 3129.34  10
   3   5  -6 52230.6 2671.77  16
   3   5  -5 36592.6 2160.28  16
   3   5  -5 40476.0 2585.82  10
   3   5  -5 39583.4 3453.16  13
   3   5  -4 524.154 238.651  16
   3   5  -4 854.790 313.219   7
   3   5  -4 1078.93 202.761  13
   3   5  -4 626.869 348.536  10
   3   5  -4 1090.91 328.695   6
   3   5  -3 16556.7 1501.58   7
   3   5  -3 12864.5 1244.73   6
   3   5  -3 14959.0 1720.55  10
   3   5  -2 85393.1 3658.75  14
   3   5  -2 84867.4 5564.78  13
   3   5  -2 92961.5 3816.58   6
   3   5  -2 87221.3 4815.67  10
   3   5  -1 8432.19 1058.34  14
   3   5  -1 10332.3 1238.24   7
   3   5  -1 9903.72 1706.11  13
   3   5  -1 7314.85 1396.13  10
   3   5  -1 9587.72 1161.76   6
   3   5   0 7093.30 1049.70   7
   3   5   0 7223.37 1040.36   6
   3   5   0 5394.33 889.539  14
   3   5   0 6343.32 1291.24  10
   3   5   1 2148.55 630.777  14
   3   5   1 2535.65 679.237   7
   3   5   1 2047.21 606.100   6
   3   5   1 2235.65 747.835  10
   3   5   2 18151.4 2076.38  10
   3   5   2 16314.3 1663.59   7
   3   5   2 16248.5 1739.17   6
   3   5   3 66385.5 3525.88   7
   3   5   3 63910.8 3780.71   6
   3   5   3 76088.2 4034.41  10
   3   5   4 46757.5 2833.79  10
   3   5   4 45635.0 2684.60   7
   3   5   4 41665.1 2993.61   6
   3   5   5 6879.83 889.164   7
   3   5   5 7268.19 1145.71   6
   3   5   5 5480.70 803.761  10
   3   5   6 2680.07 633.731   6
   3   5   7 18131.9 1518.19   6
   3   5   8 23757.5 1516.99   6
   3   5   9 14513.3 962.700   6
   3   6 -16 7076.09 544.534  12
   3   6 -16 7924.72 634.931   9
   3   6 -15 23712.2 1274.35  12
   3   6 -15 26092.3 1537.15   9
   3   6 -14 18223.9 1503.94   9
   3   6 -14 16054.5 1164.55  12
   3   6 -13 3051.19 515.582  13
   3   6 -13 3949.86 649.414  12
   3   6 -13 4080.01 807.924   9
   3   6 -12 9232.07 1305.76   9
   3   6 -12 11257.5 1155.76  13
   3   6 -12 12330.6 1218.55  12
   3   6 -11 39303.5 2486.80  13
   3   6 -11 40588.6 2432.30  12
   3   6 -10 55087.7 3192.94   9
   3   6 -10 59784.4 3344.56  13
   3   6 -10 58391.8 3177.65  12
   3   6  -9 42558.0 2590.94   9
   3   6  -9 48898.2 3203.92  13
   3   6  -9 43865.4 2843.32  12
   3   6  -8 2067.31 745.694  13
   3   6  -8 1282.05 503.692  12
   3   6  -8 1279.72 386.203  10
   3   6  -7 8490.44 1577.92  13
   3   6  -7 5645.90 1009.77  12
   3   6  -7 7390.07 1002.83  10
   3   6  -6 19968.1 2471.43  13
   3   6  -6 20237.0 1763.46  10
   3   6  -5 25405.9 2959.85  13
   3   6  -5 29239.2 2296.59  10
   3   6  -4 15278.1 1733.07  10
   3   6  -4 11439.7 2075.97  13
   3   6  -3 258.824 188.130  10
   3   6  -3 1180.43 689.513  13
   3   6  -3 1016.73 405.378   7
   3   6  -3 1242.51 405.898   6
   3   6  -2 40906.0 2617.49   7
   3   6  -2 38014.9 3324.96  13
   3   6  -2 38650.4 2327.75   6
   3   6  -2 33607.8 3018.87  10
   3   6  -1 8604.81 1579.75  10
   3   6  -1 10562.8 1331.06   7
   3   6  -1 8705.57 1353.50  13
   3   6  -1 10443.4 1236.34   6
   3   6   0 8939.75 1228.74   7
   3   6   0 9073.22 1187.61   6
   3   6   0 8060.54 1446.58  10
   3   6   1 4381.31 871.610   7
   3   6   1 4052.00 814.247   6
   3   6   1 4117.19 922.753  10
   3   6   2 93.5798 241.150   7
   3   6   2 93.8096 246.395   6
   3   6   2 428.586 290.062  10
   3   6   3 9425.48 1124.87   7
   3   6   3 8232.17 1176.39   6
   3   6   3 10376.9 1223.67  10
   3   6   4 32886.8 1911.61   7
   3   6   4 29287.6 2210.52   6
   3   6   4 28470.5 1778.86  10
   3   6   5 1919.09 361.877   7
   3   6   5 2564.09 601.846   6
   3   6   6 2382.58 460.929   6
   3   6   7 9184.72 773.393   6
   3   7 -14 20739.0 1285.11   9
   3   7 -14 21905.1 1147.10  12
   3   7 -13 2425.71 403.413  13
   3   7 -13 2882.56 455.301  12
   3   7 -13 2416.50 481.119   9
   3   7 -12-231.165 250.324  13
   3   7 -12-71.5629 173.622   9
   3   7 -12 225.010 140.335  12
   3   7 -11 7812.99 965.536   9
   3   7 -11 10377.3 1138.24  13
   3   7 -11 9657.31 1049.26  12
   3   7 -10 18982.2 1482.05   9
   3   7 -10 21803.5 1717.27  12
   3   7  -9 44862.8 3003.05  13
   3   7  -9 36976.5 1946.46  10
   3   7  -8 630.808 257.234  10
   3   7  -8 512.252 366.520  13
   3   7  -7 357.797 382.758  13
   3   7  -7 696.261 332.635  10
   3   7  -6 18112.8 2363.62  13
   3   7  -6 20133.8 1737.80  10
   3   7  -5 52592.0 4244.50  13
   3   7  -5 60724.1 3406.00  10
   3   7  -4 45797.4 3739.09  13
   3   7  -4 47783.6 3198.45  10
   3   7  -3 3127.47 820.127  10
   3   7  -3 3805.35 1012.40  13
   3   7  -2 27005.7 2195.65  13
   3   7  -2 27253.0 2591.26  10
   3   7  -1 29387.0 1981.37   6
   3   7  -1 32689.4 2781.07  10
   3   7   0 41424.3 2563.43   7
   3   7   0 33289.2 2208.78   6
   3   7   0 40366.4 2854.73  10
   3   7   1 21671.5 1724.94   7
   3   7   1 17807.9 1594.24   6
   3   7   1 22210.9 1848.78  10
   3   7   2 1518.21 411.134   7
   3   7   2 919.838 295.554   6
   3   7   2 1277.11 354.054  10
   3   7   3 9457.92 866.468   7
   3   7   3 6838.98 862.870   6
   3   7   4 15914.8 1153.43   6
   3   8 -12 2714.38 449.991  13
   3   8 -11 4710.39 674.132  13
   3   8 -10 28501.9 1949.29  13
   3   8  -9 52588.0 2976.56  13
   3   8  -9 34413.7 1674.44  10
   3   8  -8 17892.6 1927.70  13
   3   8  -8 16211.0 1219.50  10
   3   8  -7 280.578 213.215  10
   3   8  -7-277.972 456.938  13
   3   8  -6 5797.85 1160.88  13
   3   8  -6 7134.70 964.605  10
   3   8  -5 19316.4 1974.05  13
   3   8  -5 18653.5 1680.73  10
   3   8  -4 22085.6 1858.16  13
   3   8  -4 23440.6 2017.65  10
   3   8  -3 6881.47 1052.03  10
   3   8  -2 2818.62 643.718  10
   3   8  -1 11666.4 1245.49  10
   3   8   0 8831.20 942.195  10
   3   8   1 11481.7 874.144  10
   3   9 -10 1991.24 389.341  13
   3   9  -9 15660.0 1306.46  13
   3   9  -8 8676.49 1000.30  13
   3   9  -7 9884.75 1052.16  13
   3   9  -7 10299.0 899.689  10
   3   9  -6 203.039 157.306  10
   3   9  -5 6952.63 843.843  10
   3   9  -4 25020.2 1674.40  10
   3   9  -3 11238.2 1018.81  10
  -4  12  -3 8996.41 968.480   5
  -4  12  -4 32370.4 2106.33   5
  -4  12  -5 30693.1 2221.76   5
  -4  12  -6 12714.0 1483.11   5
  -4  12  -7 3094.79 684.638   5
  -4  12  -7 3307.89 485.561   4
  -4  12  -8 15854.5 1088.09   4
  -4  12  -8 18240.4 1584.94   5
  -4  12  -9 13879.6 978.313   4
  -4  11   2-59.0806 80.9072   8
  -4  11   1 8575.27 981.927   8
  -4  11   0 56224.0 2988.44   8
  -4  11   0 44596.3 2288.68   5
  -4  11  -1 17823.0 1478.02   5
  -4  11  -1 20602.7 1993.68   8
  -4  11  -2 3008.74 645.475   5
  -4  11  -2 2860.63 834.697   8
  -4  11  -3 1199.81 469.749   5
  -4  11  -3 242.767 263.901   8
  -4  11  -4 20265.4 2212.09   8
  -4  11  -4 22557.4 1481.76   4
  -4  11  -4 23215.8 2047.05   5
  -4  11  -5 54445.6 2499.68   4
  -4  11  -5 60626.7 3648.63   5
  -4  11  -6 31612.3 2727.40   5
  -4  11  -6 30916.0 1894.61   4
  -4  11  -7 407.618 434.520   5
  -4  11  -7 340.666 239.398   4
  -4  11  -8 7961.80 962.936   4
  -4  11  -8 7889.06 1278.95   5
  -4  11  -9 19197.7 1516.64   4
  -4  11  -9 21009.5 1833.62   5
  -4  11 -10 20435.8 1501.12   4
  -4  11 -10 19524.7 1434.94   5
  -4  11 -11 20771.0 1369.72   4
  -4  11 -12 172.722 111.075   4
  -4  10   5 17504.4 1168.49   7
  -4  10   4 31521.3 1775.73   8
  -4  10   4 25428.7 1690.24   7
  -4  10   3 18436.9 1531.41   8
  -4  10   3 13502.7 1339.01   7
  -4  10   2 1702.95 544.656   8
  -4  10   2 898.493 341.004   7
  -4  10   2 1135.32 390.757   5
  -4  10   1 5508.74 974.367   8
  -4  10   1 4626.21 765.446   7
  -4  10   1 5886.28 853.541   5
  -4  10   0 45921.8 3212.16   8
  -4  10   0 36495.8 2193.78   7
  -4  10   0 45333.8 2579.12   5
  -4  10  -1 38534.5 2456.21   5
  -4  10  -1 42407.8 3333.70   8
  -4  10  -2 27722.0 2955.98   8
  -4  10  -2 25967.7 1724.27   4
  -4  10  -2 29134.6 2590.46  10
  -4  10  -2 25948.2 2101.78   5
  -4  10  -3 1852.23 618.521   5
  -4  10  -3 1276.43 556.033   8
  -4  10  -3 2155.56 455.756   4
  -4  10  -3 2932.74 870.579  10
  -4  10  -4 10545.2 1454.84   5
  -4  10  -4 11765.2 1971.61   8
  -4  10  -4 12269.2 1216.71   4
  -4  10  -4 16052.0 1916.05  10
  -4  10  -5 68185.3 4113.17   5
  -4  10  -5 58176.8 3972.79   8
  -4  10  -5 65530.9 3129.21   4
  -4  10  -6 100526. 5340.77   5
  -4  10  -6 102288. 4195.72   4
  -4  10  -7 12323.0 1769.94   5
  -4  10  -7 13369.2 1411.41   4
  -4  10  -7 15444.5 1773.68  13
  -4  10  -8 1323.62 576.161   5
  -4  10  -8 2946.26 651.512   4
  -4  10  -9 28341.9 2336.36   5
  -4  10  -9 27861.7 2164.25   4
  -4  10 -10 46299.8 2611.52   5
  -4  10 -10 44008.6 2669.60   4
  -4  10 -11 28708.4 1962.09   4
  -4  10 -12 7194.42 839.720   4
  -4  10 -13 348.957 155.672   4
  -4   9   7 19165.6 1275.55   7
  -4   9   6 9.76862 90.0146   8
  -4   9   6 42.8480 146.561   7
  -4   9   5 2736.30 657.855   8
  -4   9   5 2441.88 621.424   7
  -4   9   4 17036.6 1604.72   8
  -4   9   4 13360.7 1549.49   7
  -4   9   3 35071.4 2450.21   8
  -4   9   3 26594.5 2303.25   7
  -4   9   2 9771.50 1387.27   8
  -4   9   2 9219.78 1292.42   7
  -4   9   2 10939.0 1216.27   5
  -4   9   1 427.185 262.202   5
  -4   9   1 841.221 483.819   8
  -4   9   1 395.723 257.954   7
  -4   9   0 62295.3 4007.39   8
  -4   9   0 54504.8 2887.59   7
  -4   9   0 65857.7 3645.73  10
  -4   9   0 61403.8 3209.01   5
  -4   9  -1 55753.2 2721.75   4
  -4   9  -1 58072.2 4110.71   8
  -4   9  -1 52126.6 3000.01   5
  -4   9  -1 63700.9 3746.11  10
  -4   9  -2 64083.9 3454.46   5
  -4   9  -2 68508.7 4779.47   8
  -4   9  -2 68347.0 3106.49   4
  -4   9  -2 74356.3 4253.87  10
  -4   9  -3 21597.0 2780.49   8
  -4   9  -3 27054.6 1868.33   4
  -4   9  -3 25610.4 2190.72   5
  -4   9  -3 27817.5 2482.25  10
  -4   9  -4 380.816 316.096   5
  -4   9  -4 877.762 414.403  13
  -4   9  -4 1254.94 427.412   4
  -4   9  -4 756.305 177.441  10
  -4   9  -5 47692.5 3721.16   8
  -4   9  -5 52551.9 2866.85   4
  -4   9  -5 56304.6 3653.80  13
  -4   9  -5 47974.4 3416.62   5
  -4   9  -5 54247.2 3374.22  10
  -4   9  -6 37359.8 3082.99   5
  -4   9  -6 40934.9 2635.67   4
  -4   9  -6 43529.9 3189.31  13
  -4   9  -6 44974.2 2987.68  10
  -4   9  -7 20242.6 2280.46   5
  -4   9  -7 24030.2 2030.49   4
  -4   9  -7 26052.6 2367.71  13
  -4   9  -8 2164.50 616.936   4
  -4   9  -8 2956.40 759.914  13
  -4   9  -8 1926.23 490.892  11
  -4   9  -8 3232.04 898.279   5
  -4   9  -9 4674.19 842.045  13
  -4   9  -9 3033.49 758.074   4
  -4   9  -9 3689.17 825.752   5
  -4   9  -9 3221.67 702.156  11
  -4   9 -10 43760.2 2609.69   5
  -4   9 -10 38544.5 2671.06   4
  -4   9 -10 36597.9 2512.69  11
  -4   9 -11 30111.9 2195.43   4
  -4   9 -11 27234.5 2143.03  11
  -4   9 -12 10867.5 1160.18   4
  -4   9 -12 8737.45 1121.43  11
  -4   9 -13 2271.74 427.654   4
  -4   9 -13 2243.85 507.172  11
  -4   9 -14 3458.47 540.857  11
  -4   9 -14 2617.47 374.804   4
  -4   9 -15 20371.9 1107.90  11
  -4   8   9 4644.78 578.867   7
  -4   8   8 9607.63 1005.62   7
  -4   8   7 26837.3 1708.47   8
  -4   8   7 34927.8 2279.32   7
  -4   8   6 18439.2 1597.83   8
  -4   8   6 17410.7 1610.73   3
  -4   8   6 18086.6 1831.40   7
  -4   8   5 265.646 235.166   7
  -4   8   5 560.300 395.636   3
  -4   8   5 959.659 417.915   8
  -4   8   4 7576.55 1195.56   8
  -4   8   4 6294.49 1242.07   7
  -4   8   4 7398.91 1224.17   3
  -4   8   3 24561.7 2198.17   8
  -4   8   3 21216.5 2187.68   7
  -4   8   3 23839.0 2361.50   3
  -4   8   2 12280.6 1591.21   8
  -4   8   2 13662.3 1379.03   5
  -4   8   2 12530.8 1553.76   7
  -4   8   2 11801.0 1721.79   3
  -4   8   1 837.380 464.367   8
  -4   8   1 1101.71 305.310   5
  -4   8   1 485.460 251.839   7
  -4   8   1 59.9111 335.430   3
  -4   8   1 288.756 206.541  17
  -4   8   0 19763.1 1683.49   5
  -4   8   0 20631.8 2189.95   8
  -4   8   0 21600.0 1630.52   4
  -4   8   0 15614.5 1440.26   7
  -4   8   0 16474.6 1908.15   3
  -4   8   0 21694.1 2051.19  10
  -4   8   0 14656.7 1457.08  17
  -4   8  -1 55291.2 2651.43   4
  -4   8  -1 51129.5 3690.47   8
  -4   8  -1 48764.1 2750.72   5
  -4   8  -1 35558.7 2572.34   3
  -4   8  -1 53824.0 3411.55  10
  -4   8  -1 36987.7 2428.88  17
  -4   8  -2 98270.7 3767.24   4
  -4   8  -2 87025.2 5209.85   8
  -4   8  -2 85137.6 4064.76  13
  -4   8  -2 96326.0 4638.67  10
  -4   8  -2 90823.8 4022.06   5
  -4   8  -3 74855.1 3247.29   4
  -4   8  -3 70726.3 3860.07  13
  -4   8  -3 71795.5 3925.15  10
  -4   8  -3 63399.2 3712.47  17
  -4   8  -4-156.315 191.987   8
  -4   8  -4 201.383 86.3061   4
  -4   8  -4 1258.62 557.749  13
  -4   8  -4 960.215 516.064  10
  -4   8  -4 472.044 380.332  17
  -4   8  -5 33175.4 3026.01   8
  -4   8  -5 43719.4 2536.84   4
  -4   8  -5 41426.3 3055.43  13
  -4   8  -5 31935.5 1991.06  11
  -4   8  -5 44762.0 2831.12  10
  -4   8  -5 35491.6 3017.40  17
  -4   8  -6 115137. 4620.70   4
  -4   8  -6 116921. 5264.87  13
  -4   8  -6 95205.0 3959.91  11
  -4   8  -6 116194. 4851.74  10
  -4   8  -6 90387.9 5143.67  17
  -4   8  -7 97423.4 4417.75   4
  -4   8  -7 98501.9 4204.70  11
  -4   8  -7 88319.3 4844.58  17
  -4   8  -8 34660.1 2533.46  13
  -4   8  -8 28012.6 2286.44   4
  -4   8  -8 30699.9 2323.63  11
  -4   8  -9 1315.52 469.202  13
  -4   8  -9 857.695 307.732   4
  -4   8  -9 672.287 297.207  11
  -4   8  -9 1435.68 461.320  12
  -4   8 -10 50948.8 2889.62   5
  -4   8 -10 54428.6 3220.01   4
  -4   8 -10 55270.0 2954.23  12
  -4   8 -10 59328.6 3599.98  11
  -4   8 -11 37369.0 2479.88   4
  -4   8 -11 38615.1 2869.83  11
  -4   8 -12 24675.7 1819.89   4
  -4   8 -12 25536.6 2178.48  11
  -4   8 -13 8800.96 921.308   4
  -4   8 -13 10670.9 1273.72  11
  -4   8 -14 490.331 287.067  11
  -4   8 -15 12406.9 1021.49  11
  -4   8 -16 33319.4 1422.73  11
  -4   7  11 17851.0 1044.86   7
  -4   7  10 3870.74 591.950   7
  -4   7   9 4553.30 742.369   7
  -4   7   8 12125.9 1280.37   3
  -4   7   8 13614.9 1475.71   7
  -4   7   7 45932.8 2645.09   8
  -4   7   7 49988.2 2862.33   3
  -4   7   6 13894.9 1512.48   8
  -4   7   6 15037.0 1597.65   3
  -4   7   6 17392.1 1996.22   7
  -4   7   5 6893.62 1129.52   8
  -4   7   5 6246.04 1068.41   3
  -4   7   5 6236.55 1229.27   7
  -4   7   4 12727.2 1800.11   7
  -4   7   4 16389.5 1894.09   3
  -4   7   4 15029.1 1648.53   8
  -4   7   3 90843.7 4353.39   8
  -4   7   3 98659.0 5088.30   3
  -4   7   2 112472. 4194.32   5
  -4   7   2 121066. 5078.14   8
  -4   7   2 118796. 4977.01   7
  -4   7   2 124876. 5985.89   3
  -4   7   1 64566.6 3276.43   7
  -4   7   1 61935.1 4137.11   3
  -4   7   1 63366.6 2907.64  17
  -4   7   1 70745.8 3202.27   5
  -4   7   0 8371.65 1343.74   3
  -4   7   0 9412.23 1381.69   8
  -4   7   0 9448.64 1317.06  10
  -4   7   0 8138.30 982.960  17
  -4   7   0 11934.0 1136.34   4
  -4   7  -1 6697.36 968.697  17
  -4   7  -1 7540.19 1271.45   8
  -4   7  -1 8253.37 940.476   4
  -4   7  -1 7235.77 1168.72  10
  -4   7  -2 52431.5 3728.78   8
  -4   7  -2 64750.4 2834.98   4
  -4   7  -2 52688.7 3132.90  13
  -4   7  -2 60365.6 3249.97  17
  -4   7  -2 57978.0 3284.50  10
  -4   7  -3 99673.5 3772.84   4
  -4   7  -3 90967.8 4447.79  13
  -4   7  -3 99500.4 4355.51  10
  -4   7  -3 97980.7 4611.21  17
  -4   7  -4 4525.99 1118.48   8
  -4   7  -4 6646.15 925.654   4
  -4   7  -4 6492.47 1158.12  13
  -4   7  -4 4780.42 693.652  11
  -4   7  -4 6520.97 994.522  10
  -4   7  -4 7029.08 1234.86  17
  -4   7  -5 30025.3 2033.60   4
  -4   7  -5 29170.1 2428.62  13
  -4   7  -5 25821.1 1797.12  11
  -4   7  -5 30175.2 2164.95  10
  -4   7  -5 25310.5 2419.81  17
  -4   7  -6 10185.1 1493.02  17
  -4   7  -6 11523.5 1454.33  13
  -4   7  -6 10206.5 1203.68   4
  -4   7  -6 10372.5 1213.54  11
  -4   7  -6 11063.0 1292.39  10
  -4   7  -7 34471.4 2458.71  13
  -4   7  -7 29770.1 2195.76   4
  -4   7  -7 34104.4 2388.97  11
  -4   7  -7 33797.2 2589.62  17
  -4   7  -8 24017.3 2029.97  17
  -4   7  -8 28605.2 2162.11  13
  -4   7  -8 22554.4 1829.54  12
  -4   7  -8 26750.2 2279.93  11
  -4   7  -9 33059.7 2228.42  13
  -4   7  -9 28118.9 2069.05  12
  -4   7  -9 33061.8 2632.52  11
  -4   7 -10 4856.81 797.396  12
  -4   7 -10 5164.91 1079.80  11
  -4   7 -11 5129.03 857.554  12
  -4   7 -11 4623.35 998.509  11
  -4   7 -12 9442.74 1057.64   4
  -4   7 -12 10271.3 1160.77  12
  -4   7 -12 12028.8 1523.50  11
  -4   7 -13 19326.1 1806.62  11
  -4   7 -14 4342.27 756.548  11
  -4   7 -15 5067.71 709.155  11
  -4   7 -16 35468.5 1632.00  11
  -4   6  12 14637.7 1019.26   7
  -4   6  11 57723.2 2604.20   7
  -4   6  10 20512.6 1551.86   3
  -4   6  10 21842.5 1698.85   7
  -4   6   9 1129.72 355.642   3
  -4   6   8 293.782 212.809   3
  -4   6   7 7899.94 1155.75   3
  -4   6   7 6092.01 989.442   8
  -4   6   6 40080.8 2650.22   8
  -4   6   6 43160.4 2881.71   3
  -4   6   5 28305.1 2214.03   8
  -4   6   5 30268.0 2449.72   3
  -4   6   4 2706.20 667.296   8
  -4   6   4 2986.72 713.637   3
  -4   6   3 30645.1 2261.79   8
  -4   6   2 89562.1 4055.58   8
  -4   6   2 84391.1 3168.81  17
  -4   6   1 76200.3 3037.56   4
  -4   6   1 66558.5 3513.01   8
  -4   6   1 70892.8 2931.47  17
  -4   6   0 34745.7 2036.04  17
  -4   6  -1 3497.11 657.084  17
  -4   6  -2 52682.0 2982.16  17
  -4   6  -3 218634. 7480.61  17
  -4   6  -4 108938. 5088.78  17
  -4   6  -5 23848.2 2195.58  17
  -4   6  -5 19511.8 1827.86  13
  -4   6  -6 5128.43 892.297  13
  -4   6  -6 5057.00 840.396  11
  -4   6  -6 5146.75 973.910  17
  -4   6  -7 35413.3 2331.65   9
  -4   6  -7 48618.4 2857.42  17
  -4   6  -7 44899.7 2657.76  13
  -4   6  -7 35337.9 2254.43  12
  -4   6  -7 44208.6 2808.66  11
  -4   6  -8 37559.5 2467.22   9
  -4   6  -8 47114.5 2643.27  13
  -4   6  -8 40380.4 2507.55  12
  -4   6  -8 48012.4 3102.50  11
  -4   6  -8 44075.4 2573.97  17
  -4   6  -9 39243.1 2525.60   9
  -4   6  -9 34304.6 2149.36  17
  -4   6  -9 48604.6 2749.04  12
  -4   6  -9 50897.2 3294.15  11
  -4   6 -10 1310.78 418.861   9
  -4   6 -10 1364.05 459.406  12
  -4   6 -10 1913.35 623.720  11
  -4   6 -11 12312.3 1332.46  12
  -4   6 -11 12387.3 1638.37  11
  -4   6 -12 22284.5 1749.54  12
  -4   6 -12 24543.1 2224.36  11
  -4   6 -13 47362.5 2943.11  11
  -4   6 -14 17169.6 1538.82  11
  -4   6 -15 203.217 137.732  11
  -4   6 -16 9072.16 786.486  11
  -4   5  13 4777.26 576.247   7
  -4   5  11 71083.7 3080.96   3
   4  -5 -10 24868.4 1602.83  15
  -4   5  10 29133.2 2054.52   3
  -4   5   9 987.428 384.511   3
   4  -5  -9 1109.17 385.793  15
   4  -5  -8 2734.39 568.721  15
  -4   5   8 3345.27 710.387   3
  -4   5   7 45576.8 2914.16   3
  -4   5   6 43616.2 2663.97   8
  -4   5   5 81698.1 3751.00   8
  -4   5   4 12508.2 1306.00   8
  -4   5   3 2106.30 374.121  17
  -4   5   2 119132. 3803.68  17
  -4   5   1 150328. 4604.59  17
  -4   5   0 87053.5 3436.26  17
  -4   5  -1 4316.84 732.937  17
  -4   5  -2 96148.3 4265.98  17
  -4   5  -3 252414. 8206.71  17
  -4   5  -4 276572. 8824.91  17
  -4   5  -5 29625.0 2326.44  17
  -4   5  -6 190.146 112.534  17
  -4   5  -7 18851.2 1607.37  12
  -4   5  -7 21998.1 1951.39  11
  -4   5  -7 24343.8 1812.39  17
  -4   5  -8 35176.3 2103.05  17
  -4   5  -8 35272.2 2303.79  12
  -4   5  -8 38463.8 2744.00  11
  -4   5  -9 63174.9 3120.89  12
  -4   5  -9 57733.6 3450.08  11
  -4   5 -10 38266.4 2610.33  15
  -4   5 -10 46790.1 2683.38  12
  -4   5 -10 44286.3 3047.67  11
  -4   5 -11 3001.99 655.043  12
  -4   5 -11 2928.00 751.672  11
  -4   5 -11 2940.23 683.018  15
  -4   5 -12 13237.5 1442.83  15
  -4   5 -12 14620.7 1635.47  11
  -4   5 -13 81449.0 3660.57  15
  -4   5 -13 92783.9 4123.05  11
  -4   5 -14 44792.7 2478.35  11
  -4   5 -14 36718.1 2125.20  15
  -4   5 -15 4910.07 614.609  15
  -4   5 -15 6637.66 802.457  11
  -4   5 -16 1692.11 307.030  11
  -4   4  14 16954.0 1093.09   7
   4  -4 -13 8160.87 764.241  15
   4  -4 -12 3157.01 546.132  15
  -4   4  12 2263.43 446.387   3
   4  -4 -11 36452.5 2100.88  15
  -4   4  11 35558.1 2240.59   3
   4  -4 -10 22240.4 1691.81  15
  -4   4  10 21532.5 1870.48   3
   4  -4  -9 5872.80 876.934  15
  -4   4   8 161.011 102.451   1
   4  -4  -8 186.873 207.015  15
   4  -4  -7 4557.86 767.744  15
  -4   4   7 3862.39 692.879   1
  -4   4   6 43481.6 2408.31   1
  -4   4   5 52741.3 2523.88   1
  -4   4   4 11157.0 975.705   1
  -4   4   4 10288.5 801.835  17
  -4   4   3 1386.75 317.792  17
  -4   4   3 1166.56 280.745   1
  -4   4   2 42559.4 1652.25   1
  -4   4   2 48097.8 2062.69  17
  -4   4   1 313294. 7742.82  17
  -4   4   1 300667. 6663.63   1
  -4   4   0 136992. 4542.89  17
  -4   4   0 124572. 3204.30   1
  -4   4  -1 8545.52 584.973   1
  -4   4  -1 10901.0 1236.22  17
  -4   4  -2 1128.13 385.704  17
  -4   4  -3 8819.12 1223.86  17
  -4   4  -4 175455. 6195.96  17
  -4   4  -5 192638. 6350.20  17
  -4   4  -6 574.392 249.946  17
  -4   4  -7 9038.51 989.480  17
  -4   4  -8 26485.0 2037.73  15
  -4   4  -8 32461.2 2142.69  12
  -4   4  -8 31686.0 2412.53  11
  -4   4  -8 30177.0 1818.50  17
  -4   4  -9 22318.7 1931.16  15
  -4   4  -9 25470.2 1900.81  12
  -4   4 -10 78903.0 3924.19  15
  -4   4 -10 79726.1 3619.54  12
  -4   4 -10 88130.1 4260.24  11
  -4   4 -11 624.822 297.836  15
  -4   4 -11 805.866 434.747  11
  -4   4 -12 4509.48 864.872  15
  -4   4 -12 5418.26 948.026  11
  -4   4 -13 55870.8 3003.83  15
  -4   4 -13 58887.8 3041.00  11
  -4   4 -14 39473.5 2253.35  15
  -4   4 -14 39900.1 2200.06  11
  -4   4 -15 12485.3 1062.54  15
  -4   4 -15 12307.3 973.395  11
  -4   4 -16 597.008 185.262  15
   4  -3 -15 10805.5 720.294  15
  -4   3  15 11519.5 808.711   7
   4  -3 -14 35879.7 1713.24  15
   4  -3 -13 28341.0 1721.15  15
   4  -3 -12 13926.0 1260.97  15
  -4   3  12 12457.8 1197.34   3
   4  -3 -11 10865.7 1213.12  15
  -4   3  11 10360.1 1228.10   3
   4  -3 -10 64012.9 3101.31  15
  -4   3  10 35512.4 2622.39   1
   4  -3  -9 51958.8 2848.93  15
  -4   3   9 42684.1 2800.85   1
  -4   3   8 22998.2 1964.29   1
   4  -3  -8 27310.9 1971.43  15
  -4   3   7 4580.72 807.404   1
  -4   3   6 10122.5 1088.34   1
  -4   3   5 39897.0 2002.62   1
  -4   3   4 79949.1 2685.63  17
  -4   3   4 96735.2 3038.06   1
  -4   3   3 129227. 3905.08  17
  -4   3   3 141365. 3785.54   1
  -4   3   2 12449.9 818.057   1
  -4   3   2 11007.7 985.991  17
  -4   3   1 167371. 4221.72   1
  -4   3   1 167756. 5252.19  17
  -4   3   0 170342. 4227.85   1
  -4   3   0 176024. 5844.52  17
   4  -3   1 105949. 2793.61  14
   4  -3   1 105015. 2744.70  16
  -4   3  -1 113989. 4723.50  17
   4  -3   2 851.575 173.845  14
  -4   3  -2 794.474 337.455  17
   4  -3   3 4153.82 430.893  14
  -4   3  -3 5147.86 925.936  17
   4  -3   4 85044.8 2762.61  14
  -4   3  -4 102414. 4079.36  17
  -4   3  -5 147735. 4906.50  17
   4  -3   5 133732. 4147.30  14
  -4   3  -6 42572.0 2258.31  17
   4  -3   6 40984.5 2125.42  14
  -4   3  -7 9482.53 955.836  17
   4  -3   7 8687.81 1040.00  14
  -4   3  -8 1061.06 407.237  15
   4  -3   8 1163.18 442.818  14
  -4   3  -8 1442.93 467.235  11
  -4   3  -9 4403.50 855.969  15
   4  -3   9 3551.62 746.871  14
  -4   3  -9 4891.60 934.566  11
  -4   3 -10 56339.1 3225.29  15
  -4   3 -10 55805.9 3181.79  11
  -4   3 -11 39757.2 2666.88  15
  -4   3 -11 42447.5 2654.32  11
  -4   3 -12 250.683 230.827  15
  -4   3 -12 181.572 138.137  11
  -4   3 -13 43185.1 2539.99  15
  -4   3 -13 37364.7 2155.88  11
  -4   3 -14 69548.2 3082.51  15
  -4   3 -15 38202.2 1925.12  15
  -4   3 -16 3255.06 419.781  15
   4  -2 -15 8806.74 757.588  15
   4  -2 -14 22873.0 1469.88  15
   4  -2 -13 25392.1 1714.41  15
   4  -2 -12 8741.75 1061.35  15
   4  -2 -11 972.033 364.407  15
  -4   2  10 15515.1 1755.32   1
   4  -2 -10 21151.5 1775.87  15
  -4   2   9 45623.0 2966.48   1
   4  -2  -9 45912.4 2642.77  15
   4  -2  -9 36877.1 2485.32   2
  -4   2   8 69195.2 3445.28   1
   4  -2  -8 52795.2 2912.68   2
  -4   2   7 6868.57 906.946   1
  -4   2   6 13298.3 1162.13   1
  -4   2   5 25426.1 1290.42  17
  -4   2   5 32404.0 1652.79   1
  -4   2   4 180734. 4711.06   1
  -4   2   4 164491. 4680.45  17
  -4   2   3 164446. 4369.46   1
  -4   2   2 169345. 4390.54   1
  -4   2   1 278582. 6466.72   1
   4  -2   0 190279. 4658.35  14
   4  -2   1 203982. 4917.20  14
   4  -2   1 198291. 4800.97  16
   4  -2   2 43036.3 1727.23  14
   4  -2   2 44860.0 1717.51  16
   4  -2   3 46006.8 1916.00  14
   4  -2   4 32571.7 1734.45  14
   4  -2   5 216321. 6192.63  14
   4  -2   6 83045.7 3562.52  14
  -4   2  -6 81250.3 3198.98  17
  -4   2  -7 27640.3 2138.26  15
   4  -2   7 31171.8 2204.42  14
  -4   2  -7 28582.2 1675.23  17
  -4   2  -8 1833.70 547.865  15
   4  -2   8 2039.74 532.058  14
  -4   2  -8 1676.44 521.764  11
   4  -2   9 19887.1 1900.36  14
  -4   2  -9 17739.7 1682.20  11
  -4   2 -10 89422.1 4150.89  15
   4  -2  10 65183.0 3714.76  14
  -4   2 -11 24279.8 2041.00  15
  -4   2 -12 6268.11 975.416  15
  -4   2 -13 2591.08 581.899  15
  -4   2 -14 28047.9 1780.48  15
  -4   2 -15 38038.2 1794.24  15
   4  -1 -16 5884.61 562.406  15
   4  -1 -15 5064.82 618.579  15
   4  -1 -14 23002.8 1537.03  15
   4  -1 -13 19548.6 1577.85  15
   4  -1 -12 4030.58 739.513  15
  -4   1  11 1699.02 573.162   1
   4  -1 -11 2549.21 587.812  15
  -4   1  10 37213.3 2786.41   1
   4  -1 -10 39481.6 2460.00  15
   4  -1 -10 38759.5 2771.89   2
  -4   1   9 86909.6 4099.35   1
   4  -1  -9 80738.1 3949.69   2
  -4   1   8 135705. 4872.80   1
   4  -1  -8 113639. 4656.53   2
  -4   1   7 6268.24 828.430   1
  -4   1   6 588.927 211.106   1
  -4   1   5 15374.0 1103.87   1
  -4   1   4 129420. 3812.83   1
  -4   1   3 235836. 5867.98   1
  -4   1   2 177019. 4658.69   1
   4  -1  -1 3814.17 472.019  14
   4  -1   0 110948. 3204.18  16
   4  -1   0 115027. 3362.22  14
   4  -1   1 413876. 9343.32  14
   4  -1   1 414586. 9126.15  16
   4  -1   2 256646. 6456.15  14
   4  -1   2 254922. 6254.63  16
   4  -1   3 84341.3 3152.71  14
   4  -1   4 2966.74 569.375  14
   4  -1   5 10315.0 1156.50  14
  -4   1  -6 43782.7 2738.46  15
   4  -1   6 57696.2 3101.79  14
  -4   1  -7 67865.5 3594.43  15
   4  -1   7 69567.4 3727.36  14
  -4   1  -8 17243.3 1753.33  15
   4  -1   8 13979.7 1642.70  14
   4  -1   8 12260.2 1402.27   6
  -4   1  -9 6701.72 1084.23  15
   4  -1   9 4597.22 954.304  14
   4  -1   9 4957.63 876.349   6
  -4   1 -10 14974.3 1588.80  15
   4  -1  10 12972.0 1395.22   6
  -4   1 -11 79313.8 3796.06  15
  -4   1 -12 47788.9 2698.53  15
  -4   1 -13 15228.8 1327.00  15
  -4   1 -14 6360.26 733.709  15
  -4   1 -15 24100.1 1189.21  15
   4   0 -16 21990.1 1193.23  15
   4   0 -15 263.325 124.698  15
   4   0 -14 4544.57 695.758  15
   4   0 -13 34375.8 2160.88  15
   4   0 -12 4932.68 820.022  15
   4   0 -12 4853.59 741.717  12
  -4   0  11 23724.2 2257.17   1
   4   0 -11 22395.6 1725.19  12
   4   0 -11 27048.6 2000.34  15
   4   0 -10 4800.17 791.124  15
  -4   0  10 5544.48 1007.22   1
   4   0 -10 5784.15 1183.16   2
   4   0  -9 1547.56 520.952   2
  -4   0   9 1102.70 426.171   1
  -4   0   8 67564.9 3115.35   1
   4   0  -8 61741.8 3311.96   2
  -4   0   7 77297.9 3147.47   1
  -4   0   6 24517.9 1504.73   1
  -4   0   5 6524.68 726.566   1
  -4   0   4 101070. 3309.04   1
  -4   0   3 247597. 6260.02   1
   4   0  -2 242829. 6167.32  14
   4   0  -1 20920.2 1280.31  14
   4   0  -1 19685.3 1162.10  16
   4   0   0 2238.13 386.533  16
   4   0   0 2960.19 468.550  14
   4   0   1 117451. 3774.68  14
   4   0   1 114037. 3558.50  16
   4   0   2 182631. 5340.56  14
   4   0   3 53977.3 2634.96  14
   4   0   4 549.800 225.548  14
   4   0   5 13290.6 1483.80  14
  -4   0  -6 52332.9 3124.79  15
   4   0   6 49348.7 3066.21   6
  -4   0  -7 105220. 4686.00  15
   4   0   7 97467.9 4798.48  14
   4   0   7 95143.8 4487.76   6
  -4   0  -8 33298.2 2534.31  15
   4   0   8 29603.7 2558.00  14
   4   0   8 29948.8 2378.59   6
  -4   0  -9 19528.7 1871.22  15
   4   0   9 14841.5 1788.83  14
   4   0   9 19793.9 1815.73   6
  -4   0 -10 51658.3 3036.34  15
   4   0  10 50684.3 2929.29   6
  -4   0 -11 32013.8 2161.42  15
   4   0  11 30677.3 2073.95   6
  -4   0 -12 23688.9 1658.13  15
   4   0  12 19080.1 1421.04   6
  -4   0 -13 10700.4 968.095  15
  -4   0 -14 5015.54 523.102  15
   4   1 -16 25642.9 1306.43  15
   4   1 -15 5352.16 665.438  15
   4   1 -15 4192.78 510.056  12
   4   1 -14 518.557 179.453  15
   4   1 -14 548.767 260.122  12
   4   1 -13 22187.7 1709.40  15
   4   1 -13 20394.8 1541.67  12
   4   1 -12 42050.4 2498.61  15
   4   1 -12 39001.8 2363.49  12
   4   1 -11 34086.4 2239.12  15
  -4  -1  11 30102.5 2555.96   1
   4   1 -11 29336.4 2083.84  12
   4   1 -10 8135.71 1069.02  15
  -4  -1  10 7836.13 1181.87   1
   4   1 -10 8564.52 1343.60   2
   4   1  -9 1539.15 547.065   2
  -4  -1   9 1282.60 463.947   1
  -4  -1   8 33536.0 2125.19   1
   4   1  -8 29772.2 2297.33   2
  -4  -1   7 82224.3 3198.67   1
   4   1  -7 66050.1 3371.68   2
  -4  -1   6 56601.4 2494.77   1
  -4  -1   5 972.633 291.781   1
  -4  -1   4 19391.1 1300.97   1
  -4  -1   3 142150. 4282.19   1
   4   1  -3 137660. 4306.72  14
   4   1  -2 106248. 3576.99  14
   4   1  -2 103676. 3393.46  16
   4   1  -1 120234. 3945.99  14
   4   1  -1 117018. 3706.11  16
   4   1   0 258.894 107.084  16
   4   1   0 396.010 197.780  14
   4   1   1 49889.1 2447.22  14
   4   1   1 56686.6 2433.63  16
   4   1   2 207637. 6219.94  14
   4   1   3 57486.0 2972.27  14
  -4  -1  -4 4832.28 813.086  15
   4   1   4 6588.82 1020.23  14
   4   1   4 6457.64 1043.32   6
  -4  -1  -5 871.764 449.064  15
   4   1   5 920.642 383.872  14
   4   1   5 637.064 374.285   6
  -4  -1  -6 11662.0 1450.47  15
   4   1   6 13690.8 1701.52  14
   4   1   6 15175.8 1726.73   6
  -4  -1  -7 67814.1 3740.27  15
   4   1   7 63017.8 3956.72  14
   4   1   7 72115.8 3936.35   6
  -4  -1  -8 61487.0 3453.32  15
   4   1   8 65321.9 3654.61   6
  -4  -1  -9 1303.65 456.385  15
   4   1   9 968.644 482.558   6
  -4  -1 -10 501.773 253.574  15
   4   1  10 931.845 416.283   6
  -4  -1 -11 10275.6 1044.55  15
   4   1  11 10473.3 1103.33   6
  -4  -1 -12 18164.1 1220.77  15
   4   1  12 17433.0 1212.77   6
  -4  -1 -13 11677.4 760.762  15
   4   2 -16 15363.3 917.540  15
   4   2 -16 14666.5 859.091  12
   4   2 -15 10443.4 895.978  15
   4   2 -15 12079.8 953.142  12
   4   2 -14 4895.96 681.818  15
   4   2 -14 4550.56 656.583  12
   4   2 -13 9176.42 1014.25  15
   4   2 -13 8038.89 1005.40  12
   4   2 -12 23910.9 1864.73  12
   4   2 -12 24096.9 1786.08  15
  -4  -2  11 13338.5 1696.25   1
   4   2 -11 13528.7 1433.93  12
   4   2 -11 14444.5 1398.21  15
   4   2 -10 17441.3 1545.72  15
  -4  -2  10 21348.1 2009.46   1
   4   2  -9 10033.3 1235.14  13
  -4  -2   9 14527.1 1501.43   1
   4   2  -9 13778.0 1654.84   2
  -4  -2   8 2377.31 571.415   1
   4   2  -8 1599.09 520.313   2
   4   2  -8 1039.68 381.402  13
   4   2  -7 107767. 4838.91   2
  -4  -2   7 133626. 4429.86   1
  -4  -2   6 232529. 6555.02   1
  -4  -2   5 124245. 4172.02   1
  -4  -2   4 16540.1 1267.56   1
  -4  -2   3 54618.4 2445.96   1
   4   2  -3 51003.7 2351.97  16
   4   2  -3 51592.7 2469.88  14
   4   2  -2 158353. 4933.56  14
  -4  -2   2 155821. 4763.78   1
   4   2  -2 155961. 4774.75  16
   4   2  -1 118127. 4210.17  14
   4   2  -1 125346. 4139.02  16
   4   2   0 74456.5 3199.92  14
   4   2   0 80731.0 3209.97  16
   4   2   1 5389.94 800.650  14
   4   2   1 5383.45 856.698   6
   4   2   2 32258.7 2174.19  14
   4   2   2 30890.5 2235.78   6
   4   2   3 39598.6 2612.44  14
   4   2   3 41899.7 2809.98   6
   4   2   4 27089.7 2274.00  14
   4   2   4 29332.5 2418.17   6
   4   2   5 4008.60 893.905  14
  -4  -2  -5 3170.76 722.675  15
   4   2   5 4907.20 1042.35   6
  -4  -2  -6 649.863 296.202  15
   4   2   6 805.247 457.425  14
   4   2   6 1471.28 546.657   6
  -4  -2  -7 40395.3 2705.45  15
   4   2   7 47688.7 3139.89   6
  -4  -2  -8 47782.7 2778.27  15
   4   2   8 45959.0 2992.58   6
  -4  -2  -9 11410.7 1186.02  15
   4   2   9 11349.8 1302.74   6
  -4  -2 -10 2721.63 509.086  15
   4   2  10 2982.70 597.523   6
  -4  -2 -11 2051.86 353.052  15
   4   2  11 3151.55 507.757   6
   4   3 -16 13416.1 862.728  12
   4   3 -15 22789.5 1390.92  12
   4   3 -14 12607.9 989.815  15
   4   3 -14 18527.3 1410.41  12
   4   3 -13 1467.52 342.237  15
   4   3 -13 1666.29 472.120  12
   4   3 -12 43173.9 2263.24  15
   4   3 -12 51994.9 2891.62  12
   4   3 -11 26883.7 1802.56  15
   4   3 -11 33564.1 2317.77  12
  -4  -3  10 35921.4 2702.04   1
   4   3 -10 43800.9 2676.43  13
   4   3  -9 21506.1 1945.25  13
  -4  -3   9 20818.7 1863.34   1
   4   3  -9 26293.2 2372.43   2
  -4  -3   8 1607.70 461.790   1
   4   3  -8 2088.49 742.553   2
   4   3  -8 2037.42 671.518  13
   4   3  -7 45196.6 3010.46  13
   4   3  -7 42376.1 3066.83   2
  -4  -3   7 48857.6 2531.52   1
  -4  -3   6 130645. 4378.05   1
   4   3  -6 99536.7 4986.79   2
   4   3  -5 31598.2 2673.09   2
   4   3  -5 38922.4 2358.23  10
   4   3  -5 54671.2 2563.97  16
  -4  -3   5 59523.0 2644.48   1
   4   3  -4 10187.1 1083.82   6
  -4  -3   4 12380.0 1139.04   1
   4   3  -4 11982.5 1125.21  16
   4   3  -3 11352.9 1160.84  14
   4   3  -3 12215.9 1162.05  16
   4   3  -3 10160.0 1107.32   6
  -4  -3   3 13125.8 1177.55   1
   4   3  -3 9877.01 1304.65  10
   4   3  -2 107754. 4085.70  14
  -4  -3   2 115414. 3999.00   1
   4   3  -2 106201. 4133.06   6
   4   3  -2 119724. 4209.01  16
   4   3  -1 200350. 6141.80  14
   4   3  -1 192539. 6179.96   6
   4   3   0 81321.8 3573.41  14
   4   3   0 86364.1 3770.12   6
   4   3   1 15492.8 1523.21  14
   4   3   1 13421.8 1373.89   7
   4   3   1 18240.8 1721.72   6
   4   3   2 3947.83 804.614  14
   4   3   2 3265.06 676.912   7
   4   3   2 4131.97 863.845   6
   4   3   3 40297.6 2864.88  14
   4   3   3 48172.7 3170.27   6
   4   3   4 94376.2 4726.11   6
   4   3   4 100046. 4826.23  10
   4   3   5 11233.3 1539.19   6
   4   3   5 11929.4 1432.46  10
   4   3   6 4256.67 924.256   6
   4   3   6 3856.33 749.859  10
   4   3   7 10446.3 1366.87   6
   4   3   8 21025.5 1771.07   6
   4   3   9 20419.6 1538.74   6
   4   3  10 5290.01 651.623   6
   4   4 -16 5354.43 574.854   9
   4   4 -16 4899.83 493.745  12
   4   4 -15 14402.4 1058.57  12
   4   4 -14 22432.6 1538.80  12
   4   4 -13 4132.41 709.244  12
   4   4 -12 5209.71 774.515  13
   4   4 -12 5738.32 916.058  12
   4   4 -11 12716.0 1353.11  13
   4   4 -11 10723.3 1306.47  12
   4   4 -10 32830.2 2390.04  13
   4   4  -9 38396.2 2727.77  13
   4   4  -8 15162.5 1767.56  13
   4   4  -8 11713.1 1295.30  16
   4   4  -7 8512.27 1378.03  13
   4   4  -7 7015.53 953.279  16
   4   4  -6 56901.6 2921.06  10
   4   4  -6 54234.7 2775.40  16
  -4  -4   6 51855.0 2625.50   1
  -4  -4   5 67034.3 3059.69   1
   4   4  -5 80254.7 4889.77  13
   4   4  -5 76324.7 3631.92  10
   4   4  -5 74203.6 3294.16  16
  -4  -4   4 52941.9 2650.64   1
   4   4  -4 61865.0 2920.59   6
   4   4  -4 57085.8 3333.90  10
   4   4  -4 59105.8 2906.95  16
   4   4  -3 7653.07 987.190  16
   4   4  -3 6627.75 930.929  14
   4   4  -3 8464.40 1039.06   6
   4   4  -3 6815.20 1205.65  10
   4   4  -2 72301.9 3445.02   7
   4   4  -2 67206.7 3262.91   6
   4   4  -2 58534.3 3044.33  14
   4   4  -2 58531.0 3895.56  10
   4   4  -1 19735.8 1711.25  14
   4   4  -1 25080.9 1967.46   7
   4   4  -1 25697.5 1957.06   6
   4   4  -1 18915.6 2338.88  10
   4   4   0 18772.8 1740.71  14
   4   4   0 24961.4 1992.01   7
   4   4   0 20251.8 2356.41  13
   4   4   0 23744.4 1953.45   6
   4   4   0 18852.5 2427.30  10
   4   4   1 1845.55 709.790  10
   4   4   1 736.253 306.293  14
   4   4   1 990.982 475.729   7
   4   4   1 1188.86 510.786   6
   4   4   2 4365.79 1033.08  10
   4   4   2 2653.14 689.763  14
   4   4   2 3697.52 732.434   7
   4   4   2 3647.38 814.082   6
   4   4   3 37394.3 2422.42   7
   4   4   3 41440.5 2995.39   6
   4   4   4 69169.6 3988.15   6
   4   4   4 77351.4 3941.00  10
   4   4   5 31125.6 2492.28   6
   4   4   5 29877.5 2105.57  10
   4   4   6 7111.14 1073.69   6
   4   4   7 3880.00 721.661   6
   4   4   8 12452.5 1120.36   6
   4   4   9 24572.4 1345.73   6
   4   5 -15 7777.91 765.068   9
   4   5 -15 7076.61 659.642  12
   4   5 -14 21595.9 1571.29   9
   4   5 -14 20451.1 1344.51  12
   4   5 -13 23899.0 1887.70   9
   4   5 -13 24754.9 1665.76  12
   4   5 -12 345.297 204.234  13
   4   5 -12-33.9345 230.665   9
   4   5 -12 376.381 215.935  12
   4   5 -11 2324.76 672.675   9
   4   5 -11 2998.32 637.080  13
   4   5 -11 3101.45 670.775  12
   4   5 -10 15358.4 1631.66   9
   4   5 -10 18245.5 1760.30  13
   4   5 -10 17869.9 1679.88  12
   4   5  -9 23887.1 1872.61   9
   4   5  -9 30755.0 2458.19  13
   4   5  -8 7683.09 1299.64  13
   4   5  -7 7111.49 1390.50  13
   4   5  -7 7312.22 960.049  10
   4   5  -6 30341.5 3044.63  13
   4   5  -6 28225.3 2091.91  10
   4   5  -5 60206.7 4622.01  13
   4   5  -5 66088.3 3560.51  10
   4   5  -4 69272.8 3869.55  10
   4   5  -4 51868.9 4482.26  13
   4   5  -3 51775.5 4535.29  13
   4   5  -3 62250.5 3022.62   6
   4   5  -3 56724.3 3781.87  10
   4   5  -2 634.771 296.997  14
   4   5  -2 1048.92 414.786   7
   4   5  -2 893.127 614.201  10
   4   5  -2 1094.81 468.811  13
   4   5  -2 1448.03 504.145   6
   4   5  -1 16467.8 2207.75  10
   4   5  -1 22782.8 1982.47   7
   4   5  -1 18891.9 2246.46  13
   4   5  -1 23134.3 1919.53   6
   4   5   0 36620.1 2546.96   7
   4   5   0 34890.7 2475.71   6
   4   5   0 30764.0 2989.32  10
   4   5   1 23241.4 2405.09  10
   4   5   1 22503.6 1944.80   7
   4   5   1 24431.5 2121.09   6
   4   5   2 15558.5 1523.37   7
   4   5   2 17725.8 1830.17   6
   4   5   2 16740.1 1895.71  10
   4   5   3 577.859 267.051   7
   4   5   3 239.469 275.518   6
   4   5   3 313.423 225.336  10
   4   5   4 40529.6 2704.02   6
   4   5   4 42894.2 2434.39  10
   4   5   5 13967.6 1410.16   6
   4   5   6 10040.4 1043.99   6
   4   5   7 1035.55 268.113   6
   4   6 -14 30833.4 1450.34  12
   4   6 -13 16484.0 1279.24   9
   4   6 -13 17618.9 1105.75  13
   4   6 -12 23166.0 1545.52  13
   4   6 -12 26711.8 1658.65  12
   4   6 -11 1806.01 520.918  13
   4   6 -11 1361.92 443.121  12
   4   6 -10 13939.3 1498.45  13
   4   6 -10 14628.6 1444.87  12
   4   6  -9 70201.9 3871.77  13
   4   6  -9 66423.4 3499.35  12
   4   6  -8 52760.0 3563.01  13
   4   6  -8 47138.4 2344.96  10
   4   6  -7 30389.2 2911.60  13
   4   6  -7 28414.4 1919.89  10
   4   6  -6 1007.13 693.883  13
   4   6  -6 1944.39 579.395  10
   4   6  -5 9089.98 1803.63  13
   4   6  -5 12780.4 1521.89  10
   4   6  -4 40717.2 2981.11  10
   4   6  -4 35436.1 3510.35  13
   4   6  -3 50505.2 3927.10  13
   4   6  -3 47100.7 3477.75  10
   4   6  -2 1328.77 503.287  13
   4   6  -2 1129.27 282.775   6
   4   6  -2 1378.29 752.206  10
   4   6  -1 7801.86 1028.49   6
   4   6  -1 7620.11 1319.46  10
   4   6   0 31457.9 2710.52  10
   4   6   0 29925.0 2170.18   6
   4   6   1 35661.6 2556.92  10
   4   6   1 31837.6 2276.60   6
   4   6   2 11766.9 1332.77   6
   4   6   2 15411.3 1457.00  10
   4   6   3 732.807 324.016   6
   4   6   3 948.089 304.115  10
   4   6   4 1721.41 418.410   6
   4   6   5 9260.81 821.078   6
   4   7 -12 9034.38 808.244  13
   4   7 -11 744.672 279.438  13
   4   7 -10 10882.9 1200.67  13
   4   7  -9 46330.8 2917.05  13
   4   7  -8 42504.5 3015.46  13
   4   7  -8 32250.8 1761.26  10
   4   7  -7 7717.00 1427.56  13
   4   7  -7 7605.52 905.002  10
   4   7  -6 741.785 469.133  13
   4   7  -6 998.209 372.217  10
   4   7  -5 2665.83 810.084  13
   4   7  -5 3196.22 695.899  10
   4   7  -4 18913.5 2022.52  13
   4   7  -4 19315.0 1868.58  10
   4   7  -3 25448.1 2011.71  13
   4   7  -3 26687.4 2338.39  10
   4   7  -2 12610.9 1550.93  10
   4   7  -1 174.497 199.828  10
   4   7   0 7265.50 952.197  10
   4   7   1 25951.4 1592.59  10
   4   7   2 9511.12 734.002  10
   4   8 -10 136.007 89.1451  13
   4   8  -9 10215.9 1113.58  13
   4   8  -8 17867.5 1640.70  13
   4   8  -7 30654.5 2225.44  13
   4   8  -7 29123.5 1551.20  10
   4   8  -6 6399.53 940.725  13
   4   8  -6 7286.75 824.359  10
   4   8  -5-25.9334 173.361  10
   4   8  -4 12581.5 1232.01  10
   4   8  -3 26837.9 1796.02  10
   4   8  -2 26330.5 1616.31  10
   4   8  -1 3717.51 490.231  10
  -5  12  -1 6253.04 812.144   8
  -5  12  -2 3392.98 653.687   8
  -5  12  -2 2765.91 483.868   5
  -5  12  -3 450.690 210.129   5
  -5  12  -3-57.2330 113.380   8
  -5  12  -4 2363.79 567.342   5
  -5  12  -5 21328.6 1801.27   5
  -5  12  -6 43549.9 2752.45   5
  -5  12  -7 10679.7 1267.95   5
  -5  12  -8 1073.52 411.559   5
  -5  12  -8 546.637 208.131   4
  -5  12  -9 3807.30 508.863   4
  -5  11   3 14113.5 1006.32   8
  -5  11   2 22174.9 1497.49   8
  -5  11   1 13380.1 1320.76   8
  -5  11   0 8487.09 1158.88   8
  -5  11   0 6676.20 802.663   5
  -5  11  -1 25358.6 2268.96   8
  -5  11  -1 22322.4 1642.32   5
  -5  11  -2 20028.5 2226.41   8
  -5  11  -2 19451.9 1611.28   5
  -5  11  -3 14289.2 1996.11   8
  -5  11  -3 15247.1 1518.99   5
  -5  11  -4 4383.06 863.569   5
  -5  11  -4 4321.43 655.053   4
  -5  11  -4 3821.03 960.797   8
  -5  11  -5 3259.09 854.027   5
  -5  11  -5 1803.82 567.630   8
  -5  11  -5 2713.54 545.403   4
  -5  11  -6 45109.5 2401.70   4
  -5  11  -6 41802.1 3113.39   5
  -5  11  -7 21286.4 1629.10   4
  -5  11  -7 18058.9 1983.15   5
  -5  11  -8 9852.74 1385.86   5
  -5  11  -8 9203.79 1067.30   4
  -5  11  -9 2596.42 651.516   5
  -5  11  -9 3486.23 622.279   4
  -5  11 -10 16684.6 1283.69   4
  -5  11 -10 15300.0 1223.40   5
  -5  11 -11 25061.4 1407.35   4
  -5  11 -12 16117.6 902.945   4
  -5  10   5 332.345 161.137   8
  -5  10   5 227.929 131.434   7
  -5  10   4 757.033 268.613   8
  -5  10   4 418.211 233.191   7
  -5  10   3 7888.80 1015.91   8
  -5  10   3 4952.23 747.715   7
  -5  10   2 27072.4 2063.71   8
  -5  10   2 16658.0 1406.01   7
  -5  10   1 36003.9 2654.83   8
  -5  10   1 34775.6 2111.65   5
  -5  10   0 14516.1 1809.46   8
  -5  10   0 14690.6 1390.47   5
  -5  10  -1 16789.1 2141.30   8
  -5  10  -1 15705.9 1506.14   5
  -5  10  -2 45124.5 2775.30   5
  -5  10  -2 47402.7 3910.34   8
  -5  10  -2 44300.0 2437.98   4
  -5  10  -3 27120.0 2228.74   5
  -5  10  -3 26592.4 3073.97   8
  -5  10  -3 31096.1 1968.82   4
  -5  10  -4 11214.9 1468.39   5
  -5  10  -4 11638.0 1218.33   4
  -5  10  -4 8750.33 1630.54   8
  -5  10  -5 159.615 189.183   5
  -5  10  -5 41.4874 151.848   8
  -5  10  -5 117.583 126.469   4
  -5  10  -6 24991.7 2515.35   5
  -5  10  -6 27467.8 2033.81   4
  -5  10  -7 44770.0 2658.97   4
  -5  10  -7 37330.3 3112.32   5
  -5  10  -8 63749.4 3915.12   5
  -5  10  -8 64817.5 3338.29   4
  -5  10  -9 29107.1 2310.66   5
  -5  10  -9 26524.1 1994.15   4
  -5  10  -9 21478.5 1599.08  11
  -5  10 -10 1986.02 529.626   5
  -5  10 -10 2084.19 523.260   4
  -5  10 -10 1580.06 435.538  11
  -5  10 -11 35388.8 1928.48   4
  -5  10 -11 23985.6 1664.58  11
  -5  10 -12 27170.6 1427.19   4
  -5  10 -12 17413.9 1283.40  11
  -5  10 -13 10088.3 657.223   4
  -5  10 -13 14170.3 957.530  11
  -5   9   7 33039.0 1757.27   7
  -5   9   6 23708.9 1544.68   8
  -5   9   6 24325.0 1719.90   7
  -5   9   5 11617.4 1200.92   8
  -5   9   5 8543.01 1124.40   7
  -5   9   4 834.626 288.227   8
  -5   9   4 518.707 352.851   7
  -5   9   3 11165.9 1392.91   8
  -5   9   3 7603.20 1115.76   7
  -5   9   3 9864.65 1398.51   3
  -5   9   2 16554.7 1831.27   8
  -5   9   2 12706.0 1385.31   7
  -5   9   2 12612.9 1703.37   3
  -5   9   2 15662.1 1419.36   5
  -5   9   1 62809.0 3831.83   8
  -5   9   1 49737.7 2686.40   7
  -5   9   1 41903.0 3161.30   3
  -5   9   1 64389.5 3107.58   5
  -5   9   0 10636.0 1602.40   8
  -5   9   0 6754.04 1157.59   3
  -5   9   0 10611.7 1257.36   5
  -5   9  -1 3848.47 770.924   5
  -5   9  -1 3600.62 680.942   4
  -5   9  -1 3664.61 1023.91   8
  -5   9  -2 30251.3 2293.19   5
  -5   9  -2 30998.5 3240.92   8
  -5   9  -2 33794.4 2129.46   4
  -5   9  -3 46667.2 4179.59   8
  -5   9  -3 54989.2 2813.29   4
  -5   9  -3 49661.2 3123.67   5
  -5   9  -4 25584.0 2295.88   5
  -5   9  -4 22302.8 2763.41   8
  -5   9  -4 22554.9 1791.84   4
  -5   9  -5 4196.31 787.514   4
  -5   9  -5 4490.98 1150.06   8
  -5   9  -6 24493.8 1985.11   4
  -5   9  -6 22020.2 1680.77  11
  -5   9  -7 49141.0 2959.12   4
  -5   9  -7 48026.2 2689.28  11
  -5   9  -8 86984.1 4087.26   4
  -5   9  -8 85992.0 3926.98  11
  -5   9  -9 45668.9 3002.59   5
  -5   9  -9 39684.2 2596.83   4
  -5   9  -9 42928.1 2749.80  11
  -5   9 -10 8289.30 1083.64   5
  -5   9 -10 9081.27 1124.43   4
  -5   9 -10 8643.62 1187.20  11
  -5   9 -11 23538.3 1645.43   4
  -5   9 -11 17498.2 1342.04   5
  -5   9 -11 21637.2 1861.84  11
  -5   9 -12 42962.1 2038.59   4
  -5   9 -12 43795.3 2541.65  11
  -5   9 -13 23354.4 1610.84  11
  -5   9 -14 13586.8 1024.86  11
  -5   8   9 2499.48 417.911   7
  -5   8   8-196.267 240.459   7
  -5   8   7 9623.04 1008.40   8
  -5   8   7 11413.0 1186.87   3
  -5   8   7 10797.9 1241.65   7
  -5   8   6 14222.3 1431.42   8
  -5   8   6 12346.7 1508.38   7
  -5   8   6 14273.3 1461.34   3
  -5   8   5 9432.76 1242.54   8
  -5   8   5 8224.93 1264.95   7
  -5   8   5 10383.8 1353.94   3
  -5   8   4 1062.69 457.845   8
  -5   8   4 830.696 378.667   7
  -5   8   4 1312.47 550.823   3
  -5   8   3 430.443 277.283   8
  -5   8   3 304.374 375.005   7
  -5   8   3 45.9855 169.701   3
  -5   8   2 5341.91 830.142   5
  -5   8   2 6410.80 1137.44   8
  -5   8   2 5210.85 893.170   7
  -5   8   2 5021.19 1136.12   3
  -5   8   1 35748.0 2821.21   8
  -5   8   1 35216.6 2231.52   5
  -5   8   0 4763.29 750.626   4
  -5   8   0 6332.66 1236.16   8
  -5   8   0 4878.37 808.401   5
  -5   8   0 3051.46 849.083   3
  -5   8   0 3743.02 710.650  17
  -5   8  -1 448.892 442.304   8
  -5   8  -1 880.131 336.845   4
  -5   8  -1 482.465 367.958  17
  -5   8  -2 28933.7 1936.70   4
  -5   8  -2 24074.8 2167.84  17
  -5   8  -2 27461.0 2902.92   8
  -5   8  -3 76656.7 5249.27   8
  -5   8  -3 90560.2 3713.03   4
  -5   8  -3 75110.1 3227.08  11
  -5   8  -3 84638.4 4567.18  17
  -5   8  -4 18703.5 2457.18   8
  -5   8  -4 21249.9 1697.48   4
  -5   8  -4 20021.9 1547.68  11
  -5   8  -4 20087.5 2309.01  17
  -5   8  -5 9606.71 1167.80   4
  -5   8  -5 8497.89 1594.28   8
  -5   8  -5 8632.21 1056.10  11
  -5   8  -5 8771.98 1559.46  17
  -5   8  -6 2399.14 636.624   4
  -5   8  -6 2713.17 635.991  11
  -5   8  -6 1773.40 714.218  17
  -5   8  -7 10922.7 1336.21   4
  -5   8  -7 12501.3 1410.13  11
  -5   8  -7 10641.2 1568.57  17
  -5   8  -8 45159.9 2835.94   4
  -5   8  -8 51632.3 3148.71  11
  -5   8  -9 89181.1 4044.80   4
  -5   8  -9 92043.3 4576.94  11
  -5   8 -10 771.548 333.805   4
  -5   8 -10 757.183 314.411  11
  -5   8 -11 13823.4 1279.99   4
  -5   8 -11 15575.8 1713.30  11
  -5   8 -12 53253.5 3067.29  11
  -5   8 -13 50566.2 2708.67  11
  -5   8 -14 40878.2 2105.60  11
  -5   8 -15 6961.20 674.986  11
  -5   7  11 21519.8 1171.98   7
  -5   7  10 22886.1 1484.00   7
  -5   7   9 26087.5 1733.52   3
  -5   7   9 25636.5 1820.83   7
  -5   7   8 10291.0 1280.89   7
  -5   7   8 9666.62 1137.06   3
  -5   7   7 836.154 270.290   8
  -5   7   7 753.536 282.521   3
  -5   7   6 27938.8 2192.30   8
  -5   7   6 25342.1 2185.16   3
  -5   7   5 47444.1 3045.45   8
  -5   7   5 47503.6 3202.12   3
  -5   7   4 17605.1 1844.90   8
  -5   7   4 17661.9 2047.22   3
  -5   7   3 14.7404 274.307   8
  -5   7   3 413.744 208.697   3
  -5   7   2 3079.71 601.089   5
  -5   7   2 3494.71 827.060   8
  -5   7   2 3130.64 912.730   3
  -5   7   2 2357.19 510.951  17
  -5   7   1 27217.4 2357.94   8
  -5   7   1 21446.3 2509.41   3
  -5   7   1 20950.4 1630.39  17
  -5   7   0 131096. 4363.53   4
  -5   7   0 122503. 5452.77   8
  -5   7  -1 47811.1 2491.40   4
  -5   7  -1 45443.1 3359.26   8
  -5   7  -1 37957.8 2163.87  11
  -5   7  -1 41816.8 2697.10  17
  -5   7  -2 848.634 542.616   8
  -5   7  -2 964.044 301.599   4
  -5   7  -2 379.241 188.513  11
  -5   7  -2 322.106 192.004  17
  -5   7  -3 76917.4 4381.52  17
  -5   7  -3 63811.7 4505.73   8
  -5   7  -3 72420.8 3211.85   4
  -5   7  -3 69266.0 3071.92  11
  -5   7  -4 70430.4 3223.12   4
  -5   7  -4 70400.1 3171.94  11
  -5   7  -4 68284.5 4383.09  17
  -5   7  -5 104140. 4245.41   4
  -5   7  -5 110083. 4306.10  11
  -5   7  -5 112287. 5729.64  17
  -5   7  -6 13245.8 1390.20   4
  -5   7  -6 13547.3 1456.24  11
  -5   7  -6 15196.4 1924.70  17
  -5   7  -7 2427.75 596.884   4
  -5   7  -7 3441.04 735.456  11
  -5   7  -7 3104.90 802.397  17
  -5   7  -8 45921.1 2706.71   4
  -5   7  -8 40472.8 2763.09  17
  -5   7  -9 126413. 4905.45   4
  -5   7  -9 157132. 6225.85  11
  -5   7 -10 26932.4 2430.62  11
  -5   7 -11 7689.36 1238.48  11
  -5   7 -12 3300.56 765.930  11
  -5   7 -13 11767.5 1297.67  11
  -5   7 -14 9042.98 982.985  11
  -5   7 -15 4757.97 585.578  11
  -5   6  12 76.3574 66.6885   7
  -5   6  11 15184.6 1162.52   3
  -5   6  11 14565.7 1205.10   7
  -5   6  10 25137.0 1752.20   3
  -5   6   9 42605.4 2579.42   3
  -5   6   8 13191.1 1475.92   3
  -5   6   7 314.619 245.382   8
  -5   6   7-215.094 148.913   3
  -5   6   6 12390.2 1470.59   8
  -5   6   6 12533.4 1582.79   3
  -5   6   5 85449.3 4158.40   8
  -5   6   4 27139.2 2213.26   8
  -5   6   3 17126.1 1720.26   8
  -5   6   2 292.006 167.261   8
  -5   6   2 365.014 177.776  17
  -5   6   1 41198.3 2261.74   4
  -5   6   1 36282.1 2164.71  17
  -5   6   1 37768.6 2641.35   8
  -5   6   0 89605.0 3476.94   4
  -5   6   0 84329.7 3382.79  11
  -5   6   0 90215.7 3831.99  17
  -5   6  -1 89453.1 3471.15   4
  -5   6  -1 97596.8 4348.47  17
  -5   6  -2 30664.9 1887.18   4
  -5   6  -2 41156.3 2918.98  17
  -5   6  -3 39028.1 2198.14   4
  -5   6  -3 45655.8 2383.81  11
  -5   6  -3 49191.5 3466.33  17
  -5   6  -4 55959.7 2764.62  11
  -5   6  -4 62744.6 4027.60  17
  -5   6  -5 50849.6 2782.97  11
  -5   6  -5 61063.0 3819.64  17
  -5   6  -6 50575.7 3231.43  17
  -5   6  -6 47525.8 2817.02  11
  -5   6  -7 593.173 365.291  17
  -5   6  -7 126.990 110.635   4
  -5   6  -7 713.671 463.368  11
  -5   6  -8 29063.1 2381.79  11
  -5   6  -8 21902.0 1838.34  17
  -5   6  -9 107213. 5044.58  11
  -5   6 -10 66304.9 3844.07  11
  -5   6 -11 29634.6 2429.42  11
  -5   6 -12 779.707 339.211  15
  -5   6 -12 507.477 166.998  11
  -5   6 -13 21800.6 1578.56  15
  -5   6 -13 32334.4 2130.92  11
  -5   6 -14 29037.7 1817.87  11
  -5   6 -15 15605.8 1080.68  11
  -5   5  13 13230.8 966.260   7
  -5   5  12 19507.7 1271.04   3
   5  -5 -11 3785.25 554.441  15
  -5   5  11 4789.52 726.952   3
   5  -5 -10 1268.87 334.764  15
  -5   5  10 1069.32 395.272   3
   5  -5  -9 21345.5 1634.09  15
  -5   5   9 22324.9 1972.36   3
   5  -5  -8 35917.2 2245.34  15
   5  -5  -7 10657.3 1200.89  15
   5  -5  -6 11229.6 1228.62  15
  -5   5   6 12653.9 1420.71   8
  -5   5   5 40789.7 2633.63   8
  -5   5   4 38335.4 2503.55   8
  -5   5   3 13003.5 1110.30  17
  -5   5   2 231.963 177.165  17
  -5   5   1 22248.2 1645.34  17
  -5   5   0 111314. 4447.89  17
  -5   5  -1 117302. 4970.42  17
  -5   5  -2 72367.1 4052.25  17
  -5   5  -3 3753.32 930.721  17
  -5   5  -4 66537.8 3944.55  17
  -5   5  -5 326346. 9441.32  11
  -5   5  -5 395958. 10840.3  17
  -5   5  -6 84944.3 4092.18  11
  -5   5  -6 100794. 4424.18  17
  -5   5  -7 16020.4 1696.96  11
  -5   5  -7 16945.9 1567.67  17
  -5   5  -7 12190.8 1299.43  15
  -5   5  -8 1587.33 494.096  11
  -5   5  -8 1339.98 507.726  15
  -5   5  -8 1047.74 371.566  17
  -5   5  -9 39488.6 2688.58  15
  -5   5  -9 42725.5 2968.38  11
  -5   5 -10 55108.7 3257.30  15
  -5   5 -10 60442.4 3536.13  11
  -5   5 -11 23979.2 2031.69  15
  -5   5 -11 27586.0 2237.79  11
  -5   5 -12 7795.76 1087.43  15
  -5   5 -12 8588.49 1131.25  11
  -5   5 -13 6457.26 877.892  15
  -5   5 -13 6912.37 926.957  11
  -5   5 -14 12400.3 1095.70  15
  -5   5 -14 13469.4 1135.82  11
  -5   5 -15 15333.1 1007.19  15
  -5   5 -15 17274.5 1022.16  11
   5  -4 -13 21250.4 1236.37  15
   5  -4 -12 22245.9 1468.97  15
  -5   4  12 20459.5 1480.71   3
   5  -4 -11 224.999 183.796  15
  -5   4  11 49.1865 120.657   3
   5  -4 -10 310.642 215.687  15
   5  -4  -9 33573.5 2279.58  15
   5  -4  -8 55696.2 3014.49  15
  -5   4   7 9198.54 1200.16   1
  -5   4   6 4559.53 805.380   1
  -5   4   5 11947.3 1171.63   1
  -5   4   4 16728.6 1231.25   1
  -5   4   4 15325.9 1143.30  17
  -5   4   3 28663.4 1689.49  17
  -5   4   3 28578.2 1522.12   1
  -5   4   2 49937.5 1995.70   1
  -5   4   2 51689.5 2514.92  17
  -5   4   1 22941.6 1241.16   1
  -5   4   1 23935.8 1810.06  17
  -5   4   0 54790.5 2055.39   1
  -5   4   0 59124.1 3264.05  17
  -5   4  -1 77443.0 2573.09   1
  -5   4  -1 91539.5 4393.65  17
  -5   4  -2 200642. 7458.54  17
  -5   4  -3 14001.6 1668.30  17
  -5   4  -4 39599.3 2775.74  17
  -5   4  -5 160347. 5854.65  17
  -5   4  -6 93668.5 4061.28  15
  -5   4  -6 105661. 4530.38  11
  -5   4  -7 47417.2 2823.25  15
  -5   4  -7 49051.4 3061.80  11
  -5   4  -7 49916.8 2641.60  17
  -5   4  -8 2145.85 480.707  17
  -5   4  -8 2351.79 672.751  15
  -5   4  -8 2096.78 613.384  11
  -5   4  -9 13655.5 1568.57  15
  -5   4  -9 14791.8 1656.90  11
  -5   4 -10 40982.7 2785.67  15
  -5   4 -10 42457.5 2811.18  11
  -5   4 -11 76304.2 3849.06  15
  -5   4 -11 75755.2 3708.85  11
  -5   4 -12 28676.1 2134.15  15
  -5   4 -12 27135.0 1931.94  11
  -5   4 -13 1127.23 373.933  15
  -5   4 -13 963.065 284.953  11
  -5   4 -14 15669.0 1242.00  15
  -5   4 -14 11404.4 892.088  11
  -5   4 -15 35394.7 1652.02  15
   5  -3 -14 9810.07 804.798  15
   5  -3 -13 22345.0 1457.31  15
   5  -3 -12 56513.0 2725.87  15
  -5   3  12 53869.9 2747.18   3
   5  -3 -11 9768.00 1142.88  15
   5  -3 -10 7846.84 1086.24  15
  -5   3   9 2646.92 740.655   1
   5  -3  -9 4407.71 817.183  15
  -5   3   8 77286.6 3976.67   1
   5  -3  -8 76339.7 3660.63   2
  -5   3   7 94701.6 4095.48   1
   5  -3  -7 81675.0 3667.04   2
   5  -3  -6 267.273 157.396   2
  -5   3   6 349.703 208.804   1
  -5   3   5 6169.20 788.333   1
  -5   3   4 65110.1 2570.94   1
  -5   3   4 58178.8 2538.14  17
  -5   3   3 156277. 4410.57   1
  -5   3   3 139549. 4727.81  17
  -5   3   2 192316. 5144.99   1
  -5   3   2 194413. 6200.99  17
  -5   3   1 5711.99 618.515   1
  -5   3   1 6188.28 1016.95  17
   5  -3   0 459.177 177.296  16
  -5   3   0 1847.26 562.772  17
   5  -3   1 44727.2 1815.17  14
   5  -3   1 46462.6 1791.38  16
   5  -3   2 153333. 4270.79  14
  -5   3  -2 181184. 6789.61  17
   5  -3   3 73608.7 2637.02  14
  -5   3  -3 85392.8 4158.24  17
   5  -3   4 9416.38 886.132  14
  -5   3  -4 9650.47 1227.58  17
   5  -3   5 163278. 5057.49  14
  -5   3  -5 165943. 5668.69  17
   5  -3   6 89587.5 3623.69  14
  -5   3  -6 90758.4 3666.62  17
  -5   3  -7 43512.6 2790.74  15
   5  -3   7 45182.5 2697.28  14
  -5   3  -7 38322.1 2637.51  11
  -5   3  -7 44439.0 2395.71  17
  -5   3  -8 35757.0 2591.39  15
   5  -3   8 28342.7 2261.67  14
  -5   3  -8 29593.8 2285.89  11
  -5   3  -9 1290.60 538.876  15
  -5   3  -9 643.781 357.822  11
  -5   3 -10 17350.1 1783.00  15
  -5   3 -10 15490.6 1548.85  11
  -5   3 -11 5621.84 944.374  15
  -5   3 -11 4456.93 744.715  11
  -5   3 -12 14320.4 1439.43  15
  -5   3 -13 7071.27 908.555  15
  -5   3 -14 173.298 97.1820  15
  -5   3 -15 13915.8 940.827  15
   5  -2 -15 8643.58 703.207  15
   5  -2 -14 1066.58 306.148  15
   5  -2 -13 26070.9 1695.56  15
   5  -2 -12 58235.3 2883.73  15
   5  -2 -11 28644.7 2071.23  15
   5  -2 -10 20004.9 1715.35  15
   5  -2 -10 19036.2 1810.30   2
  -5   2   9-102.421 345.502   1
   5  -2  -9-157.681 365.501   2
  -5   2   8 56370.3 3159.46   1
   5  -2  -8 52353.6 3004.84   2
  -5   2   7 18941.9 1591.01   1
   5  -2  -7 16010.9 1521.05   2
  -5   2   6 29475.8 1837.61   1
   5  -2  -6 24234.3 1793.90   2
  -5   2   5 582.946 212.961   1
  -5   2   5 71.7807 46.2924  17
  -5   2   4 21375.4 1403.31   1
  -5   2   3 24251.4 1449.07   1
  -5   2   2 221902. 5861.47   1
  -5   2   1 58942.3 2365.41   1
   5  -2   0 299.885 147.074  16
   5  -2   0 6.61684 65.0007  14
   5  -2   1 1493.42 308.534  16
   5  -2   1 1391.21 310.768  14
   5  -2   2 158663. 4610.99  14
   5  -2   3 159164. 4817.37  14
   5  -2   4 20873.6 1540.29  14
  -5   2  -5 2940.27 629.657  15
   5  -2   5 3421.03 668.808  14
  -5   2  -6 32751.2 2417.86  15
   5  -2   6 37388.1 2488.51  14
  -5   2  -6 32645.0 2072.19  17
  -5   2  -7 49066.3 3105.51  15
   5  -2   7 49324.2 3108.25  14
  -5   2  -8 89558.9 4389.27  15
   5  -2   8 73746.1 4082.14  14
  -5   2  -9 300.254 276.592  15
   5  -2   9 287.914 211.640  14
  -5   2 -10 265.167 196.369  15
  -5   2 -11 40826.2 2642.83  15
  -5   2 -12 54672.1 2862.05  15
  -5   2 -13 46201.5 2339.91  15
  -5   2 -14 14982.6 1078.72  15
   5  -1 -16 23994.2 1094.81  15
   5  -1 -15 18630.7 1151.60  15
   5  -1 -14 4210.33 624.092  15
   5  -1 -13 1905.81 476.470  15
   5  -1 -12 17071.1 1518.21  15
   5  -1 -11 24368.6 1938.75  15
   5  -1 -10 8024.36 1122.02  15
  -5   1  10 6718.48 1177.46   1
   5  -1 -10 7727.72 1230.64   2
   5  -1  -9 2041.67 627.624   2
  -5   1   9 2697.92 709.103   1
  -5   1   8 37575.0 2411.67   1
   5  -1  -8 39340.1 2654.04   2
  -5   1   7 144379. 4945.54   1
   5  -1  -7 139662. 5218.58   2
  -5   1   6 80114.6 3202.59   1
   5  -1  -6 74204.4 3401.62   2
  -5   1   5 7874.49 876.677   1
  -5   1   4 8949.50 909.586   1
  -5   1   3 95333.1 3385.23   1
  -5   1   2 230227. 6186.25   1
   5  -1  -1 29351.3 1641.12  14
   5  -1  -1 28757.3 1546.22  16
   5  -1   0 10019.7 943.388  14
   5  -1   0 11195.2 923.145  16
   5  -1   1 17658.3 1309.68  14
   5  -1   1 17765.7 1230.13  16
   5  -1   2 351271. 8885.93  14
   5  -1   3 324687. 8675.20  14
  -5   1  -4 193754. 6607.87  15
   5  -1   4 231185. 6871.65  14
  -5   1  -5 37297.9 2549.35  15
   5  -1   5 44389.0 2763.56  14
  -5   1  -6 7998.83 1184.74  15
   5  -1   6 8817.01 1291.36  14
   5  -1   6 6740.76 1062.31   6
  -5   1  -7 17942.8 1861.32  15
   5  -1   7 16727.2 1874.58  14
   5  -1   7 15530.8 1640.04   6
   5  -1   8 91409.5 4852.72  14
   5  -1   8 103589. 4625.09   6
  -5   1  -9 8463.54 1254.53  15
   5  -1   9 7116.03 1058.77   6
  -5   1 -10 1914.42 581.477  15
  -5   1 -11 3662.86 698.203  15
  -5   1 -12 16556.8 1368.55  15
  -5   1 -13 39880.7 1923.83  15
  -5   1 -14 25306.6 1224.76  15
   5   0 -16 28714.8 1265.96  15
   5   0 -15 32531.7 1622.09  15
   5   0 -14 17181.1 1305.57  15
   5   0 -13 686.780 294.352  15
   5   0 -13 779.153 255.694  12
   5   0 -12 45079.3 2581.38  15
   5   0 -12 39002.3 2236.01  12
   5   0 -11 38213.9 2441.08  15
   5   0 -11 35268.9 2210.59  12
  -5   0  10 16185.3 1795.87   1
   5   0 -10 22196.7 2158.21   2
  -5   0   9 5350.77 935.097   1
   5   0  -9 6431.76 1154.29   2
  -5   0   8 8951.13 1142.07   1
   5   0  -8 9924.77 1341.61   2
   5   0  -7 11697.0 1358.07   2
  -5   0   7 12896.4 1243.91   1
  -5   0   6 97590.3 3674.65   1
   5   0  -6 85678.8 3842.05   2
  -5   0   5 40929.0 2188.65   1
  -5   0   4 1594.45 415.377   1
  -5   0   3 277.966 98.4955   1
   5   0  -2 2653.10 514.744  14
  -5   0   2 2364.19 466.666   1
   5   0  -2 2039.95 422.535  16
   5   0  -1 163358. 4998.35  14
   5   0  -1 154937. 4708.08  16
   5   0   0 34394.0 2002.92  14
   5   0   0 33281.7 1825.01  16
   5   0   1 8811.57 1003.80  14
   5   0   1 8430.53 901.120  16
   5   0   2 56627.8 2852.03  14
  -5   0  -3 62398.7 3195.81  15
   5   0   3 65075.6 3348.05   6
  -5   0  -4 39736.6 2573.72  15
   5   0   4 43682.2 2788.57  14
   5   0   4 37593.1 2614.37   6
  -5   0  -5 15131.5 1636.30  15
   5   0   5 17847.1 1864.92  14
   5   0   5 16665.5 1773.92   6
  -5   0  -6 2784.14 766.949  15
   5   0   6 2185.19 650.147  14
   5   0   6 2725.42 716.300   6
  -5   0  -7 13281.8 1628.47  15
   5   0   7 9808.45 1496.40  14
   5   0   7 12996.7 1559.70   6
  -5   0  -8 126519. 5334.08  15
   5   0   8 119536. 5118.62   6
  -5   0  -9 26210.7 2107.53  15
   5   0   9 24470.7 1992.15   6
  -5   0 -10 25657.2 1940.05  15
   5   0  10 25070.5 1829.18   6
  -5   0 -11 480.107 198.079  15
   5   0  11 583.937 234.333   6
  -5   0 -12 14089.2 1073.63  15
  -5   0 -13 12966.8 819.522  15
   5   1 -16 2884.70 354.151  15
   5   1 -15 25461.7 1351.49  15
   5   1 -15 18186.0 1023.25  12
   5   1 -14 32124.7 1773.43  15
   5   1 -14 29505.6 1635.76  12
   5   1 -13 15444.9 1321.31  15
   5   1 -13 14558.5 1275.34  12
   5   1 -12 2080.77 519.664  15
   5   1 -12 2216.08 532.860  12
   5   1 -11 13226.4 1358.43  15
  -5  -1  10 18602.4 1921.24   1
   5   1 -10 23511.4 2242.66   2
  -5  -1   9 15187.7 1603.69   1
   5   1  -9 17082.7 1847.57   2
  -5  -1   8 11617.3 1284.26   1
   5   1  -8 11384.7 1479.07   2
  -5  -1   7 2393.76 530.964   1
   5   1  -7 1780.26 584.341   2
  -5  -1   6 97778.2 3820.36   1
   5   1  -6 82770.8 3950.94   2
  -5  -1   5 34273.5 2048.80   1
   5   1  -5 26526.7 2042.97   2
  -5  -1   4 16319.0 1376.72   1
  -5  -1   3 3648.69 636.766   1
   5   1  -3 3519.31 647.123  14
   5   1  -3 3179.83 574.825   6
   5   1  -3 3511.14 584.181  16
   5   1  -2 42002.5 2328.26  14
  -5  -1   2 43765.6 2307.03   1
   5   1  -2 36432.9 2185.37   6
   5   1  -2 41140.2 2163.07  16
   5   1  -1 96343.3 3784.86  14
   5   1  -1 85984.9 3688.56   6
   5   1  -1 97198.5 3593.29  16
   5   1   0 151429. 5185.93  14
   5   1   0 142998. 5181.10   6
   5   1   0 160726. 5117.43  16
   5   1   1 126074. 4597.42  14
   5   1   1 124831. 4693.41   6
  -5  -1  -2 1126.45 359.163  15
   5   1   2 1706.13 519.369  14
   5   1   2 1682.17 508.038   6
   5   1   3 20342.7 1879.02  14
  -5  -1  -3 17072.7 1621.55  15
   5   1   3 21678.6 1969.59   6
  -5  -1  -4 35039.7 2516.41  15
   5   1   4 37895.3 2778.91  14
   5   1   4 41228.2 2919.80   6
  -5  -1  -5 47599.2 3078.54  15
   5   1   5 51294.2 3444.26  14
   5   1   5 58694.7 3591.79   6
  -5  -1  -6 2077.82 648.438  15
   5   1   6 2548.36 787.775  14
   5   1   6 2920.90 794.474   6
  -5  -1  -7 1866.10 525.606  15
   5   1   7 2243.14 640.522   6
   5   1   8 50482.0 3041.60   6
  -5  -1  -8 49660.2 2948.51  15
  -5  -1  -9 53860.3 2802.82  15
   5   1   9 52357.0 2844.41   6
  -5  -1 -10 11389.7 1076.02  15
   5   1  10 11499.3 1110.96   6
  -5  -1 -11 3183.80 467.259  15
   5   1  11 3390.78 499.054   6
   5   2 -15 24649.9 1308.09  12
   5   2 -14 32726.7 1689.68  15
   5   2 -14 38172.2 1943.26  12
   5   2 -13 56935.1 2580.50  15
   5   2 -13 62224.9 2897.11  12
   5   2 -12 6608.72 867.830  15
   5   2 -12 7880.80 1026.31  12
   5   2 -11 17190.8 1491.26  15
   5   2 -10 32959.4 2155.77  15
   5   2 -10 31780.6 2246.76  13
   5   2  -9 38507.7 2621.33  13
  -5  -2   9 38619.6 2639.49   1
   5   2  -9 46049.3 3198.35   2
  -5  -2   8 14294.9 1486.33   1
   5   2  -8 13347.6 1670.06   2
   5   2  -7 4211.67 909.696   2
  -5  -2   7 4614.05 776.912   1
  -5  -2   6 25508.4 1868.42   1
   5   2  -6 22406.6 2102.42   2
   5   2  -5 41192.1 2891.13   2
   5   2  -5 47023.3 2471.08  16
  -5  -2   4 57698.8 2811.16   1
   5   2  -4 50793.8 2584.36  16
  -5  -2   3 11815.8 1218.22   1
   5   2  -3 11429.8 1240.37  14
   5   2  -3 11638.8 1231.26   6
   5   2  -3 10863.2 1144.66  16
   5   2  -2 4939.07 789.171  14
  -5  -2   2 5359.46 796.268   1
   5   2  -2 5527.87 870.013   6
   5   2  -2 5115.06 772.343  16
   5   2  -1 80707.8 3672.04  14
   5   2  -1 86590.3 3845.04   6
   5   2  -1 89497.9 3770.56  16
   5   2   0 141692. 5283.74  14
   5   2   0 155076. 5605.43   6
   5   2   1 98079.8 4348.85  14
   5   2   1 110889. 4717.86   6
   5   2   2 8695.03 1225.09  14
   5   2   2 9112.19 1291.29   6
   5   2   3 12265.4 1563.80  14
  -5  -2  -3 11312.4 1355.87  15
   5   2   3 14791.0 1716.87   6
  -5  -2  -4 58568.5 3355.53  15
   5   2   4 59617.3 3755.64  14
  -5  -2  -5 51299.7 3166.02  15
   5   2   5 73030.1 4097.49   6
   5   2   6 34902.1 2696.99   6
   5   2   6 33933.4 2357.04  10
  -5  -2  -7 8072.91 1051.79  15
   5   2   7 8650.44 1205.51   6
   5   2   7 7592.87 996.432  10
  -5  -2  -8 2603.81 514.703  15
   5   2   8 3370.83 676.373   6
   5   2   9 19379.7 1465.19   6
   5   2  10 24112.7 1397.49   6
   5   3 -16 3048.84 373.320   9
   5   3 -15 5093.85 565.696  12
   5   3 -14 16858.3 1245.26  12
   5   3 -13 19024.0 1505.40  12
   5   3 -12 1027.00 356.673  12
   5   3 -11 6886.56 955.162  13
   5   3 -10 35090.5 2429.14  13
   5   3  -9 48304.9 3089.48  13
   5   3  -9 55584.0 3658.67   2
   5   3  -8 26568.1 2295.82  13
   5   3  -8 28418.3 2591.20   2
   5   3  -7 9511.32 1440.00  13
   5   3  -7 8955.67 1466.44   2
  -5  -3   7 6877.12 982.157   1
   5   3  -7 7563.43 1021.66  16
   5   3  -6 15996.9 2037.23   2
   5   3  -6 12718.0 1296.82  10
   5   3  -6 13468.2 1355.11  16
  -5  -3   6 13973.6 1385.39   1
  -5  -3   5 46264.4 2619.69   1
   5   3  -5 48002.9 2786.21  10
   5   3  -5 46850.8 2592.73  16
  -5  -3   4 79462.5 3544.21   1
   5   3  -4 82333.2 4096.99  10
   5   3  -4 81481.1 3590.08  16
   5   3  -3 75870.8 3511.02  16
   5   3  -3 81770.0 3640.44   6
  -5  -3   3 70969.1 3361.96   1
   5   3  -3 72834.1 4213.22  10
   5   3  -2 764.259 292.528  16
   5   3  -2 1099.99 447.210  14
   5   3  -2 1034.21 425.453   6
  -5  -3   2 1141.20 414.357   1
   5   3  -2 1183.49 469.116  10
   5   3  -1 5366.22 899.060  14
  -5  -3   1 6242.55 931.919   1
   5   3  -1 7788.40 1123.80   6
   5   3   0 41331.8 2704.58  14
  -5  -3   0 36557.6 2464.43   1
   5   3   1 75026.1 3976.05  14
   5   3   1 101121. 4594.92   6
   5   3   2 43684.9 3009.73   6
   5   3   2 42530.4 3489.20  10
   5   3   3 112.004 261.265   6
   5   3   3 484.986 422.391  10
   5   3   4 12477.4 1612.31   6
   5   3   4 15276.0 1737.64  10
   5   3   5 41343.6 2911.80   6
   5   3   5 42381.6 2658.85  10
   5   3   6 30500.4 2307.27   6
   5   3   6 27301.2 1859.06  10
   5   3   7 5254.53 841.397   6
   5   3   8 163.252 76.1415   6
   5   3   9 17981.9 1123.85   6
   5   4 -15 148.019 92.4306   9
   5   4 -15 229.831 104.906  12
   5   4 -14 6607.71 780.572   9
   5   4 -14 6218.21 686.179  12
   5   4 -13 52885.9 2497.15  12
   5   4 -12 8266.46 910.219  13
   5   4 -12 11113.8 1166.91  12
   5   4 -11 2197.60 548.129  13
   5   4 -11 2762.09 625.755  12
   5   4 -10 116.219 109.877  13
   5   4  -9 18367.4 1888.45  13
   5   4  -8 11193.7 1572.53  13
   5   4  -7 3695.54 989.717  13
   5   4  -6 2273.74 745.109  13
   5   4  -6 1470.73 502.856  10
   5   4  -5 5054.03 1238.07  13
   5   4  -5 4793.54 897.326  10
   5   4  -4 52171.3 3370.05  10
   5   4  -4 47840.2 4308.89  13
   5   4  -3 89869.0 3853.63   6
   5   4  -3 87652.7 4821.50  10
   5   4  -2 18670.0 2312.09  10
   5   4  -2 18978.3 2704.40  13
   5   4  -2 23590.6 1891.52   6
   5   4  -1 114.917 395.084  13
   5   4  -1 214.888 190.932   6
   5   4  -1 15.8795 293.195  10
   5   4   0 25196.5 2521.92  13
   5   4   0 28973.3 2301.61   6
   5   4   0 25209.2 2854.06  10
   5   4   1 60862.2 3506.82   6
   5   4   1 58355.7 4119.05  10
   5   4   2 67685.0 3813.48   6
   5   4   2 70343.9 4201.96  10
   5   4   3 15317.5 1699.22   6
   5   4   3 14952.2 1646.36  10
   5   4   4 17483.5 1579.29  10
   5   4   4 17710.6 1770.28   6
   5   4   5 22418.5 1832.22   6
   5   4   5 21218.9 1504.39  10
   5   4   6 25043.8 1729.28   6
   5   4   7 19382.2 1286.98   6
   5   5 -14 8733.10 710.295  12
   5   5 -13 13799.9 1048.38  12
   5   5 -12 20150.3 1374.61  13
   5   5 -12 26619.2 1665.93  12
   5   5 -11 14134.5 1300.11  13
   5   5 -11 14324.7 1331.12  12
   5   5 -10 366.883 115.288  13
   5   5 -10 570.006 264.876  12
   5   5  -9 24729.6 2167.01  13
   5   5  -9 19249.7 1763.24  12
   5   5  -8 14741.9 1776.06  13
   5   5  -7 20335.5 2389.17  13
   5   5  -7 17540.0 1449.65  10
   5   5  -6 8131.57 1674.82  13
   5   5  -6 7309.14 1018.54  10
   5   5  -5 3459.79 1183.61  13
   5   5  -5 4804.01 934.124  10
   5   5  -4 28574.7 3341.09  13
   5   5  -4 34797.6 2731.41  10
   5   5  -3 114434. 6590.12  13
   5   5  -3 114769. 5619.18  10
   5   5  -2 11755.4 1769.72  13
   5   5  -2 9479.57 1137.92   6
   5   5  -2 9908.57 1662.96  10
   5   5  -1 1911.89 558.237  13
   5   5  -1 1539.53 460.759   6
   5   5  -1 1441.90 665.779  10
   5   5   0 3211.05 686.576   6
   5   5   0 2298.18 854.162  10
   5   5   1 24588.6 2017.14   6
   5   5   1 26439.5 2337.94  10
   5   5   2 45212.4 2761.93   6
   5   5   2 49820.4 2877.59  10
   5   5   3 6764.88 959.618   6
   5   5   3 8529.88 988.185  10
   5   5   4-71.6664 79.0889  10
   5   5   4 481.489 205.714   6
   5   5   5 9031.02 860.662   6
   5   6 -12 15272.7 1010.40  13
   5   6 -12 18246.9 1129.16  12
   5   6 -11 10986.2 1007.94  13
   5   6 -11 10415.7 971.120  12
   5   6 -10 4652.60 746.473  13
   5   6 -10 4636.80 710.024  12
   5   6  -9 8842.65 1170.80  13
   5   6  -9 5878.45 878.437  12
   5   6  -8 29653.6 2515.98  13
   5   6  -7 23952.7 2448.06  13
   5   6  -7 19293.2 1404.15  10
   5   6  -6 29687.8 2923.89  13
   5   6  -6 30904.4 1999.42  10
   5   6  -5 20099.3 2475.84  13
   5   6  -5 21192.6 1836.72  10
   5   6  -4 93.2338 187.298  13
   5   6  -4 474.705 253.580  10
   5   6  -3 31749.7 2590.50  13
   5   6  -3 31160.7 2568.16  10
   5   6  -2 22740.0 1817.33  13
   5   6  -2 25823.1 2294.71  10
   5   6  -1 20034.1 1970.56  10
   5   6   0 2947.99 661.857  10
   5   6   1 5715.77 769.182   6
   5   6   1 7047.19 882.010  10
   5   6   2 17720.3 1257.09   6
   5   6   2 18661.6 1203.66  10
   5   7 -10 13427.3 1105.34  13
   5   7  -9 1402.40 453.001  13
   5   7  -8 4386.24 834.211  13
   5   7  -7 30810.4 2332.29  13
   5   7  -7 21586.0 1243.39  10
   5   7  -6 27178.9 2189.65  13
   5   7  -6 23283.4 1471.55  10
   5   7  -5 7637.39 1037.82  13
   5   7  -5 7469.81 903.609  10
   5   7  -4 433.611 278.494  10
   5   7  -3 13660.3 1315.33  10
   5   7  -2 26861.4 1758.88  10
   5   7  -1 12760.2 1033.20  10
  -6  12  -1 807.254 302.470   8
  -6  12  -2 5742.23 851.295   8
  -6  12  -2 5294.53 647.762   5
  -6  12  -3 8729.27 1047.59   8
  -6  12  -3 14681.7 1213.89   5
  -6  12  -4 15927.3 1379.46   5
  -6  12  -5 1808.78 487.698   5
  -6  12  -6 10464.2 1215.12   5
  -6  12  -7 12104.4 1276.30   5
  -6  12  -8 14511.0 1239.65   5
  -6  11   3 135.092 124.181   8
  -6  11   2 11141.3 1043.49   8
  -6  11   1 50085.0 2670.50   8
  -6  11   0 6361.75 1022.55   8
  -6  11   0 4151.47 587.613   5
  -6  11  -1 4105.65 916.822   8
  -6  11  -1 3523.67 602.344   5
  -6  11  -2 1976.17 547.071   5
  -6  11  -2 1866.92 661.287   8
  -6  11  -3 22644.4 2422.39   8
  -6  11  -3 23978.0 1897.61   5
  -6  11  -4 36348.0 2486.48   5
  -6  11  -4 30255.7 2709.12   8
  -6  11  -5 10014.1 1345.30   5
  -6  11  -5 6494.89 1057.39   8
  -6  11  -5 9616.82 1043.51   4
  -6  11  -6 604.698 388.190   5
  -6  11  -6-39.0590 94.6676   4
  -6  11  -7 11084.0 1115.34   4
  -6  11  -7 7702.78 1219.19   5
  -6  11  -8 33264.7 2395.58   5
  -6  11  -8 35266.3 2008.33   4
  -6  11  -9 34710.7 2130.68   5
  -6  11  -9 34766.7 1861.73   4
  -6  11 -10 11110.7 879.415   4
  -6  11 -10 8907.20 850.360   5
  -6  10   5 14616.8 1025.44   8
  -6  10   4 5136.89 715.023   8
  -6  10   3 1689.13 473.755   8
  -6  10   2 17637.7 1684.27   8
  -6  10   1 34004.4 2567.57   8
  -6  10   1 27476.2 1768.02   5
  -6  10   0 34881.0 2849.25   8
  -6  10   0 32053.0 2048.08   5
  -6  10  -1 18754.4 1608.94   5
  -6  10  -1 20350.6 2336.96   8
  -6  10  -2 631.584 253.870   5
  -6  10  -2 438.564 380.334   8
  -6  10  -3 21662.6 1657.46   4
  -6  10  -3 18930.1 2526.77   8
  -6  10  -3 18741.3 1795.29   5
  -6  10  -4 40837.6 2891.12   5
  -6  10  -4 38473.6 3522.60   8
  -6  10  -4 43471.9 2483.74   4
  -6  10  -5 18962.8 2210.75   8
  -6  10  -5 20372.2 1684.45   4
  -6  10  -5 21447.1 2146.58   5
  -6  10  -6 904.366 405.725   5
  -6  10  -6 1331.35 426.220   4
  -6  10  -7 7129.82 1305.41   5
  -6  10  -7 9838.35 1137.43   4
  -6  10  -7 8809.19 993.791  11
  -6  10  -8 28954.0 2411.63   5
  -6  10  -8 28897.6 1970.78   4
  -6  10  -8 28613.5 1899.50  11
  -6  10  -9 56105.2 3080.97   5
  -6  10  -9 52235.9 2584.19   4
  -6  10  -9 50798.7 2650.70  11
  -6  10 -10 7760.21 908.771   5
  -6  10 -10 7323.18 814.237   4
  -6  10 -10 6851.78 906.961  11
  -6  10 -11 249.521 86.7707   4
  -6  10 -11 342.588 197.433  11
  -6  10 -12 6494.93 708.326  11
  -6  10 -13 21704.2 1130.04  11
  -6   9   7 1066.48 272.561   7
  -6   9   6 11766.1 1028.28   8
  -6   9   6 10140.8 1025.66   7
  -6   9   5 34873.3 2141.60   8
  -6   9   5 32363.2 2134.43   3
  -6   9   4 13650.7 1445.00   8
  -6   9   4 12949.4 1464.85   3
  -6   9   3 757.070 374.977   8
  -6   9   3 567.166 375.816   3
  -6   9   2 2488.61 667.584   8
  -6   9   2 1005.59 515.415   3
  -6   9   1 32662.4 2077.36   5
  -6   9   1 33436.4 2776.84   8
  -6   9   0 18607.7 2149.72   8
  -6   9   0 19270.3 1648.40   5
  -6   9  -1 26211.6 2755.86   8
  -6   9  -1 25602.3 1994.55   5
  -6   9  -2 9570.44 1237.05   5
  -6   9  -2 9943.94 1160.80   4
  -6   9  -2 8251.62 1653.38   8
  -6   9  -3 13685.9 1375.06   4
  -6   9  -3 12814.5 2123.92   8
  -6   9  -4 66603.6 3256.58   4
  -6   9  -4 63203.1 2967.99  11
  -6   9  -5 18539.5 2277.77   8
  -6   9  -5 19036.6 1701.14   4
  -6   9  -5 19093.5 1567.00  11
  -6   9  -6 22951.9 2219.37   8
  -6   9  -6 25501.8 1986.25   4
  -6   9  -6 28384.7 1995.79  11
  -6   9  -7 5001.10 885.916   4
  -6   9  -7 5704.53 916.320  11
  -6   9  -8 4334.76 768.907   4
  -6   9  -8 5084.33 869.696  11
  -6   9  -9 50528.9 2611.23   4
  -6   9  -9 55090.7 3147.42  11
  -6   9 -10 22479.1 1516.07   4
  -6   9 -10 24772.5 2008.16  11
  -6   9 -11 5689.00 705.131   5
  -6   9 -11 6470.87 925.612  11
  -6   9 -12 1090.15 339.574  11
  -6   9 -13 17407.5 1236.22  11
  -6   9 -14 40397.0 1658.55  11
  -6   8   9 14406.1 1005.95   7
  -6   8   8 38004.8 1991.74   3
  -6   8   8 35528.7 2013.75   7
  -6   8   7 9741.09 969.956   8
  -6   8   7 12046.8 1274.65   7
  -6   8   7 12666.4 1257.27   3
  -6   8   6 10402.4 1188.31   8
  -6   8   6 9739.87 1280.94   7
  -6   8   6 10543.6 1272.53   3
  -6   8   5 50612.1 3006.08   8
  -6   8   5 47535.7 3038.00   3
  -6   8   4 38149.6 2686.99   8
  -6   8   4 40206.0 2977.34   3
  -6   8   3 29144.1 2429.30   8
  -6   8   3 22646.2 1937.30   7
  -6   8   3 28972.1 2726.42   3
  -6   8   2 3864.47 921.234   8
  -6   8   2 3775.16 1047.02   3
  -6   8   1 4807.85 767.159   5
  -6   8   1 3766.50 957.512   8
  -6   8   1 3109.35 825.357   3
  -6   8   0 1308.59 578.364   3
  -6   8   0 2057.46 545.203  17
  -6   8  -1 21219.6 1717.10   4
  -6   8  -1 19833.1 2387.99   8
  -6   8  -2 10054.8 1137.39   4
  -6   8  -2 10230.2 1752.70   8
  -6   8  -2 7629.56 1301.22  17
  -6   8  -3 5167.30 835.669   4
  -6   8  -3 4658.59 1157.33   8
  -6   8  -3 5089.46 795.636  11
  -6   8  -3 4441.37 1045.11  17
  -6   8  -4 29219.3 3141.73   8
  -6   8  -4 32324.1 2211.74   4
  -6   8  -4 34866.4 2197.91  11
  -6   8  -4 28219.7 2921.56  17
  -6   8  -5 54209.7 4060.40   8
  -6   8  -5 55106.3 2982.86   4
  -6   8  -5 61167.1 3103.57  11
  -6   8  -5 49753.3 3970.38  17
  -6   8  -6 20724.4 2151.90   8
  -6   8  -6 20025.2 1752.06   4
  -6   8  -6 22258.0 1892.90  11
  -6   8  -7 871.612 379.637   4
  -6   8  -7 884.516 377.288  11
  -6   8  -8-30.9817 201.429   4
  -6   8  -8 531.189 375.604  11
  -6   8  -9 43464.4 2356.24   4
  -6   8  -9 53067.5 3251.84  11
  -6   8 -10 30963.1 2376.69  11
  -6   8 -11 21178.4 1857.29  11
  -6   8 -12 1680.97 473.170  11
  -6   8 -13 10614.1 1045.03  11
  -6   8 -14 48831.8 2042.98  11
  -6   7  10 8224.08 798.909   3
  -6   7  10 7241.84 770.561   7
  -6   7   9 17853.8 1454.26   7
  -6   7   9 16964.0 1368.42   3
  -6   7   8 27988.2 1989.91   3
  -6   7   7 8455.94 1053.08   8
  -6   7   7 9585.05 1223.58   3
  -6   7   6 2283.25 632.293   8
  -6   7   6 1632.06 561.450   3
  -6   7   5 47172.9 3024.60   8
  -6   7   5 44911.6 3201.92   3
  -6   7   4 47925.7 3148.83   8
  -6   7   4 48452.7 3515.21   3
  -6   7   3 35639.6 2716.05   8
  -6   7   2 5919.12 1095.19   8
  -6   7   1 881.374 419.299   8
  -6   7   1 258.371 135.595  17
  -6   7   0 30913.7 2703.56   8
  -6   7   0 24128.7 2040.08  17
  -6   7  -1 51352.7 2725.83   4
  -6   7  -1 54129.8 3809.42   8
  -6   7  -1 45126.3 3101.17  17
  -6   7  -2 82115.6 3607.18   4
  -6   7  -2 83044.2 5069.39   8
  -6   7  -2 88608.5 3687.81  11
  -6   7  -2 80743.3 4613.50  17
  -6   7  -3 25260.7 1867.37   4
  -6   7  -3 28407.0 1970.46  11
  -6   7  -3 26659.6 2701.68  17
  -6   7  -4 12986.8 1325.59   4
  -6   7  -4 14160.8 1411.72  11
  -6   7  -4 12474.7 1903.80  17
  -6   7  -5 15782.0 1479.68   4
  -6   7  -5 17843.4 2182.67  17
  -6   7  -5 20638.5 1777.07  11
  -6   7  -6 39551.7 3031.44   8
  -6   7  -6 37341.1 2366.99   4
  -6   7  -6 51977.4 3030.40  11
  -6   7  -6 47199.0 3456.43  17
  -6   7  -7 28973.7 2339.95  11
  -6   7  -7 22484.2 2170.24  17
  -6   7  -8 4087.03 913.774  11
  -6   7  -9 19211.9 1971.39  11
  -6   7 -10 50985.5 3212.24  11
  -6   7 -11 79999.8 3889.99  11
  -6   7 -12 35690.1 2276.99  11
  -6   7 -13 91.9426 65.0573  11
  -6   7 -14 12373.1 967.136  11
  -6   6  12 46000.6 1807.27   7
  -6   6  11 2420.10 442.002   3
  -6   6  10 6173.59 849.579   3
  -6   6   9 23363.1 1876.86   3
  -6   6   8 38301.3 2650.15   3
  -6   6   7 70158.6 3474.55   8
  -6   6   6 17012.4 1717.67   8
  -6   6   5 12144.5 1467.03   8
  -6   6   4 11513.0 1448.79   8
  -6   6   3 55227.3 3337.40   8
  -6   6   2 8803.89 1059.22  17
  -6   6   1 28.1883 94.8208  17
   6  -6   0 3058.33 541.247   2
  -6   6   0 2913.15 702.119  17
  -6   6  -1 24282.9 1783.11   4
  -6   6  -1 30321.2 2012.62  11
  -6   6  -1 29391.5 2529.08  17
  -6   6  -2 74486.5 3305.49  11
  -6   6  -2 74980.4 4472.18  17
  -6   6  -3 77256.0 3415.44  11
  -6   6  -3 72284.0 4520.97  17
  -6   6  -4 19591.7 1697.99  11
  -6   6  -4 19102.9 2263.40  17
  -6   6  -5 42775.0 2692.46  11
  -6   6  -5 43016.2 3321.13  17
  -6   6  -6 51320.6 3078.34  11
  -6   6  -6 49180.7 3329.08  17
  -6   6  -7 19388.0 1725.00  15
  -6   6  -7 25300.9 2191.46  11
  -6   6  -7 21589.4 2002.99  17
  -6   6  -8 10253.2 1268.22  15
  -6   6  -8 11337.5 1488.75  11
  -6   6  -8 7336.62 1047.42  17
  -6   6  -9 1724.59 503.978  15
  -6   6  -9 631.978 355.357  11
  -6   6 -10 30501.4 2278.66  15
  -6   6 -10 35810.1 2584.65  11
  -6   6 -11 49604.6 2828.31  15
  -6   6 -11 59930.9 3194.66  11
  -6   6 -12 53238.7 2717.73  15
  -6   6 -12 65903.7 3089.44  11
  -6   6 -13 8616.61 933.501  11
  -6   6 -14 1850.84 344.339  11
  -6   5  13 12800.4 879.678   7
   6  -5 -12 31823.3 1430.09  15
  -6   5  12 46839.4 1956.71   3
   6  -5 -11 9907.54 889.047  15
  -6   5  11 11375.0 1125.09   3
   6  -5 -10 573.708 238.009  15
  -6   5  10 658.533 321.666   3
   6  -5  -9 6412.63 922.056  15
   6  -5  -8 26406.3 1980.05  15
   6  -5  -7 14694.6 1463.10  15
  -6   5   6 48595.1 2972.59   8
  -6   5   5 5840.42 960.889   8
   6  -5  -3 51303.9 2578.32   2
  -6   5   3 51950.3 2638.11  17
   6  -5  -2 55613.0 2704.15   2
  -6   5   2 59359.9 2972.55  17
   6  -5  -1 12012.6 1166.74   2
  -6   5   1 14340.6 1490.51  17
  -6   5   0 2957.42 594.542  11
  -6   5   0 2371.25 699.372  17
  -6   5  -1 29830.0 1981.29  11
  -6   5  -1 31741.4 2716.02  17
  -6   5  -2 25416.2 1843.69  11
  -6   5  -2 27298.1 2621.99  17
  -6   5  -3 124366. 4499.31  11
  -6   5  -3 127528. 5907.49  17
  -6   5  -4 17307.9 1608.82  11
  -6   5  -4 18742.8 2052.98  17
  -6   5  -5 23434.5 1823.29  15
  -6   5  -5 28238.8 2184.00  11
  -6   5  -5 28895.0 2412.10  17
  -6   5  -6 71488.8 3537.26  15
  -6   5  -6 80814.4 3989.35  17
  -6   5  -6 83008.5 4016.19  11
  -6   5  -7 121807. 4935.43  15
  -6   5  -7 126023. 5270.89  11
  -6   5  -8 49174.3 2967.55  15
  -6   5  -8 49470.4 3099.45  11
  -6   5  -9 13430.8 1554.35  15
  -6   5  -9 13382.1 1574.07  11
  -6   5 -10 8953.27 1218.24  15
  -6   5 -10 8193.88 1165.16  11
  -6   5 -11 75838.4 3701.09  15
  -6   5 -11 82069.3 3685.68  11
  -6   5 -12 88079.8 3783.02  15
  -6   5 -12 94386.0 3669.73  11
  -6   5 -13 8245.85 906.493  15
  -6   5 -13 7734.40 793.049  11
  -6   5 -14 1480.22 321.746  15
  -6   5 -14 793.819 188.174  11
   6  -4 -13 465.850 165.066  15
   6  -4 -12 39180.7 1937.67  15
  -6   4  12 36888.6 2021.42   3
   6  -4 -11 43874.1 2346.29  15
  -6   4  11 44658.9 2625.91   3
   6  -4 -10 21291.1 1724.89  15
   6  -4  -9 124.912 239.709  15
   6  -4  -8 10975.2 1293.50  15
  -6   4   7 21300.0 1965.72   1
   6  -4  -7 34120.4 2302.66   2
  -6   4   6 29157.9 2178.99   8
   6  -4  -6 31664.9 2128.76   2
   6  -4  -5 11547.3 1233.70   2
  -6   4   5 9948.56 1110.70   1
   6  -4  -4 4385.34 737.990   2
  -6   4   4 3506.43 588.216   1
  -6   4   4 3023.25 566.755  17
   6  -4  -3 15908.4 1358.74   2
  -6   4   3 15396.4 1410.09  17
  -6   4   3 15563.5 1191.89   1
  -6   4   2 117111. 4477.96  15
  -6   4   2 130291. 4068.14   1
   6  -4  -2 122628. 4363.64   2
  -6   4   2 138289. 5157.50  17
  -6   4   1 3277.42 505.763   1
  -6   4   1 3057.30 750.584  17
  -6   4   0 1658.65 433.102  11
  -6   4   0 1590.87 332.575   1
  -6   4   0 1977.28 666.477  17
  -6   4  -1 1611.66 426.644  11
  -6   4  -1 1146.12 291.529   1
  -6   4  -1 1143.62 565.237  17
  -6   4  -2 7456.45 1403.43  17
  -6   4  -2 6276.34 870.079  11
  -6   4  -3 51197.1 2714.64  15
  -6   4  -3 54908.7 2847.06  11
  -6   4  -4 71121.1 3357.44  15
  -6   4  -4 71804.4 3448.70  11
  -6   4  -5 6126.17 918.420  15
  -6   4  -5 6302.78 1000.13  11
  -6   4  -5 6685.10 1061.73  17
  -6   4  -6 38717.1 2577.39  15
  -6   4  -6 38051.5 2610.93  11
  -6   4  -6 34293.7 2393.40  17
  -6   4  -7 87277.3 4156.94  15
  -6   4  -7 79261.4 4008.12  11
  -6   4  -8 36783.7 2666.91  15
  -6   4  -8 31692.3 2424.48  11
  -6   4  -9 33572.9 2578.51  15
  -6   4  -9 34656.3 2444.21  11
  -6   4 -10 2303.50 650.889  15
  -6   4 -10 2719.78 639.475  11
  -6   4 -11 16819.0 1605.32  15
  -6   4 -11 16865.6 1419.94  11
  -6   4 -12 53531.7 2726.00  15
  -6   4 -12 43633.3 2104.27  11
  -6   4 -13 38426.7 2069.33  15
  -6   4 -14 10097.3 847.925  15
   6  -3 -14 6368.03 599.702  15
   6  -3 -13 148.195 108.840  15
  -6   3  13 166.459 54.4178   3
   6  -3 -12 16871.0 1357.21  15
  -6   3  12 15578.7 1385.37   3
   6  -3 -11 49383.3 2669.84  15
   6  -3 -10 38224.6 2439.40  15
   6  -3  -9 10517.1 1259.32  15
   6  -3  -9 10452.3 1347.66   2
  -6   3   8 7878.82 1215.64   1
   6  -3  -8 10596.9 1333.79   2
   6  -3  -7 1454.92 475.362   2
  -6   3   7 958.609 397.067   1
  -6   3   6 20428.7 1687.64   1
   6  -3  -6 23496.2 1883.92   2
   6  -3  -5 82834.9 3645.45   2
  -6   3   5 81638.8 3372.83   1
  -6   3   4 37763.8 2055.88   1
   6  -3  -4 35945.8 2202.47   2
  -6   3   4 30727.5 2045.71  17
  -6   3   3 10189.1 1156.19  15
   6  -3  -3 9809.39 1064.01   2
  -6   3   3 10166.7 1002.40   1
  -6   3   3 10713.8 1295.46  17
  -6   3   2 160514. 5466.11  15
  -6   3   2 166928. 5080.37   1
  -6   3   1 98096.2 3530.18   1
   6  -3  -1 97649.2 3363.92  16
  -6   3   0 104410. 3635.34   1
   6  -3   0 101750. 3394.04  16
   6  -3   1 66.7667 53.6221  16
   6  -3   1 117.722 101.041  14
  -6   3  -2 537.986 200.864  15
   6  -3   2 568.950 223.123  14
   6  -3   3 49284.6 2339.15  14
  -6   3  -3 48937.2 2709.76  15
  -6   3  -4 124130. 4760.91  15
   6  -3   4 117413. 4155.73  14
  -6   3  -4 128179. 5233.38  17
  -6   3  -5 39549.6 2590.45  15
   6  -3   5 30370.8 2052.71  14
  -6   3  -5 26232.8 2049.92  11
  -6   3  -5 35497.5 2434.44  17
  -6   3  -6 3186.42 759.395  15
  -6   3  -6 2021.37 568.488  11
  -6   3  -6 2197.08 577.338  17
  -6   3  -7 34165.0 2398.51  11
  -6   3  -7 28210.9 2043.76  17
  -6   3  -8 89228.3 4436.30  15
  -6   3  -8 75823.7 3690.08  11
  -6   3  -9 35895.8 2668.92  15
  -6   3 -10 16326.5 1694.36  15
  -6   3 -11 4708.09 817.094  15
  -6   3 -12 38891.1 2246.29  15
  -6   3 -13 40428.7 2022.08  15
  -6   3 -14 14393.0 946.539  15
   6  -2 -15 15689.1 868.311  15
   6  -2 -14 29743.4 1520.18  15
   6  -2 -13 1485.94 360.811  15
   6  -2 -12 1118.19 355.899  15
   6  -2 -11 58535.3 3050.58  15
   6  -2 -10 113547. 4671.41  15
   6  -2 -10 122873. 5178.84   2
  -6   2   9 53546.8 3458.20   1
   6  -2  -9 79908.6 3967.53   2
   6  -2  -8 3670.59 820.821   2
  -6   2   8 1599.99 560.808   1
  -6   2   7 7059.50 1037.45   1
   6  -2  -7 7794.79 1155.46   2
  -6   2   6 28109.3 1942.12   1
   6  -2  -6 33435.2 2313.69   2
  -6   2   5 66630.1 2989.81   1
   6  -2  -5 67361.1 3230.51   2
  -6   2   4 50662.8 2762.69  15
   6  -2  -4 43990.1 2501.75   2
  -6   2   4 48782.4 2473.35   1
  -6   2   3 9274.46 1124.55  15
   6  -2  -3 8427.61 1020.30   2
  -6   2   3 8985.48 982.614   1
  -6   2   2 147992. 5145.29  15
  -6   2   2 162071. 4917.32   1
  -6   2   1 23918.2 1619.05   1
   6  -2  -1 23540.3 1522.95  16
  -6   2   0 39348.6 2357.75  15
   6  -2   0 44588.4 2226.67  14
   6  -2   0 45141.8 2169.51  16
  -6   2  -1 10670.2 1195.04  15
   6  -2   1 10922.3 1059.45  14
   6  -2   1 10759.6 1038.76  16
  -6   2  -2 7460.33 978.043  15
   6  -2   2 7788.10 930.073  14
  -6   2  -3 53269.4 2969.96  15
   6  -2   3 54774.0 2776.11  14
  -6   2  -4 83677.9 3975.55  15
   6  -2   4 81208.4 3708.05  14
  -6   2  -5 61760.0 3498.23  15
   6  -2   5 59514.7 3293.79  14
  -6   2  -5 55728.8 3190.25  17
  -6   2  -6 20541.5 2006.68  15
   6  -2   6 17632.4 1793.29  14
  -6   2  -6 15351.3 1518.67  17
  -6   2  -7 20007.8 2010.48  15
   6  -2   7 13564.5 1637.81  14
  -6   2  -8 99148.8 4793.89  15
  -6   2  -9 45977.1 3013.46  15
  -6   2 -10 12455.8 1421.44  15
  -6   2 -11 1825.60 492.527  15
  -6   2 -12 1363.48 367.619  15
  -6   2 -13 27437.5 1466.07  15
   6  -1 -15 7168.11 618.901  15
   6  -1 -14 25182.8 1452.96  15
   6  -1 -13 13185.0 1179.15  15
   6  -1 -12 2249.44 550.566  15
   6  -1 -11 7561.42 1022.91  15
   6  -1 -11 5155.87 775.087  12
   6  -1 -10 16526.1 1836.05   2
  -6   1   9 20731.3 1989.31   1
   6  -1  -9 25660.4 2300.04   2
   6  -1  -8 1515.91 551.707   2
  -6   1   8 1224.52 409.995   1
  -6   1   7 8159.55 1079.40   1
   6  -1  -7 8967.71 1242.51   2
  -6   1   6 29052.9 1992.08   1
   6  -1  -6 29141.7 2206.89   2
   6  -1  -5 63775.1 3232.80   2
  -6   1   5 65168.6 3065.99   1
  -6   1   4 112344. 4523.86  15
   6  -1  -4 102580. 4229.68   2
  -6   1   4 117122. 4266.48   1
  -6   1   3 14525.4 1446.30  15
   6  -1  -3 14059.6 1354.18   2
  -6   1   3 16954.7 1435.94   1
  -6   1   2 10286.4 1170.59  15
   6  -1  -2 8912.06 1035.98   2
  -6   1   2 10338.6 1101.11   1
   6  -1  -2 9799.19 1007.67  16
   6  -1  -1 63550.5 2866.69  14
   6  -1  -1 47564.1 2632.29   2
  -6   1   1 56628.5 2938.82  15
   6  -1  -1 50000.1 2601.05   6
  -6   1   1 61414.5 2880.21   1
   6  -1  -1 58491.4 2635.83  16
  -6   1   0 102515. 4151.59  15
   6  -1   0 112963. 4052.33  14
   6  -1   0 81202.7 3684.53   2
   6  -1   0 89507.7 3761.84   6
   6  -1   0 113666. 3884.46  16
  -6   1  -1 15564.4 1489.28  15
   6  -1   1 18058.6 1523.12  14
   6  -1   1 12637.3 1307.27   2
   6  -1   1 15251.9 1423.56   6
   6  -1   1 16264.2 1356.27  16
  -6   1  -2 15823.0 1537.77  15
   6  -1   2 17773.2 1561.95  14
   6  -1   2 13787.7 1396.12   6
  -6   1  -3 28408.2 2184.13  15
   6  -1   3 27548.7 2087.34  14
   6  -1   3 22907.9 1952.67   6
  -6   1  -4 70187.4 3748.45  15
   6  -1   4 69092.1 3672.96  14
   6  -1   4 65278.3 3545.81   6
  -6   1  -5 80609.2 4210.33  15
   6  -1   5 79520.1 4182.42  14
   6  -1   5 78021.5 4032.83   6
  -6   1  -6 62240.4 3700.11  15
   6  -1   6 61551.5 3490.49   6
  -6   1  -7 4585.01 977.345  15
   6  -1   7 3605.00 784.918   6
  -6   1  -8 82605.6 4186.44  15
   6  -1   8 77365.9 3758.01   6
  -6   1  -9 43807.6 2793.82  15
  -6   1 -10 52517.3 2815.27  15
  -6   1 -11 10031.0 1033.77  15
  -6   1 -12 339.949 151.445  15
   6   0 -15 3713.78 442.871  15
   6   0 -14 47866.9 2110.82  15
   6   0 -13 39412.4 2088.07  15
   6   0 -13 31536.2 1703.14  12
   6   0 -12 21008.1 1642.56  15
   6   0 -12 18778.0 1478.08  12
   6   0 -11 2504.43 570.822  15
   6   0 -11 2792.76 729.158   2
   6   0 -10 17594.0 1941.43   2
  -6   0   9 52961.0 3243.43   1
   6   0  -9 66658.0 3881.23   2
  -6   0   8 44384.6 2818.15   1
   6   0  -8 49618.3 3207.28   2
   6   0  -7 4733.54 907.923   2
  -6   0   7 4381.26 810.872   1
  -6   0   6 17425.8 1570.52   1
   6   0  -6 17548.1 1771.26   2
  -6   0   5 30031.8 2087.11   1
   6   0  -5 26406.3 2112.82   2
  -6   0   4 35880.4 2402.69  15
   6   0  -4 34895.9 2380.15   2
  -6   0   4 41586.5 2427.02   1
  -6   0   3 32703.1 2238.88  15
   6   0  -3 27102.5 2082.52   2
   6   0  -3 31413.2 1988.26  16
   6   0  -2 1508.79 423.581  16
  -6   0   2 1614.00 428.009  15
   6   0  -2 2197.95 543.420  14
  -6   0   2 1796.57 481.799   1
   6   0  -2 1858.45 527.145   6
   6   0  -2 1090.38 393.861   2
  -6   0   1 21835.2 1780.16  15
   6   0  -1 17813.3 1656.64   2
   6   0  -1 23047.9 1797.42  14
   6   0  -1 21512.3 1746.39   6
  -6   0   1 23588.3 1775.80   1
   6   0  -1 21619.4 1626.96  16
  -6   0   0 52706.6 2885.77  15
   6   0   0 56899.4 2945.70  14
   6   0   0 53075.0 2903.56   6
   6   0   0 56700.8 2817.89  16
  -6   0  -1 81259.3 3732.95  15
   6   0   1 87791.4 3889.48  14
   6   0   1 87412.6 3927.66   6
  -6   0  -2 14836.3 1550.76  15
   6   0   2 15778.7 1623.60  14
   6   0   2 15942.4 1646.02   6
  -6   0  -3 415.215 208.354  15
   6   0   3 412.382 224.327  14
   6   0   3 127.311 246.910   6
  -6   0  -4 13230.7 1578.22  15
   6   0   4 12378.9 1588.48  14
   6   0   4 14445.3 1690.50   6
  -6   0  -5 30251.4 2506.68  15
   6   0   5 30182.0 2619.74  14
   6   0   5 35634.1 2704.80   6
  -6   0  -6 77288.1 4203.95  15
   6   0   6 87151.6 4346.05   6
  -6   0  -7 24519.0 2161.54  15
   6   0   7 23983.0 2081.42   6
  -6   0  -8 12586.1 1436.88  15
   6   0   8 12990.4 1403.98   6
  -6   0  -9 26389.9 1910.80  15
   6   0   9 25436.9 1759.44   6
  -6   0 -10 18873.4 1389.53  15
   6   0  10 13886.8 1091.66   6
  -6   0 -11 13640.4 988.169  15
   6   1 -15 45.7928 50.8586  15
   6   1 -14 9842.69 827.342  15
   6   1 -14 10320.2 838.764  12
   6   1 -13 57949.6 2549.26  15
   6   1 -13 60096.9 2616.47  12
   6   1 -12 13272.7 1235.76  15
   6   1 -12 12983.5 1282.17  12
   6   1 -11 2135.48 543.191  15
   6   1 -10 7056.69 1237.63   2
   6   1  -9 38269.0 2565.43  13
   6   1  -9 44404.7 3141.98   2
  -6  -1   8 79958.2 3982.20   1
   6   1  -8 94469.2 4690.97   2
  -6  -1   7 44794.2 2724.38   1
   6   1  -7 46319.9 3126.07   2
   6   1  -6-19.9680 123.472   2
  -6  -1   6 501.116 223.561   1
  -6  -1   5 1341.20 432.847   1
   6   1  -5 924.378 459.445   2
   6   1  -5 1042.67 357.743  16
  -6  -1   4 26242.1 2031.66  15
  -6  -1   4 28638.7 2063.58   1
   6   1  -4 27363.5 2289.26   2
   6   1  -4 27733.0 1946.41  16
   6   1  -3 32993.4 2551.19   2
  -6  -1   3 32682.9 2261.74  15
  -6  -1   3 35829.9 2333.09   1
   6   1  -3 35123.2 2190.23  16
  -6  -1   2 13153.7 1404.34  15
   6   1  -2 11223.0 1545.10   2
  -6  -1   2 14978.2 1468.80   1
   6   1  -2 15769.4 1537.37  14
   6   1  -2 16892.6 1584.20   6
   6   1  -2 14726.1 1403.27  16
  -6  -1   1 5238.42 883.422  15
   6   1  -1 5692.38 927.670  14
  -6  -1   1 4903.95 829.102   1
   6   1  -1 3455.33 818.992   2
   6   1  -1 5470.19 906.467   6
   6   1  -1 5102.16 860.285  16
  -6  -1   0 39389.3 2528.74  15
   6   1   0 43293.2 2724.14  14
   6   1   0 46733.9 2901.48   6
  -6  -1  -1 65061.0 3416.97  15
   6   1   1 67419.0 3638.43  14
   6   1   1 76162.9 3898.31   6
  -6  -1  -2 10347.7 1299.40  15
   6   1   2 9846.26 1370.17  14
   6   1   2 10639.4 1441.05   6
  -6  -1  -3 3076.19 740.788  15
   6   1   3 2402.50 703.659  14
   6   1   3 3362.01 837.036   6
  -6  -1  -4 18394.2 1856.87  15
   6   1   4 19037.4 2015.01   6
  -6  -1  -5 24518.9 2173.50  15
   6   1   5 32803.6 2649.78   6
  -6  -1  -6 46234.5 2948.88  15
   6   1   6 49689.5 3158.40   6
  -6  -1  -7 33177.3 2284.13  15
   6   1   7 33486.5 2371.40   6
  -6  -1  -8 128.845 176.333  15
   6   1   8 17.3015 127.334   6
  -6  -1  -9 12248.9 1023.99  15
   6   1   9 13207.1 1107.89   6
   6   1  10-40.8504 149.063   6
   6   2 -14 5869.19 647.078  12
   6   2 -13 37011.7 2019.42  12
   6   2 -12 14078.9 1145.61  15
   6   2 -12 16359.1 1433.78  12
   6   2 -11 15430.6 1300.51  15
   6   2 -10 290.319 154.388  15
   6   2 -10 751.139 367.025  13
   6   2  -9 20902.1 1913.12  13
   6   2  -9 24029.1 2339.62   2
   6   2  -8 58733.4 3510.84  13
   6   2  -8 62868.8 3900.85   2
   6   2  -7 35131.9 2891.61   2
  -6  -2   7 26835.5 2092.27   1
   6   2  -6 607.888 413.265   2
  -6  -2   6 294.356 216.352   1
   6   2  -6 676.511 308.225  16
  -6  -2   5 14337.1 1483.71   1
   6   2  -5 15465.0 1961.80   2
   6   2  -5 14383.8 1423.90  10
   6   2  -5 12633.0 1348.27  16
  -6  -2   4 27120.6 2041.17   1
   6   2  -4 22516.9 2479.84   2
   6   2  -4 30178.3 2369.98  10
   6   2  -4 23589.9 1867.57  16
  -6  -2   3 60049.1 3175.39   1
   6   2  -3 61225.5 3166.35  16
  -6  -2   2 14957.4 1524.88   1
   6   2  -2 13890.6 1511.19  14
   6   2  -2 17083.5 1644.78   6
   6   2  -2 14906.5 1513.08  16
   6   2  -1 7100.45 1074.30  14
  -6  -2   1 6195.53 1001.86   1
   6   2  -1 8201.56 1175.07   6
   6   2   0 1504.52 491.687  14
   6   2   0 2304.99 687.666   6
  -6  -2   0 1778.22 502.133   1
   6   2   1 18241.7 1884.91  14
   6   2   1 26760.0 2303.01   6
   6   2   2 63430.2 3787.39   6
   6   2   3 49841.5 3354.28   6
   6   2   4 1091.19 439.169   6
   6   2   5 2146.53 639.112   6
   6   2   5 2299.25 598.105  10
   6   2   6 37792.4 2509.99   6
   6   2   6 35500.2 2192.24  10
   6   2   7 37035.8 2219.51   6
   6   2   8 17536.0 1278.60   6
   6   2   9 316.941 130.672   6
   6   3 -14 526.111 169.284   9
   6   3 -14 310.992 150.792  12
   6   3 -13 24621.4 1534.51  12
   6   3 -12 17928.8 1429.90  12
   6   3 -11 20469.1 1559.22  13
   6   3 -11 20884.2 1675.71  12
   6   3 -10 3455.03 696.570  13
   6   3  -9 4457.19 911.805  13
   6   3  -8 36100.4 2800.55  13
   6   3  -8 43870.9 3388.96   2
   6   3  -7 47475.1 3473.11  13
   6   3  -7 54315.8 4009.99   2
   6   3  -6 10608.3 1792.50   2
   6   3  -6 8142.31 1024.94  10
   6   3  -5 570.538 123.897  10
   6   3  -4 3170.55 809.343  10
   6   3  -3 67366.6 4163.67  10
   6   3  -2 35643.6 2445.11   6
   6   3  -2 33504.4 3128.61  10
   6   3  -1 10044.0 1307.66   6
   6   3  -1 9344.45 1743.67  10
   6   3   0 2578.79 687.982   6
   6   3   0 1836.67 676.284  10
   6   3   1 41745.6 2901.48   6
   6   3   1 41102.2 3510.18  10
   6   3   2 79338.2 4177.37   6
   6   3   2 82325.8 4623.47  10
   6   3   3 101253. 4751.01   6
   6   3   3 102696. 4734.78  10
   6   3   4 4777.41 885.565   6
   6   3   4 5081.68 858.026  10
   6   3   5 1316.02 435.390   6
   6   3   5 894.731 311.166  10
   6   3   6 19417.4 1465.41   6
   6   3   7 28352.9 1516.75   6
   6   4 -14 701.719 189.180  12
   6   4 -13 2569.06 412.401  12
   6   4 -12 14680.5 1177.21  12
   6   4 -11 27585.0 1737.17  13
   6   4 -11 29433.0 1869.50  12
   6   4 -10 17213.8 1535.74  13
   6   4 -10 16121.0 1462.17  12
   6   4  -9 1639.73 567.518  13
   6   4  -8 15233.0 1760.69  13
   6   4  -7 29834.5 2759.48  13
   6   4  -6 28074.7 2948.86  13
   6   4  -6 22895.6 1744.78  10
   6   4  -5 1457.60 704.264  13
   6   4  -5 746.013 391.267  10
   6   4  -4 194.245 623.587  13
   6   4  -4 406.582 240.051  10
   6   4  -3 35615.0 3680.57  13
   6   4  -3 35170.9 2907.99  10
   6   4  -2 5370.39 1342.19  13
   6   4  -2 5126.44 1054.36  10
   6   4  -1 17214.7 2040.05  13
   6   4  -1 19919.4 1748.94   6
   6   4  -1 15104.0 2034.05  10
   6   4   0 3114.11 772.293  13
   6   4   0 4832.48 848.854   6
   6   4   0 3862.48 997.771  10
   6   4   1 72.3990 98.5532   6
   6   4   1 44.7156 269.091  10
   6   4   2 13380.7 1432.06   6
   6   4   2 13895.2 1501.09  10
   6   4   3 38971.9 2383.50   6
   6   4   3 37814.4 2209.76  10
   6   4   4 12629.9 1163.17   6
   6   4   4 10639.7 949.651  10
   6   4   5 363.865 123.102   6
   6   5 -12 2942.44 416.758  12
   6   5 -11 13789.1 1066.43  13
   6   5 -11 15633.4 1166.09  12
   6   5 -10 21674.9 1581.42  13
   6   5 -10 22924.5 1599.49  12
   6   5  -9 4770.62 830.646  13
   6   5  -9 3604.27 676.821  12
   6   5  -8 327.253 396.584  13
   6   5  -8 286.551 246.370  12
   6   5  -7 3156.69 872.953  13
   6   5  -6 10178.2 1704.72  13
   6   5  -6 8252.33 938.292  10
   6   5  -5 7354.43 1496.11  13
   6   5  -5 6373.42 909.752  10
   6   5  -4 2368.64 784.384  13
   6   5  -4 4027.61 819.829  10
   6   5  -3 14869.7 1884.89  13
   6   5  -3 15553.3 1728.99  10
   6   5  -2 20220.3 1872.73  13
   6   5  -2 22265.4 2126.16  10
   6   5  -1 29159.8 2389.86  10
   6   5   0 24146.6 1963.71  10
   6   5   1 419.067 181.109  10
   6   5   2 3662.11 537.077  10
   6   6 -10 27084.8 1472.23  13
   6   6  -9 7411.23 886.176  13
   6   6  -8 659.674 322.413  13
   6   6  -7 7925.15 1168.02  13
   6   6  -6 27045.9 2240.90  13
   6   6  -6 18826.1 1204.73  10
   6   6  -5 25681.4 2079.57  13
   6   6  -5 23206.2 1511.92  10
   6   6  -4 9225.94 1066.82  13
   6   6  -4 11329.6 1132.39  10
   6   6  -3-179.808 180.014  10
   6   6  -2 1584.56 434.301  10
   6   6  -1 17238.2 1256.93  10
  -7  12  -3 409.294 161.722   5
  -7  12  -4 12009.8 1130.29   5
  -7  12  -5 28772.9 1868.96   5
  -7  12  -6 4087.57 681.455   5
  -7  12  -7-16.0336 189.302   5
  -7  11   2 1322.42 360.343   8
  -7  11   1 32524.1 2061.84   8
  -7  11   0 34543.1 2404.62   8
  -7  11  -1 34454.8 2590.54   8
  -7  11  -1 28784.9 1696.07   5
  -7  11  -2 15432.7 1849.82   8
  -7  11  -2 15589.6 1330.45   5
  -7  11  -3 245.772 198.388   5
  -7  11  -3-94.1640 281.251   8
  -7  11  -4 6633.31 1013.31   5
  -7  11  -4 4444.87 896.101   8
  -7  11  -5 36583.7 2529.06   5
  -7  11  -6 20389.5 1870.04   5
  -7  11  -7 6433.03 965.532   5
  -7  11  -8 507.025 281.281   5
  -7  11  -9 10260.9 978.357   5
  -7  11 -10 8418.93 705.117   5
  -7  10   4 25295.6 1582.42   8
  -7  10   3 21123.9 1634.90   8
  -7  10   2 13035.2 1428.26   8
  -7  10   1 14568.1 1620.41   8
  -7  10   0 13764.0 1228.60   5
  -7  10   0 18244.6 2004.06   8
  -7  10  -1 35417.8 2194.18   5
  -7  10  -1 39822.2 3263.55   8
  -7  10  -2 15688.1 1529.18   5
  -7  10  -2 17148.2 2221.49   8
  -7  10  -3 1223.36 504.729   5
  -7  10  -3 507.261 285.461   8
  -7  10  -4 1899.42 637.303   5
  -7  10  -4 1576.71 682.301   8
  -7  10  -5 21168.9 2105.81   5
  -7  10  -5 22055.2 1720.69   4
  -7  10  -5 19156.7 2034.17   8
  -7  10  -6 32442.9 2650.38   5
  -7  10  -6 37935.4 2252.84   4
  -7  10  -7 23824.7 2166.07   5
  -7  10  -7 27003.1 1790.59   4
  -7  10  -7 27996.8 1895.40  11
  -7  10  -8 2540.43 610.300   5
  -7  10  -8 2138.49 429.088   4
  -7  10  -8 2685.03 588.948  11
  -7  10  -9 30009.2 1977.01   5
  -7  10  -9 29488.1 1547.68   4
  -7  10  -9 32432.7 2023.44  11
  -7  10 -10 26731.9 1586.68   5
  -7  10 -10 29186.9 1804.57  11
  -7  10 -11 16793.8 1210.15  11
  -7  10 -12 8373.36 713.614  11
  -7   9   6 2510.36 436.154   8
  -7   9   6 2193.14 443.042   3
  -7   9   5 6801.04 852.092   8
  -7   9   5 6128.74 881.521   3
  -7   9   4 41057.4 2535.26   8
  -7   9   4 39093.8 2554.68   3
  -7   9   3 34511.0 2460.70   8
  -7   9   3 28533.7 2293.70   3
  -7   9   2 37546.1 2742.86   8
  -7   9   2 25058.5 2219.14   3
  -7   9   1 1254.69 389.609   5
  -7   9   1 528.310 222.384   8
  -7   9   1 493.797 309.299   3
  -7   9   0 21155.5 1682.02   5
  -7   9   0 23802.5 2453.39   8
  -7   9  -1 36276.6 2371.85   5
  -7   9  -1 39163.5 3413.67   8
  -7   9  -2 58054.5 4415.88   8
  -7   9  -3 5400.54 1260.40   8
  -7   9  -4 1451.01 472.301   4
  -7   9  -4 1055.48 459.463   8
  -7   9  -5 8697.08 1087.24   4
  -7   9  -5 8921.49 1469.84   8
  -7   9  -5 9018.66 1132.01  11
  -7   9  -6 35929.2 2237.71   4
  -7   9  -6 41044.4 2499.85  11
  -7   9  -7 38520.1 2219.25   4
  -7   9  -7 40913.8 2588.47  11
  -7   9  -8 12302.3 1091.73   4
  -7   9  -8 13915.8 1470.60  11
  -7   9  -9 13178.4 1407.66  11
  -7   9 -10 11669.0 1249.53  11
  -7   9 -11 31157.8 1931.00  11
  -7   9 -12 16319.4 1198.54  11
  -7   9 -13 5082.27 539.812  11
  -7   8   8 12463.7 1058.13   3
  -7   8   7 22501.7 1630.52   7
  -7   8   7 29473.4 1862.59   3
  -7   8   6 24178.7 1757.71   8
  -7   8   6 19518.4 1641.38   7
  -7   8   6 24232.1 1886.50   3
  -7   8   5 2761.03 669.107   8
  -7   8   5 2310.29 631.770   3
  -7   8   4 14944.7 1603.67   8
  -7   8   4 15111.9 1817.66   3
  -7   8   3 67040.3 3805.34   8
  -7   8   3 65103.7 4174.67   3
  -7   8   2 68569.5 3962.76   8
  -7   8   2 54236.8 3892.82   3
  -7   8   1 22416.6 2265.51   8
  -7   8   1 13869.8 1820.22   3
  -7   8   0 954.505 597.306   8
  -7   8  -1 10649.1 1723.31   8
  -7   8  -2 35859.3 3439.93   8
   7  -8   2 30823.3 1950.63   2
  -7   8  -3 3051.07 660.873   4
  -7   8  -3 3742.41 1079.38   8
  -7   8  -3 2990.15 654.909  11
  -7   8  -4 4334.27 1133.14   8
  -7   8  -4 2527.34 593.539   4
  -7   8  -4 2811.07 623.997  11
  -7   8  -5 1479.72 548.336   8
  -7   8  -5 495.404 305.286   4
  -7   8  -5 909.840 399.085  11
  -7   8  -6 15826.8 1432.81   4
  -7   8  -6 17332.2 1869.48   8
  -7   8  -6 19417.7 1801.85  11
  -7   8  -7 35034.3 2518.56  11
  -7   8  -8 40073.6 2744.94  11
  -7   8  -9 2671.73 671.685  11
  -7   8 -10 8744.53 1136.83  11
  -7   8 -11 12098.2 1214.50  11
  -7   8 -12 14395.6 1186.02  11
  -7   8 -13 2352.05 398.855  11
  -7   7  10 9294.13 785.432   3
  -7   7  10 6992.59 662.629   7
  -7   7   9 86.0255 129.238   7
  -7   7   9 186.078 137.386   3
  -7   7   8 13361.2 1300.87   3
  -7   7   7 47439.0 2863.26   3
  -7   7   6 39286.2 2529.02   8
  -7   7   6 39453.1 2798.95   3
  -7   7   5 7770.17 1147.50   8
  -7   7   4 4401.76 940.264   8
  -7   7   3 25393.4 2317.06   8
  -7   7   2 56990.2 3675.95   8
  -7   7   1 60444.2 3771.30   8
  -7   7   1 30289.3 2337.71  17
  -7   7   0 409.942 374.533   8
   7  -7   0-127.610 308.961   2
  -7   7   0 339.789 248.862  17
   7  -7   1 1247.15 369.615   2
  -7   7  -1 1612.96 615.715  17
  -7   7  -2 61537.8 3162.38  11
  -7   7  -2 49622.4 3807.35  17
  -7   7  -3 47188.3 2760.37  11
  -7   7  -3 36417.8 3396.88  17
  -7   7  -4 33152.9 2226.00   4
  -7   7  -4 32564.1 3171.30  17
  -7   7  -5 3063.65 685.959  11
  -7   7  -6 1938.16 562.669  11
  -7   7  -7 33799.2 2545.12  11
  -7   7  -8 50684.5 3186.02  11
  -7   7  -9 12050.2 1441.31  11
  -7   7 -10 69.9570 218.206  11
  -7   7 -11 15602.0 1406.69  11
  -7   7 -12 43363.2 2173.85  11
  -7   7 -13 30781.3 1528.27  11
  -7   6  11 12387.5 923.986   3
  -7   6  11 10570.0 870.694   7
  -7   6  10 21830.0 1515.48   3
  -7   6   9 5647.82 884.917   3
   7  -6  -8 6135.33 777.334  15
  -7   6   8 7942.95 1141.53   3
   7  -6  -7 44952.6 2446.74  15
   7  -6  -6 72911.8 3412.98  15
  -7   6   6 83672.4 3993.15   8
  -7   6   5 51095.5 3188.14   8
  -7   6   4 14469.3 1661.28   8
   7  -6  -3 19939.4 1642.33   2
  -7   6   3 20853.4 2036.32   8
   7  -6  -2 103891. 3952.65   2
  -7   6   2 65214.3 3503.24  17
   7  -6  -1 60592.7 2967.03   2
  -7   6   1 45323.7 3044.35  17
  -7   6   0 10655.7 1159.04  15
   7  -6   0 15222.1 1402.50   2
  -7   6   0 12272.9 1637.29  17
  -7   6  -1 54.5448 73.5482  15
  -7   6  -1 674.656 456.842  17
  -7   6  -2 52953.3 2910.78  11
  -7   6  -2 44872.8 3635.35  17
  -7   6  -3 37856.9 2351.35  15
  -7   6  -3 41484.7 3515.95  17
  -7   6  -4 38052.4 2400.14  15
  -7   6  -4 46581.2 2864.60  11
  -7   6  -4 44523.0 3502.86  17
  -7   6  -5 21924.9 1815.93  15
  -7   6  -5 26863.6 2187.92  11
  -7   6  -5 21950.3 2297.92  17
  -7   6  -6-74.8487 196.133  15
  -7   6  -6-56.1173 175.879  11
  -7   6  -6 299.358 152.543  17
  -7   6  -7 15076.8 1595.73  15
  -7   6  -7 16623.2 1770.96  11
  -7   6  -8 46029.9 2930.75  15
  -7   6  -8 49436.7 3115.29  11
  -7   6  -9 35663.7 2506.47  15
  -7   6  -9 39060.5 2655.13  11
  -7   6 -10 1006.17 369.803  15
  -7   6 -10 1563.24 483.371  11
  -7   6 -11 5683.67 817.424  15
  -7   6 -11 6169.30 853.050  11
  -7   6 -12 26723.3 1632.54  15
  -7   6 -12 32313.9 1741.62  11
  -7   6 -13 22466.0 1183.55  11
  -7   5  12 8111.47 698.631   3
   7  -5 -11 7762.04 728.250  15
  -7   5  11 10165.7 1012.03   3
   7  -5 -10 38903.8 2041.11  15
  -7   5  10 39795.1 2422.52   3
   7  -5  -9 29400.6 1936.58  15
   7  -5  -8 443.659 341.411  15
  -7   5   6 29232.4 2276.75   8
   7  -5  -6 28167.1 2090.72   2
  -7   5   5 35262.4 2581.74   8
   7  -5  -5 34356.7 2315.82   2
   7  -5  -4 8977.04 1142.05   2
   7  -5  -3 282.956 295.544   2
  -7   5   3 205.773 229.658  17
   7  -5  -2 50876.9 2738.21   2
  -7   5   2 37078.6 2620.82  17
  -7   5   1 52043.6 2856.29  15
   7  -5  -1 59625.5 2983.07   2
  -7   5   1 50748.8 3381.81  17
  -7   5   0 13803.5 1380.51  15
   7  -5   0 16112.2 1482.03   2
  -7   5   0 15270.7 1968.80  17
  -7   5  -1 15015.1 1444.51  15
  -7   5  -1 19555.7 1722.70  11
  -7   5  -1 17170.2 2198.82  17
  -7   5  -2 843.696 322.440  15
  -7   5  -2 795.268 352.081  11
  -7   5  -2 855.445 456.991  17
  -7   5  -3 20164.2 1716.02  15
  -7   5  -3 23023.0 1918.01  11
  -7   5  -3 22265.0 2489.36  17
  -7   5  -4 60372.3 3220.47  15
  -7   5  -4 67236.7 3517.93  11
  -7   5  -4 62958.0 4031.92  17
  -7   5  -5 2008.46 552.527  15
  -7   5  -5 1657.45 558.437  11
  -7   5  -5 1956.33 626.593  17
  -7   5  -6 3886.65 781.937  15
  -7   5  -6 4145.77 847.006  11
  -7   5  -6 3227.30 764.222  17
  -7   5  -7 6976.71 1140.69  15
  -7   5  -7 5005.52 964.708  11
  -7   5  -8 35962.7 2648.10  15
  -7   5  -8 36217.9 2565.89  11
  -7   5  -9 57389.2 3322.99  15
  -7   5  -9 58001.2 3151.09  11
  -7   5 -10 10956.2 1317.60  15
  -7   5 -10 12750.1 1278.30  11
  -7   5 -11 475.662 251.054  15
  -7   5 -11 537.128 219.604  11
  -7   5 -12 15974.2 1274.05  15
  -7   5 -12 12990.5 940.144  11
  -7   5 -13 34219.2 1631.64  15
   7  -4 -13 8738.23 624.836  15
   7  -4 -12 2519.11 418.976  15
  -7   4  12 2527.62 462.442   3
   7  -4 -11 3297.94 560.664  15
   7  -4 -10 37136.2 2223.97  15
   7  -4  -9 61969.9 3150.97  15
   7  -4  -8 16380.4 1669.71   2
   7  -4  -7-16.9983 108.317   2
   7  -4  -6 22262.5 1907.16   2
   7  -4  -5 46202.5 2727.35   2
  -7   4   5 25327.0 1931.37   1
   7  -4  -4 59362.7 3108.85   2
  -7   4   4 39304.1 2297.30   1
  -7   4   3 46610.3 2741.27  15
   7  -4  -3 46603.3 2677.61   2
  -7   4   3 33819.0 2482.92  17
  -7   4   3 32360.6 2004.38   1
  -7   4   2 20831.5 1781.33  15
  -7   4   2 15739.2 1325.00   1
   7  -4  -2 20400.5 1714.89   2
  -7   4   2 17847.1 1938.12  17
  -7   4   1 30393.7 2140.66  15
   7  -4  -1 28641.2 2050.35   2
  -7   4   1 23553.9 1644.48   1
  -7   4   1 30667.6 2783.21  17
  -7   4   0 28047.3 2045.83  15
   7  -4   0 28767.9 2016.91   2
  -7   4   0 21910.4 1593.27   1
  -7   4   0 29933.8 2958.07  17
  -7   4  -1 36938.3 2356.47  15
  -7   4  -1 29209.9 1859.95   1
  -7   4  -1 38920.8 3446.03  17
  -7   4  -2 467.711 161.339  15
  -7   4  -2 137.335 143.624  11
  -7   4  -2 119.399 394.806  17
  -7   4  -3 17318.6 1662.32  15
  -7   4  -3 14998.2 1516.23  11
  -7   4  -3 17527.2 2097.23  17
  -7   4  -4 36727.0 2533.78  15
  -7   4  -4 31398.0 2320.70  11
  -7   4  -4 32146.1 2688.16  17
  -7   4  -5 50398.3 3085.45  15
  -7   4  -5 42270.7 2791.81  11
  -7   4  -5 42079.8 2952.98  17
  -7   4  -6 17456.7 1744.80  11
  -7   4  -6 15408.6 1638.06  17
  -7   4  -7 3251.11 818.695  15
  -7   4  -7 2695.37 655.725  11
  -7   4  -8 14329.7 1649.66  15
  -7   4  -8 13215.3 1423.62  11
  -7   4  -9 44509.7 2916.49  15
  -7   4  -9 46094.1 2510.51  11
  -7   4 -10 31345.2 2262.22  15
  -7   4 -11 2083.62 507.035  15
  -7   4 -12 2980.88 530.612  15
  -7   4 -13 26094.9 1370.37  15
   7  -3 -13 14980.4 1020.44  15
   7  -3 -12 3301.76 545.445  15
   7  -3 -11 2312.87 491.673  15
   7  -3 -10 30571.6 2126.12  15
   7  -3 -10 31674.1 2306.51   2
   7  -3  -9 112371. 4888.98   2
   7  -3  -8 47232.2 3013.92   2
  -7   3   7 3625.81 786.143   1
   7  -3  -7 7132.14 1104.73   2
  -7   3   6 9786.61 1219.67   1
   7  -3  -6 14390.5 1566.45   2
   7  -3  -5 64609.4 3363.52   2
  -7   3   5 46322.5 2632.16   1
  -7   3   4 36012.8 2189.91   1
  -7   3   4 30977.4 2364.11  17
  -7   3   3 58836.6 3159.73  15
   7  -3  -3 52982.2 2902.79   2
  -7   3   3 46489.2 2527.16   1
  -7   3   3 48590.3 3307.75  17
   7  -3  -3 40348.0 2341.43  16
  -7   3   2 1502.00 489.474  15
  -7   3   2 1152.79 376.268   1
   7  -3  -2 1080.74 424.006   2
  -7   3   2 845.490 337.022  17
   7  -3  -2 812.556 341.697  16
  -7   3   1 8110.08 1125.93  15
   7  -3  -1 7982.44 1057.70   2
  -7   3   1 6460.25 879.401   1
  -7   3   1 8212.04 1631.32  17
   7  -3  -1 5935.11 795.295  16
  -7   3   0 48106.2 2814.35  15
   7  -3   0 43722.5 2553.81   2
  -7   3   0 40335.2 2341.64   1
   7  -3   0 40117.0 2227.53  16
  -7   3  -1 70666.5 3514.99  15
   7  -3   1 64158.3 3273.40   2
  -7   3  -1 76580.6 5136.35  17
  -7   3  -2 34292.8 2405.14  15
  -7   3  -2 28995.0 2114.40  11
  -7   3  -2 36645.9 3265.67  17
  -7   3  -3 40.3430 346.403  15
  -7   3  -3 322.710 196.202  11
  -7   3  -3 168.541 388.628  17
  -7   3  -4 33257.7 2366.69  11
  -7   3  -4 38687.1 2894.08  17
  -7   3  -5 16916.4 1657.47  11
  -7   3  -5 18536.8 1867.45  17
  -7   3  -6 23565.6 2206.99  15
  -7   3  -6 18542.9 1695.91  11
  -7   3  -7 19005.3 2004.57  15
  -7   3  -8 18413.4 1878.53  15
  -7   3  -9 47567.8 2962.52  15
  -7   3 -10 48396.4 2748.52  15
  -7   3 -11 38433.1 2171.87  15
  -7   3 -12 12480.1 1030.82  15
  -7   3 -13 1960.87 305.934  15
   7  -2 -14 13126.7 848.023  15
   7  -2 -13 14685.4 1079.99  15
  -7   2  13 8998.37 815.472   3
   7  -2 -12 14518.5 1248.40  15
   7  -2 -11 464.151 216.085  15
   7  -2 -10 10262.9 1246.63  15
   7  -2 -10 11278.1 1415.41   2
   7  -2  -9 67502.4 3837.22   2
   7  -2  -8 69757.0 3900.44   2
  -7   2   7 31579.8 2374.10   1
   7  -2  -7 47238.3 3061.22   2
  -7   2   6 1593.29 484.931   1
   7  -2  -6 1917.75 526.911   2
   7  -2  -5 31563.5 2322.89   2
  -7   2   5 26020.6 1969.66   1
  -7   2   4 39119.6 2647.79  15
   7  -2  -4 37906.9 2515.19   2
  -7   2   4 33293.5 2250.42   1
  -7   2   3 73588.7 3688.90  15
   7  -2  -3 69097.6 3384.23   2
  -7   2   3 63905.1 3150.88   1
   7  -2  -3 58562.9 2951.35  16
  -7   2   2 47304.8 2881.19  15
   7  -2  -2 40482.0 2549.10   2
  -7   2   2 41406.6 2471.77   1
   7  -2  -2 38673.1 2273.77  16
  -7   2   1 6450.56 1021.51  15
  -7   2   1 6186.64 909.774   1
   7  -2  -1 5292.76 882.240   2
   7  -2  -1 5176.64 794.898  16
  -7   2   0 39289.2 2590.67  15
   7  -2   0 34995.5 2340.30   2
  -7   2   0 34293.7 2274.89   1
   7  -2   0 35195.1 2214.31  16
   7  -2   1 127372. 4836.26  14
   7  -2   1 130918. 5100.56   2
   7  -2   2 38547.8 2492.59  14
   7  -2   2 39542.7 2618.97   2
   7  -2   2 41441.0 2624.30   6
  -7   2  -3 6188.10 1047.48  15
   7  -2   3 4500.86 838.869  14
   7  -2   3 4759.21 894.712   2
   7  -2   3 3798.05 782.514   6
  -7   2  -4 6472.58 1107.12  15
   7  -2   4 3261.46 731.273  14
   7  -2   4 4064.22 875.453   2
   7  -2   4 4393.24 822.599   6
  -7   2  -4 3209.66 826.777  17
  -7   2  -5 16286.5 1820.35  15
  -7   2  -5 9334.18 1335.73  17
  -7   2  -6 16495.9 1878.54  15
  -7   2  -7 27780.1 2406.78  15
  -7   2  -8 1526.79 585.168  15
  -7   2  -9 5500.77 893.830  15
  -7   2 -10 60234.8 2908.72  15
  -7   2 -11 24674.6 1550.60  15
  -7   2 -12 10731.5 810.288  15
   7  -1 -14 6487.41 607.692  15
   7  -1 -13 19515.0 1299.64  15
   7  -1 -12 25973.6 1726.06  15
   7  -1 -11 13789.4 1337.18  15
   7  -1 -11 10726.5 1062.38  12
   7  -1 -10 2907.84 788.706   2
   7  -1  -9 13714.9 1710.45   2
   7  -1  -8 74211.4 4104.31   2
  -7   1   7 22762.6 1973.01   1
   7  -1  -7 30027.1 2439.20   2
  -7   1   6 1755.57 507.686   1
   7  -1  -6 2171.15 659.337   2
   7  -1  -5 7532.93 1155.20   2
  -7   1   5 6469.20 996.747   1
  -7   1   4 31306.6 2372.91  15
   7  -1  -4 26833.3 2168.91   2
  -7   1   4 28239.4 2105.39   1
   7  -1  -4 25377.9 1920.68  16
  -7   1   3 10273.0 1325.80  15
   7  -1  -3 9214.32 1226.28   2
  -7   1   3 9178.40 1160.10   1
   7  -1  -3 8432.53 1075.07  16
  -7   1   2 40770.2 2697.02  15
   7  -1  -2 34749.5 2439.11   2
  -7   1   2 37123.0 2426.71   1
   7  -1  -2 32996.1 2168.52  16
  -7   1   1 14173.7 1535.06  15
   7  -1  -1 13206.7 1496.80   2
  -7   1   1 12569.1 1391.55   1
   7  -1  -1 11186.5 1257.44  16
  -7   1   0 11042.3 1347.34  15
   7  -1   0 10109.4 1365.09   2
   7  -1   0 9850.46 1231.61  14
  -7   1   0 10189.1 1243.45   1
   7  -1   0 9631.84 1153.63  16
  -7   1  -1 96196.4 4390.81  15
   7  -1   1 87863.9 4283.56   2
   7  -1   1 84426.9 4019.14  14
   7  -1   1 93898.5 4188.36   6
  -7   1  -2 39629.5 2738.92  15
   7  -1   2 32092.8 2421.24  14
   7  -1   2 30117.5 2400.01   2
   7  -1   2 39720.5 2658.80   6
  -7   1  -3 5937.37 1041.46  15
   7  -1   3 5174.09 976.999  14
   7  -1   3 6163.95 1086.19   6
   7  -1   3 4590.13 937.729   2
  -7   1  -4 7254.98 1190.99  15
   7  -1   4 5385.32 1047.26  14
   7  -1   4 8321.97 1224.83   6
  -7   1  -5 52560.7 3446.45  15
   7  -1   5 56276.2 3343.39   6
  -7   1  -6 66863.1 3837.12  15
   7  -1   6 64008.5 3488.60   6
  -7   1  -7 107284. 4816.49  15
   7  -1   7 100303. 4237.96   6
  -7   1  -8 11092.3 1297.94  15
  -7   1  -9 910.413 283.405  15
  -7   1 -10 12473.1 1054.67  15
  -7   1 -11 35787.1 1557.64  15
   7   0 -14 748.989 201.407  15
   7   0 -13 24864.1 1412.19  15
   7   0 -13 19470.2 1146.48  12
   7   0 -12 13909.9 1203.33  15
   7   0 -12 13289.4 1132.12  12
   7   0 -11 17949.9 1494.08  15
   7   0 -10 2170.76 684.288   2
   7   0  -9 3146.03 873.193   2
   7   0  -8 35182.8 2768.68   2
   7   0  -7 114453. 5282.50   2
   7   0  -6 22527.7 2112.98   2
  -7   0   6 17451.7 1691.75   1
   7   0  -5 674.248 357.739   2
  -7   0   5 497.814 319.327   1
   7   0  -5 341.540 233.912  16
  -7   0   4 31398.5 2335.02  15
  -7   0   4 27171.8 2128.11   1
   7   0  -4 22792.6 1866.36  16
   7   0  -4 30673.1 2438.44   2
  -7   0   3 27569.5 2187.68  15
   7   0  -3 27500.1 2336.91   2
  -7   0   3 24740.1 2019.32   1
   7   0  -3 21940.0 1814.69  16
   7   0  -2 112667. 5169.68   2
  -7   0   2 118472. 4856.89   1
   7   0  -2 107236. 4493.11  16
  -7   0   1 19555.2 1822.03  15
   7   0  -1 19686.9 1994.29   2
  -7   0   1 19616.4 1802.28   1
   7   0  -1 17232.5 1627.12  16
  -7   0   0 1911.73 590.262   1
  -7   0   0 2919.77 678.264  15
   7   0   0 2436.07 659.654  14
   7   0   0 2423.62 726.699   2
   7   0   0 2929.75 733.078   6
  -7   0  -1 35342.6 2529.47  15
   7   0   1 29891.8 2409.83  14
   7   0   1 37145.0 2639.42   6
  -7   0  -2 34167.2 2549.07  15
   7   0   2 27909.5 2395.60  14
   7   0   2 36137.3 2657.08   6
  -7   0  -3 2841.42 700.838  15
   7   0   3 4070.57 901.041   6
  -7   0  -4 1051.98 421.739  15
   7   0   4 1456.67 599.999   6
  -7   0  -5 4358.22 883.886  15
   7   0   5 5289.67 960.483   6
  -7   0  -6 17368.1 1735.22  15
   7   0   6 19612.1 1795.16   6
  -7   0  -7 30924.7 2177.93  15
   7   0   7 31313.5 2077.09   6
  -7   0  -8 9926.72 1048.12  15
   7   0   8 8785.93 902.624   6
   7   0   8 8081.29 871.690  10
  -7   0  -9 4976.73 611.994  15
   7   1 -13 8440.74 714.609  15
   7   1 -13 11083.0 891.503  12
   7   1 -12 10861.8 949.678  15
   7   1 -12 13162.4 1149.11  12
   7   1 -11 26642.6 1707.88  15
   7   1 -10 22578.8 1684.03  15
   7   1 -10 32590.4 2477.27   2
   7   1  -9 8322.11 1129.46  13
   7   1  -9 9251.13 1406.37   2
   7   1  -8 11222.4 1568.00   2
   7   1  -7 46590.9 3324.48   2
   7   1  -6 33480.8 2784.42   2
   7   1  -5 21806.3 2263.86   2
   7   1  -4 3111.31 886.170   2
  -7  -1   3 10087.9 1258.86  15
   7   1  -3 10072.8 1574.90   2
  -7  -1   2 12717.6 1432.53  15
   7   1  -2 10049.5 1596.67   2
  -7  -1   1 42481.0 2745.40  15
   7   1  -1 47805.2 2971.66   6
  -7  -1   0 20822.6 1898.95  15
   7   1   0 23060.9 2054.43   6
  -7  -1  -1 4815.62 868.014  15
   7   1   1 7329.05 1189.00   6
  -7  -1  -2 34677.8 2546.10  15
   7   1   2 39025.3 2842.37   6
  -7  -1  -3 38119.0 2687.62  15
   7   1   3 46103.1 3095.94   6
  -7  -1  -4 16410.7 1673.03  15
   7   1   4 20526.4 1956.37   6
  -7  -1  -5 393.713 251.407  15
   7   1   5 820.676 405.579   6
  -7  -1  -6 3047.27 585.822  15
   7   1   6 3912.88 694.322   6
   7   1   6 3810.28 652.895  10
  -7  -1  -7 13555.7 1083.31  15
   7   1   7 13768.8 1090.91  10
   7   1   8 21732.6 1213.12   6
   7   2 -13 11999.9 904.686  12
   7   2 -12 9656.08 951.357  12
   7   2 -11 31761.5 1955.30  12
   7   2 -10 33194.0 2068.69  13
   7   2  -9 11742.6 1352.58  13
   7   2  -9 15162.0 1750.07   2
   7   2  -8 423.134 335.318   2
   7   2  -8 474.353 301.039  13
   7   2  -7 41170.8 3000.19  13
   7   2  -7 42596.7 3321.83   2
   7   2  -6 74280.2 4709.05   2
   7   2  -5 56038.6 4090.12   2
   7   2  -5 47662.3 2719.30  10
   7   2  -4 2603.29 1003.03   2
   7   2  -4 1732.80 476.780  10
   7   2  -3 15011.0 1823.24  10
   7   2  -2 55836.7 3951.58  10
   7   2  -1 25517.6 2781.01  10
   7   2   0 12020.1 1451.39   6
   7   2   0 9391.23 1707.03  10
   7   2   1-157.591 265.962  10
   7   2   1 178.474 244.601   6
   7   2   2 36519.6 2653.69   6
   7   2   2 35278.0 2904.99  10
   7   2   3 46154.8 2917.67   6
   7   2   3 48987.2 3046.96  10
   7   2   4 9909.10 1217.04   6
   7   2   4 11303.7 1263.26  10
   7   2   5 5616.08 796.222   6
   7   2   5 5302.35 741.334  10
   7   2   6 827.778 258.035   6
   7   2   6 345.994 133.320  10
   7   2   7 6511.02 597.485   6
   7   3 -13 863.135 205.078  12
   7   3 -12 1097.43 281.214  12
   7   3 -11 5828.85 656.769  13
   7   3 -11 8556.19 893.896  12
   7   3 -10 15348.6 1299.60  13
   7   3  -9 6127.07 939.438  13
   7   3  -8 295.546 375.502  13
   7   3  -7 14600.9 1771.51  13
   7   3  -6 35241.4 3081.80  13
   7   3  -5 50675.9 4023.43  13
   7   3  -5 41893.4 2454.92  10
   7   3  -4 14093.6 2285.35  13
   7   3  -4 12191.0 1472.20  10
   7   3  -3 17165.2 2474.28  13
   7   3  -3 18650.6 1962.10  10
   7   3  -2 2568.74 867.575  13
   7   3  -2 1906.17 687.217  10
   7   3  -1 14270.8 1881.12  13
   7   3  -1 13679.8 1852.32  10
   7   3   0 15317.7 1658.30  13
   7   3   0 16243.9 1937.31  10
   7   3   1 6583.10 999.202   6
   7   3   1 6586.83 1146.36  10
   7   3   2 6296.00 931.218   6
   7   3   2 6051.21 958.631  10
   7   3   3 26654.4 1842.19   6
   7   3   3 27565.0 1798.38  10
   7   3   4 29138.6 1717.86   6
   7   3   4 28178.4 1557.47  10
   7   4 -11 3554.67 494.354  12
   7   4 -10 23941.4 1485.27  13
   7   4 -10 26070.4 1584.51  12
   7   4  -9 17840.7 1476.80  13
   7   4  -9 17609.4 1411.21  12
   7   4  -8 8857.46 1175.82  13
   7   4  -7 1581.17 531.387  13
   7   4  -6 12963.9 1793.61  13
   7   4  -6 7547.18 766.832  10
   7   4  -5 44543.5 3555.38  13
   7   4  -5 37367.7 2129.21  10
   7   4  -4 36703.1 3218.11  13
   7   4  -4 34959.5 2256.00  10
   7   4  -3 922.155 414.962  13
   7   4  -3-206.959 160.920  10
   7   4  -2 5366.56 961.319  13
   7   4  -2 5028.95 939.332  10
   7   4  -1 7908.16 962.224  13
   7   4  -1 11594.6 1400.62  10
   7   4   0 9536.68 1172.75  10
   7   4   1 14070.2 1246.20  10
   7   4   2 907.161 248.770  10
   7   5  -9 13387.2 1050.41  13
   7   5  -8 20155.9 1518.94  13
   7   5  -7 4719.13 813.575  13
   7   5  -6 180.977 151.704  13
   7   5  -5 7089.08 1037.50  13
   7   5  -5 4401.79 537.073  10
   7   5  -4 13987.3 1306.77  13
   7   5  -4 14026.8 1109.72  10
   7   5  -3 123.820 108.553  10
   7   5  -2 420.180 147.926  10
   7   5  -1 5974.77 682.493  10
  -8  11   1 1083.04 379.959   8
  -8  11   0 113.023 172.250   8
  -8  11  -1 18424.8 1721.69   8
  -8  11  -1 11085.7 900.298   5
  -8  11  -2 38136.1 2704.43   8
  -8  11  -2 34907.7 1895.55   5
  -8  11  -3 21559.6 1571.60   5
  -8  11  -3 19172.2 1852.47   8
  -8  11  -4 3503.67 668.836   5
  -8  11  -4 1955.75 528.320   8
  -8  11  -5 1467.04 448.334   5
  -8  11  -6 12196.9 1292.44   5
  -8  11  -7 31284.1 2000.58   5
  -8  11  -8 29726.2 1721.49   5
  -8  10   4 866.076 249.545   8
  -8  10   3 6474.21 816.412   8
  -8  10   2 18712.8 1618.37   8
  -8  10   1 25486.7 2112.75   8
  -8  10   0 1914.86 419.202   5
  -8  10   0 3000.29 706.959   8
  -8  10  -1 11438.4 1118.80   5
  -8  10  -1 13416.9 1762.72   8
  -8  10  -2 39134.8 2355.59   5
  -8  10  -2 42413.5 3328.83   8
  -8  10  -3 42870.7 2591.16   5
  -8  10  -3 38653.7 3154.83   8
  -8  10  -4 13363.1 1452.91   5
  -8  10  -4 12090.5 1604.61   8
  -8  10  -5 347.715 135.922   8
   8 -10   7 19845.5 1516.41   2
  -8  10  -8 37627.5 2251.50   5
   8 -10   8 41150.3 2288.36   2
  -8  10  -9 560.884 210.634   5
   8 -10   9 987.390 289.128   2
  -8  10 -10 294.268 118.688   5
   8 -10  10-124.255 157.002   2
  -8   9   6 19374.0 1260.34   3
  -8   9   5 1898.47 435.475   8
  -8   9   5 1458.38 370.602   3
  -8   9   4 37.4747 196.505   8
  -8   9   4 387.605 230.645   3
  -8   9   3 3948.48 802.211   8
  -8   9   3 3026.63 643.423   3
  -8   9   2 25332.1 2136.44   8
  -8   9   2 15056.1 1526.80   3
  -8   9   1 16017.1 1850.73   8
  -8   9   0 10881.2 1116.35   5
  -8   9   0 11632.6 1671.04   8
  -8   9  -1 1986.90 727.387   8
  -8   9  -2 55568.4 4188.02   8
  -8   9  -3 49400.6 3899.58   8
  -8   9  -4 15214.1 2023.65   8
   8  -9   4 18191.4 1489.13   2
  -8   9  -5 9626.90 1429.62   8
   8  -9   5 11970.4 1237.46   2
  -8   9  -6 800.446 298.140   8
  -8   9  -6 1465.26 457.690  11
  -8   9  -7 9845.57 1173.94  11
  -8   9  -8 51345.0 2785.43  11
  -8   9  -9 15288.0 1365.78  11
  -8   9 -10 2499.67 483.623  11
  -8   9 -11 3663.68 518.525  11
  -8   9 -12 14462.6 891.259  11
  -8   8   8 953.015 233.850   3
  -8   8   7 4803.69 676.011   3
  -8   8   6 23676.0 1589.67   8
  -8   8   6 28332.0 1958.41   3
  -8   8   5 11409.3 1221.30   8
  -8   8   5 10080.1 1267.08   3
  -8   8   4 13163.5 1432.84   8
  -8   8   4 12702.5 1562.31   3
  -8   8   3 129.001 128.542   8
  -8   8   3-63.1287 257.201   3
  -8   8   2 4596.35 959.535   8
  -8   8   2 4423.01 1017.12   3
  -8   8   1 83977.2 4537.70   8
  -8   8   1 43806.7 3146.03   3
  -8   8   0 103536. 5597.23   8
   8  -8   1 29536.0 1956.71   2
  -8   8  -1 31517.8 3065.97   8
  -8   8  -2 982.136 589.793   8
   8  -8   2 152.715 191.189   2
  -8   8  -3 24260.0 2813.36   8
   8  -8   3 31085.7 2093.40   2
  -8   8  -4 51980.9 3975.38   8
  -8   8  -5 7502.10 1316.70   8
  -8   8  -5 8108.31 1136.13  11
  -8   8  -6 53.1701 148.254   8
  -8   8  -6 146.047 110.480  11
  -8   8  -7 215.745 100.606  11
  -8   8  -8 31036.7 2223.97  11
  -8   8  -9 30461.8 2062.25  11
  -8   8 -10 28804.5 1840.13  11
  -8   8 -11 1534.22 366.393  11
  -8   8 -12 10348.0 784.652  11
  -8   7   9 12443.1 988.143   3
  -8   7   8 4545.98 668.124   3
  -8   7   7 1679.38 485.938   3
  -8   7   6 35043.9 2218.26   8
  -8   7   6 38864.0 2686.15   3
  -8   7   5 27336.1 2126.06   8
  -8   7   4 29021.6 2323.37   8
  -8   7   3 2088.18 605.717   8
   8  -7  -2 16881.2 1474.50   2
  -8   7   2 19329.8 2089.79   8
   8  -7  -1 50499.2 2711.94   2
  -8   7   1 49893.3 3587.83   8
   8  -7   0 77962.0 3548.74   2
   8  -7   1 47059.7 2734.00   2
   8  -7   2 196.554 260.389   2
  -8   7  -4 47681.9 2975.04  11
  -8   7  -5 36565.4 2597.35  11
  -8   7  -6 2951.49 725.099  11
  -8   7  -7 820.192 309.541  11
  -8   7  -8 9442.96 1206.85  11
  -8   7  -9 36561.9 2296.03  11
  -8   7 -10 38910.7 2147.31  11
  -8   7 -11 7173.39 752.571  11
  -8   7 -12 9170.89 708.009  11
  -8   6  10 7671.30 784.961   3
   8  -6  -9 7639.16 696.493  15
  -8   6   9 11340.1 1126.65   3
   8  -6  -8 3904.47 560.277  15
   8  -6  -7 0.95464 155.995  15
  -8   6   6 11450.8 1286.74   8
  -8   6   5 22689.4 1999.38   8
   8  -6  -4 61721.1 3155.92   2
  -8   6   4 61014.4 3577.71   8
   8  -6  -3 23379.0 1889.78   2
   8  -6  -2 2354.72 574.793   2
   8  -6  -1 17135.6 1606.15   2
  -8   6   0 74961.8 3602.09  15
   8  -6   0 92209.9 4078.17   2
  -8   6  -1 70877.4 3504.97  15
   8  -6   1 90822.2 4020.70   2
  -8   6  -2 26468.8 2021.96  15
   8  -6   2 30009.6 2239.96   2
  -8   6  -3 1181.34 337.799  15
  -8   6  -3 1808.96 596.222  11
  -8   6  -4 107058. 4623.82  15
  -8   6  -4 121999. 5133.09  11
  -8   6  -5 41879.9 2721.65  15
  -8   6  -5 44400.3 2953.18  11
  -8   6  -6 20190.5 1877.44  15
  -8   6  -6 20591.7 1947.67  11
  -8   6  -7 12653.2 1470.80  15
  -8   6  -7 11551.3 1411.87  11
  -8   6  -8 2736.40 650.620  15
  -8   6  -8 2390.56 554.993  11
  -8   6  -9 9720.83 1152.67  15
  -8   6  -9 11965.2 1220.04  11
  -8   6 -10 18315.8 1464.79  15
  -8   6 -10 20702.0 1442.98  11
  -8   6 -11 20932.7 1358.33  15
  -8   6 -11 24119.9 1337.41  11
   8  -6  12 478.769 162.340   2
   8  -5 -11 918.559 212.952  15
  -8   5  11 1344.79 310.233   3
   8  -5 -10 5314.92 632.537  15
  -8   5  10 6906.81 869.597   3
   8  -5  -9 29519.2 1793.24  15
   8  -5  -8 9188.48 1064.13  15
   8  -5  -7 37648.8 2450.26   2
  -8   5   6 650.550 254.474   8
   8  -5  -6 364.013 399.440   2
   8  -5  -5 29211.8 2208.30   2
   8  -5  -4 87356.5 4067.53   2
   8  -5  -3 91385.2 4122.67   2
   8  -5  -2 1183.89 411.887   2
  -8   5   2 311.127 189.849  17
  -8   5   1 4879.88 856.759  15
   8  -5  -1 5305.35 944.053   2
  -8   5   1 3971.98 1030.97  17
  -8   5   0 44628.8 2749.96  15
   8  -5   0 49814.2 2933.35   2
  -8   5  -1 49074.8 2909.71  15
   8  -5   1 55434.3 3105.90   2
  -8   5  -2 40739.7 2654.35  15
   8  -5   2 42803.7 2789.79   2
  -8   5  -2 33825.9 3327.56  17
  -8   5  -3 420.490 311.804  15
  -8   5  -3 300.118 212.186  11
  -8   5  -4 28779.7 2266.93  15
  -8   5  -4 28869.0 2331.87  11
  -8   5  -5 42434.0 2847.24  15
  -8   5  -5 42300.4 2858.09  11
  -8   5  -6 46078.1 2993.37  15
  -8   5  -6 43736.5 2865.93  11
  -8   5  -7 7304.63 1141.01  15
  -8   5  -7 8553.55 1134.42  11
  -8   5  -8 328.664 266.420  15
  -8   5  -8 100.162 186.704  11
  -8   5  -9 3755.79 734.784  15
  -8   5  -9 4191.64 648.379  11
  -8   5 -10 31599.1 1974.92  15
  -8   5 -10 26243.9 1470.28  11
  -8   5 -11 42431.6 1974.57  15
   8  -5  11 24006.7 1344.05   2
  -8   5 -12 2362.54 353.704  15
   8  -4 -12 11185.4 767.213  15
  -8   4  12 11396.8 832.460   3
   8  -4 -11 5862.24 675.527  15
   8  -4 -10 129.439 80.6242  15
   8  -4  -9 22243.5 1703.85  15
   8  -4  -9 22511.7 1830.07   2
   8  -4  -8 22712.9 1994.51   2
   8  -4  -7 14362.2 1580.63   2
   8  -4  -6 7915.21 1175.38   2
   8  -4  -5 4303.08 883.543   2
   8  -4  -4 77450.1 3893.82   2
   8  -4  -3 181433. 5668.41   2
  -8   4   3 8395.40 1520.68   1
  -8   4   2 6837.74 1043.66  15
   8  -4  -2 6762.82 1049.42   2
  -8   4   2 4554.97 1057.07  17
  -8   4   1 22894.7 1984.46  15
   8  -4  -1 23902.8 2000.97   2
  -8   4   1 18303.4 2378.52  17
  -8   4   0 5200.59 915.339  15
   8  -4   0 4709.50 892.083   2
  -8   4   0 2617.30 569.623   1
  -8   4   0 3895.12 1131.65  17
  -8   4  -1 43756.2 2810.60  15
   8  -4   1 45472.2 2801.16   2
  -8   4  -1 39679.6 3683.69  17
  -8   4  -2 45987.7 2914.20  15
   8  -4   2 46713.2 2915.77   2
  -8   4  -2 39912.2 3553.32  17
  -8   4  -3 26418.9 2221.10  15
   8  -4   3 26455.4 2192.48   2
  -8   4  -4 6991.00 1137.64  15
  -8   4  -5 11747.0 1497.43  15
  -8   4  -5 8770.12 1232.80  11
  -8   4  -6 16594.6 1795.70  15
  -8   4  -6 16091.9 1578.18  11
  -8   4  -7 11638.2 1474.17  15
  -8   4  -7 11810.8 1224.80  11
  -8   4  -8 586.723 309.015  15
  -8   4  -9 4359.31 769.751  15
   8  -4   9 3145.44 556.162   2
  -8   4 -10 4648.79 692.293  15
  -8   4 -11 32208.5 1688.71  15
   8  -3 -12 17750.1 1128.86  15
  -8   3  12 14409.5 1084.65   3
   8  -3 -11 10915.4 1038.11  15
   8  -3 -10 6234.98 867.949  15
   8  -3 -10 6942.03 1016.31   2
   8  -3  -9 13164.8 1562.04   2
   8  -3  -8 4401.60 925.874   2
   8  -3  -7 51284.0 3244.66   2
   8  -3  -6 37010.7 2693.80   2
   8  -3  -5 222.002 255.609   2
   8  -3  -4 27578.4 2248.96   2
  -8   3   4 15319.8 1511.68   1
  -8   3   3 130104. 5162.82  15
   8  -3  -3 121830. 4865.55   2
  -8   3   3 76971.3 3764.86   1
  -8   3   3 73595.7 4661.66  17
  -8   3   2 24065.4 2098.55  15
   8  -3  -2 23634.1 1987.99   2
  -8   3   2 16162.2 1528.59   1
  -8   3   2 16016.0 2289.98  17
  -8   3   1 4272.21 902.739  15
  -8   3   1 2435.96 587.624   1
   8  -3  -1 3603.65 773.652   2
  -8   3   1 3093.15 1013.18  17
  -8   3   0 11131.0 1418.72  15
   8  -3   0 10225.2 1299.27   2
  -8   3   0 8456.21 1775.26  17
  -8   3   0 6517.90 993.965   1
  -8   3  -1 43421.4 2922.67  15
   8  -3   1 41084.6 2800.36   2
  -8   3  -1 41962.0 3841.98  17
  -8   3  -2 69964.9 3778.69  15
   8  -3   2 65205.4 3577.84   2
  -8   3  -3 48756.6 3202.93  15
   8  -3   3 44861.0 2985.84   2
  -8   3  -4 22625.1 2167.76  15
   8  -3   4 18783.9 1933.56   2
  -8   3  -5 1320.30 503.580  15
   8  -3   5 1287.24 465.003   2
  -8   3  -6 18005.6 1900.54  15
   8  -3   6 13962.3 1490.67   2
  -8   3  -7 50580.4 3146.02  15
   8  -3   7 45233.3 2505.13   2
  -8   3  -8 3781.02 736.219  15
  -8   3  -9 7965.50 989.183  15
  -8   3 -10 1369.51 357.244  15
  -8   3 -11 17040.0 1080.35  15
   8  -2 -13 5761.55 541.893  15
   8  -2 -12 15643.9 1135.03  15
   8  -2 -11 7863.68 906.515  15
   8  -2 -10 4768.78 786.483  15
   8  -2 -10 6073.69 981.917   2
   8  -2  -9 10056.2 1392.71   2
   8  -2  -8 54469.2 3422.55   2
   8  -2  -7 92148.6 4570.50   2
   8  -2  -6 78726.2 4146.45   2
   8  -2  -5 37036.7 2694.00   2
   8  -2  -4 322.820 313.448   2
  -8   2   3 97832.7 4501.32  15
   8  -2  -3 85880.0 4171.40   2
  -8   2   2 42671.4 2862.93  15
   8  -2  -2 37129.3 2596.83   2
  -8   2   1 47018.6 3031.64  15
   8  -2  -1 41207.4 2760.83   2
  -8   2   0 11254.2 1460.50  15
  -8   2   0 9384.03 1248.28   1
   8  -2   0 11159.0 1463.72   2
  -8   2  -1 23619.4 2148.87  15
   8  -2   1 21379.6 2021.25   2
  -8   2  -2 41487.7 2942.05  15
   8  -2   2 37023.2 2741.41   2
  -8   2  -3 71365.4 3950.41  15
   8  -2   3 58036.5 3521.47   2
  -8   2  -4 31310.4 2556.88  15
   8  -2   4 23943.5 2104.06   2
  -8   2  -5 2028.79 588.596  15
   8  -2   5 1718.11 518.875   2
  -8   2  -6 7933.42 1220.25  15
  -8   2  -7 58513.9 3263.01  15
  -8   2  -8 12207.8 1267.58  15
  -8   2  -9 1330.86 352.782  15
  -8   2 -10 411.245 168.668  15
   8  -1 -13 1718.66 288.423  15
   8  -1 -12 8726.12 809.713  15
   8  -1 -11 8835.07 945.060  15
   8  -1 -11 6648.11 726.469  12
   8  -1 -10 18368.2 1527.52  15
   8  -1 -10 22047.7 1947.80   2
   8  -1  -9 1979.68 631.002   2
   8  -1  -8 210.517 272.333   2
   8  -1  -7 33360.5 2632.09   2
   8  -1  -6 29619.9 2515.52   2
   8  -1  -5 12719.1 1566.76   2
   8  -1  -4 322.888 345.860   2
  -8   1   3 32417.1 2495.91  15
   8  -1  -3 31386.8 2523.52   2
  -8   1   2 81281.6 4132.76  15
   8  -1  -2 76936.2 4177.86   2
  -8   1   1 34305.1 2559.80  15
   8  -1  -1 30570.3 2519.13   2
  -8   1   0 8188.78 1220.56  15
   8  -1   0 7791.72 1264.05   2
  -8   1  -1 458.891 262.396  15
   8  -1   1 821.303 521.764   2
  -8   1  -2 1534.14 507.819  15
   8  -1   2 1777.90 556.413   2
  -8   1  -3 14840.0 1713.36  15
  -8   1  -4 11962.4 1499.29  15
   8  -1   4 11477.5 1342.99   6
  -8   1  -5 3506.61 723.751  15
   8  -1   5 2976.68 630.517   6
  -8   1  -6 627.505 331.003  15
  -8   1  -7 43642.9 2450.51  15
  -8   1  -8 19089.7 1363.17  15
  -8   1  -9 13234.5 912.155  15
   8   0 -12 3993.12 488.488  15
   8   0 -12 4014.23 496.257  12
   8   0 -11 15067.7 1139.18  15
   8   0 -11 15337.1 1194.04  12
   8   0 -10 22911.0 1600.25  15
   8   0 -10 31363.4 2274.23   2
   8   0  -9 24771.6 2170.39   2
   8   0  -8 2423.57 660.093   2
   8   0  -8 2327.53 608.668  13
   8   0  -7 8511.74 1287.36   2
   8   0  -6 18404.3 1978.43   2
   8   0  -5 31435.5 2655.94   2
   8   0  -4 30506.7 2636.84   2
  -8   0   3 2607.74 653.900  15
   8   0  -3 2617.80 847.583   2
  -8   0   2 22013.2 1955.50  15
   8   0  -2 19878.4 2212.02   2
  -8   0   1 46610.7 2929.23  15
   8   0  -1 38869.0 3059.81   2
   8   0   0 44075.8 3204.24   2
  -8   0   0 56958.5 3286.84  15
  -8   0  -1 8808.50 1246.71  15
  -8   0  -2 362.064 312.363  15
  -8   0  -3 21781.0 1968.95  15
  -8   0  -4 28785.1 2202.59  15
   8   0   4 34119.2 2271.09   6
  -8   0  -5 21004.2 1714.90  15
   8   0   6 1147.62 341.574  10
  -8   0  -6 1582.68 402.367  15
  -8   0  -7 6269.13 668.132  15
   8   0   7 5839.72 625.405  10
   8   1 -12 136.734 97.7677  12
   8   1 -11 9815.38 923.890  12
   8   1 -10 21467.5 1327.50  15
   8   1  -9 15424.4 1224.28  15
   8   1  -9 17826.4 1452.95  13
   8   1  -8 8873.94 1143.24  13
   8   1  -8 10924.1 1448.41   2
   8   1  -7 3883.10 949.720   2
   8   1  -6 29868.4 2662.54   2
   8   1  -5 55073.7 3787.97   2
   8   1  -4 54915.6 3830.30   2
   8   1  -4 48153.9 2710.26  10
   8   1  -3 5783.11 1206.18   2
   8   1  -3 5683.94 957.454  10
  -8  -1   2 7475.19 1064.32  15
   8   1  -2 8709.72 1378.89  10
  -8  -1   1 21994.0 1878.96  15
  -8  -1   0 18267.7 1696.04  15
  -8  -1  -1 5750.33 901.965  15
  -8  -1  -2 3753.93 752.443  15
  -8  -1  -3 5671.81 836.932  15
   8   1   3 9742.88 1199.69  10
   8   1   4 14916.3 1358.80  10
   8   1   5 17985.4 1290.58  10
   8   1   6 5604.75 564.764  10
   8   2 -11 3342.74 486.286  12
   8   2 -10 433.211 246.583  13
   8   2 -10 21623.8 1367.16  12
   8   2  -9 18150.4 1396.19  13
   8   2  -8 11879.3 1272.28  13
   8   2  -7 2057.41 542.127  13
   8   2  -6 5524.35 1096.66  13
   8   2  -6 4189.43 970.337   2
   8   2  -5 18338.7 2141.98  13
   8   2  -4 55646.9 2804.58  10
   8   2  -3 6120.70 987.382  10
   8   2  -2 2750.99 728.211  10
   8   2  -1 7027.96 1136.20  10
   8   2   0 27805.1 2183.03  13
   8   2   0 29467.0 2393.82  10
   8   2   1 19655.3 1553.71  13
   8   2   1 30070.3 2244.35  10
   8   2   2 9568.89 1130.61  10
   8   2   3 1644.01 395.141  10
   8   2   4 8451.03 748.685  10
   8   3 -10 5913.09 634.634  12
   8   3  -9 8142.83 828.470  13
   8   3  -9 9392.28 889.624  12
   8   3  -8 7921.43 966.576  13
   8   3  -7 7224.32 1032.88  13
   8   3  -6 187.087 280.947  13
   8   3  -5 10894.2 1488.62  13
   8   3  -4 51740.3 3454.56  13
   8   3  -4 41216.4 2131.11  10
   8   3  -3 17933.3 1908.84  13
   8   3  -3 15191.8 1368.38  10
   8   3  -2 4539.17 819.541  13
   8   3  -2 3856.77 693.967  10
   8   3  -1 812.501 299.065  13
   8   3  -1 1760.23 491.184  10
   8   3   0 13415.8 1255.90  10
   8   3   1 12429.9 1070.14  10
   8   3   2 11047.6 845.329  10
   8   4  -7 15545.2 1254.97  13
   8   4  -6 2095.29 479.094  13
   8   4  -5 247.872 166.574  13
   8   4  -4 19146.9 1409.22  13
  -9  11   0 16104.4 1341.35   8
  -9  11  -1 588.396 270.025   8
  -9  11  -2 11306.2 1228.56   8
  -9  11  -3 19007.2 1270.42   5
  -9  11  -3 17424.8 1448.31   8
  -9  11  -4 29370.0 1738.26   5
  -9  11  -5 10507.3 1028.57   5
  -9  11  -6 351.899 133.372   5
  -9  10   3 664.160 205.195   8
  -9  10   2 5601.15 784.524   8
  -9  10   1 8572.36 1077.52   8
  -9  10   0 14740.5 1572.12   8
  -9  10  -1 5180.62 635.638   5
  -9  10  -1 7633.46 1222.63   8
  -9  10  -2 1342.94 384.346   5
  -9  10  -2 1367.02 466.137   8
  -9  10  -3 11275.9 1176.22   5
  -9  10  -3 9367.60 1291.38   8
  -9  10  -4 17465.3 1535.04   5
  -9  10  -4 16165.3 1592.27   8
   9 -10   7 134.695 139.610   2
  -9  10  -8 21282.3 1345.34   5
  -9   9   4 10318.4 980.490   8
  -9   9   3 6338.89 901.113   8
  -9   9   2 873.178 426.320   8
  -9   9   1 13293.5 1586.50   8
  -9   9   0 8175.31 867.574   5
  -9   9   0 12811.5 1635.00   8
  -9   9  -1 22202.5 2347.00   8
  -9   9  -2 356.627 366.778   8
   9  -9   3 8667.10 1001.75   2
  -9   9  -3 7498.10 1376.93   8
  -9   9  -4 34961.4 2736.97   8
   9  -9   4 45668.9 2458.54   2
  -9   9  -5 36720.5 2449.99   8
   9  -9   5 50255.8 2649.57   2
   9  -9   6 26108.6 1895.94   2
   9  -9   7 1888.63 498.448   2
   9  -9   8 17364.3 1446.00   2
   9  -9   9 19765.7 1436.09   2
   9  -9  10 28889.4 1503.73   2
  -9   8   7 2308.31 390.608   3
  -9   8   6 1981.47 433.320   3
  -9   8   5 11786.4 1089.18   8
  -9   8   5 13239.5 1314.31   3
  -9   8   4 28671.2 1961.08   8
  -9   8   4 25230.9 2034.52   3
  -9   8   3 9238.81 1162.13   8
  -9   8   3 6957.23 1111.30   3
  -9   8   2 484.752 302.636   8
  -9   8   1 8614.60 1396.50   8
   9  -8   0 18984.9 1491.54   2
  -9   8   0 18999.1 2181.73   8
   9  -8   1 59777.1 2898.94   2
  -9   8  -1 55944.5 4073.65   8
   9  -8   2 41316.6 2483.67   2
  -9   8  -2 38297.1 3333.11   8
  -9   8  -3 8723.59 1575.64   8
   9  -8   3 11259.7 1276.81   2
  -9   8  -4 656.019 347.009   8
   9  -8   4 938.469 311.922   2
  -9   8  -5 19397.7 1863.12   8
   9  -8   5 22368.0 1882.04   2
  -9   8  -6 22473.7 1706.17   8
   9  -8   6 31088.6 2232.92   2
   9  -8   7 11295.3 1259.96   2
   9  -8   8 2134.69 543.887   2
   9  -8   9 13245.2 1225.87   2
   9  -8  10 15141.2 1129.62   2
  -9   7   8 25141.0 1457.41   3
  -9   7   7 7596.83 924.052   3
  -9   7   6 1609.64 349.301   8
  -9   7   6 2447.11 570.898   3
  -9   7   5 20.1222 156.154   8
  -9   7   4 10012.7 1234.52   8
  -9   7   3 16916.2 1758.03   8
   9  -7  -3 18792.7 1536.79   2
   9  -7  -2 10123.7 1119.35   2
  -9   7   2 7955.16 1264.21   8
  -9   7   1 3217.18 873.974   8
   9  -7  -1 3348.60 662.051   2
   9  -7   0 4435.04 789.650   2
   9  -7   1 47154.2 2777.50   2
   9  -7   2 70466.3 3588.50   2
  -9   7  -3 20761.8 1726.04  15
   9  -7   3 34813.0 2412.80   2
  -9   7  -4 6249.69 959.297  15
   9  -7   4 8012.98 1210.10   2
  -9   7  -5 16128.1 1528.27  15
   9  -7   5 24280.5 2107.53   2
  -9   7  -6 40966.8 2499.81  15
   9  -7   6 60527.1 3271.18   2
   9  -7   7 32873.9 2319.14   2
   9  -7   8 8447.79 1056.42   2
   9  -7   9 2392.37 497.366   2
   9  -7  10 11559.8 979.671   2
  -9   6   9 4125.12 575.066   3
   9  -6  -8 12127.3 903.072  15
  -9   6   8 18035.6 1427.39   3
   9  -6  -7 10133.5 943.036  15
   9  -6  -6 2864.43 536.718  15
  -9   6   6 2904.45 550.105   8
  -9   6   5 762.651 332.141   8
   9  -6  -5 516.447 293.559   2
  -9   6   4 22650.5 2001.53   8
   9  -6  -4 26611.4 1983.47   2
   9  -6  -3 58007.1 3117.40   2
   9  -6  -2 17404.1 1638.17   2
   9  -6  -1 5049.61 898.615   2
   9  -6   0 39.8246 256.450   2
  -9   6  -1 12207.6 1364.72  15
   9  -6   1 16790.7 1692.33   2
  -9   6  -2 45808.3 2806.90  15
   9  -6   2 58227.3 3320.24   2
  -9   6  -3 39814.2 2617.96  15
   9  -6   3 47097.4 3090.58   2
  -9   6  -4 1275.07 464.100  15
   9  -6   4 726.023 275.406   2
  -9   6  -5 15258.0 1545.59  15
   9  -6   5 18083.7 1884.75   2
  -9   6  -6 64988.7 3416.96  15
   9  -6   6 75022.6 3807.17   2
  -9   6  -7 57213.0 3040.03  15
   9  -6   7 64018.1 3290.16   2
  -9   6  -8 20631.5 1606.79  15
   9  -6   8 23334.6 1751.64   2
  -9   6  -9-136.404 152.043  15
   9  -6   9 85.3107 94.6495   2
   9  -6  10 6972.22 673.140   2
  -9   5  10 2500.68 405.321   3
   9  -5  -9 288.857 158.851  15
   9  -5  -8 10838.9 1019.34  15
   9  -5  -8 9100.77 959.967   2
   9  -5  -7 3173.45 677.240   2
  -9   5   6 6402.64 915.783   8
   9  -5  -6 7771.15 1085.00   2
  -9   5   5 2301.93 587.806   8
   9  -5  -5 2278.95 583.108   2
   9  -5  -4 860.944 372.286   2
   9  -5  -3 45294.6 2876.36   2
   9  -5  -2 38561.2 2607.47   2
  -9   5   1 16985.2 1673.78  15
   9  -5  -1 20496.3 1891.04   2
  -9   5   0 1334.85 454.565  15
   9  -5   0 1382.41 553.977   2
  -9   5  -1 9214.22 1249.90  15
   9  -5   1 11430.4 1438.92   2
  -9   5  -2 56848.6 3321.31  15
   9  -5   2 64324.1 3691.52   2
  -9   5  -3 86757.1 4243.17  15
   9  -5   3 98834.8 4707.98   2
  -9   5  -4 6762.51 1057.75  15
   9  -5   4 7231.41 1205.66   2
  -9   5  -5 567.027 207.333  15
   9  -5   5 548.170 217.326   2
  -9   5  -6 16746.6 1677.11  15
   9  -5   6 17895.2 1717.91   2
  -9   5  -7 29046.6 2111.20  15
   9  -5   7 31345.4 2112.04   2
  -9   5  -8 12318.7 1225.52  15
   9  -5   8 12822.8 1170.25   2
  -9   5  -9 955.299 289.559  15
   9  -5   9 532.034 207.109   2
  -9   5 -10 1741.85 324.768  15
   9  -4 -10 14622.3 1060.16  15
   9  -4  -9 1712.72 410.976  15
   9  -4  -9 1732.21 448.425   2
   9  -4  -8 912.373 366.611   2
   9  -4  -7 16193.9 1625.83   2
   9  -4  -6 26424.0 2218.89   2
   9  -4  -5 21588.3 1983.84   2
   9  -4  -4 4197.63 877.076   2
   9  -4  -3 8888.15 1283.09   2
  -9   4   2 29408.8 2308.26  15
   9  -4  -2 32282.7 2451.86   2
  -9   4   1 54996.2 3255.32  15
   9  -4  -1 57441.4 3361.03   2
  -9   4   0 18110.0 1806.30  15
   9  -4   0 17326.5 1835.89   2
  -9   4  -1 371.467 301.654  15
   9  -4   1 248.325 196.264   2
  -9   4  -2 11412.5 1461.58  15
   9  -4   2 12742.6 1569.82   2
  -9   4  -3 39646.9 2845.40  15
   9  -4   3 44101.1 3005.99   2
  -9   4  -4 57874.5 3417.84  15
   9  -4   4 54555.0 3375.88   2
  -9   4  -5 11415.0 1417.25  15
   9  -4   5 11094.5 1365.01   2
  -9   4  -6 2586.03 600.649  15
   9  -4   6 2635.82 614.761   2
  -9   4  -7 45391.0 2660.07  15
   9  -4   7 43395.6 2285.95   2
  -9   4  -8 26271.1 1785.31  15
  -9   4  -9 22097.4 1420.53  15
  -9   4 -10 384.341 148.120  15
   9  -3 -11 15208.6 996.459  15
   9  -3 -10 17710.5 1267.49  15
   9  -3  -9 5231.55 749.143  15
   9  -3  -9 6873.29 960.557   2
   9  -3  -8 3402.69 782.168   2
   9  -3  -7 8574.19 1242.37   2
   9  -3  -6 23811.2 2124.79   2
   9  -3  -5 27112.0 2250.85   2
   9  -3  -4 9911.64 1366.92   2
   9  -3  -3 379.221 320.604   2
  -9   3   2 36967.0 2679.12  15
   9  -3  -2 35010.6 2610.46   2
  -9   3   1 101022. 4688.36  15
   9  -3  -1 96466.3 4578.20   2
  -9   3   0 65279.5 3669.58  15
   9  -3   0 59556.2 3562.55   2
  -9   3  -1 668.421 511.392  15
   9  -3   1 234.789 214.746   2
  -9   3  -2 16494.1 1799.14  15
   9  -3   2 17258.8 1822.48   2
  -9   3  -3 44539.9 3015.70  15
   9  -3   3 41374.5 2850.20   2
  -9   3  -4 31985.1 2508.99  15
   9  -3   4 30017.7 2274.74   2
  -9   3  -5 21178.8 1939.82  15
   9  -3   5 19273.0 1607.82   2
  -9   3  -6 463.549 312.738  15
  -9   3  -7 34413.0 2154.86  15
  -9   3  -8 12661.2 1109.97  15
  -9   3  -9 12445.4 918.941  15
   9  -2 -11 7337.91 694.687  15
   9  -2 -10 10755.5 993.327  15
   9  -2  -9 5510.56 758.905  15
   9  -2  -9 6596.04 977.369   2
   9  -2  -8 272.621 313.800   2
   9  -2  -7 20554.6 1942.78   2
   9  -2  -6 19796.6 1947.95   2
   9  -2  -5 36937.1 2706.71   2
   9  -2  -4 9894.11 1360.64   2
   9  -2  -3 8920.13 1328.76   2
  -9   2   2 12357.6 1497.73  15
   9  -2  -2 11478.0 1513.42   2
  -9   2   1 53352.0 3251.99  15
   9  -2  -1 51047.3 3265.09   2
  -9   2   0 75871.9 3985.52  15
   9  -2   0 70123.5 3925.00   2
  -9   2  -1 4420.52 893.935  15
   9  -2   1 3800.82 884.317   2
  -9   2  -2 1249.63 468.280  15
   9  -2   2 1616.67 573.462   2
  -9   2  -3 6318.58 1074.34  15
   9  -2   3 4865.08 855.865   2
  -9   2  -4 48216.5 3001.32  15
  -9   2  -5 47869.7 2832.94  15
  -9   2  -6 33523.7 2144.21  15
  -9   2  -7 1016.08 322.772  15
  -9   2  -8 2019.63 349.448  15
   9  -1 -11 912.200 231.308  15
   9  -1 -10 12503.9 1003.30  15
   9  -1 -10 10319.2 857.308  12
   9  -1  -9 30181.2 1788.37  15
   9  -1  -9 37649.1 2335.01   2
   9  -1  -8 9461.21 1228.98   2
   9  -1  -7-13.0799 177.087   2
   9  -1  -6 422.817 158.319   2
   9  -1  -5 25520.6 2258.65   2
   9  -1  -4 18472.8 1964.47   2
   9  -1  -3 24242.2 2252.56   2
  -9   1   2 2078.63 493.842  15
   9  -1  -2 1655.01 538.247   2
  -9   1   1 21428.3 1915.48  15
   9  -1  -1 19377.6 2012.76   2
   9  -1   0 65858.7 3769.39   2
  -9   1   0 78128.8 3861.75  15
   9  -1   1 22751.3 1977.18   2
  -9   1  -1 29804.0 2271.30  15
  -9   1  -2 566.271 308.138  15
  -9   1  -3 8186.86 1115.08  15
  -9   1  -4 7842.65 1037.05  15
  -9   1  -5 16905.0 1381.02  15
  -9   1  -6 14639.4 1100.15  15
   9  -1   6 13254.9 1022.69  10
   9   0 -10 3416.65 433.341  15
   9   0 -10 4560.56 553.677  12
   9   0  -9 14037.7 1030.23  15
   9   0  -8 18464.3 1401.53  13
   9   0  -8 22416.4 1851.23   2
   9   0  -7-185.216 236.666   2
   9   0  -7 223.946 213.650  13
   9   0  -6 316.402 384.388   2
   9   0  -5 19138.6 1985.46   2
   9   0  -4 18658.8 1999.31   2
   9   0  -3 18335.4 1980.56   2
   9   0  -3 15280.4 1391.92  10
   9   0  -2 712.965 368.488   2
   9   0  -2 1073.25 421.358  10
   9   0  -1 2753.46 682.855  10
  -9   0   0 32466.8 2215.56  15
  -9   0  -1 36363.1 2294.02  15
  -9   0  -2 7460.14 945.515  15
  -9   0  -3-310.131 196.161  15
   9   0   3 183.803 137.031  10
  -9   0  -4 1390.33 314.471  15
   9   0   4 1448.16 330.554  10
   9   0   5 8399.42 727.490  10
   9   1 -10 908.530 208.603  12
   9   1  -8 16720.8 1244.23  13
   9   1  -7 7250.59 921.652  13
   9   1  -6 3112.50 690.207  13
   9   1  -6 2147.07 625.891   2
   9   1  -5 6393.69 1064.51  13
   9   1  -3 11762.2 1102.82  10
   9   1  -2 25366.2 1813.42  10
   9   1  -1 2154.76 561.374  10
   9   1   0 5509.22 862.525  10
   9   1   1 26733.2 1649.63  13
   9   1   1 37005.7 2166.47  10
   9   1   2 23488.4 1533.90  10
   9   1   3 801.425 162.723  10
   9   2  -8 15272.4 1051.91  12
   9   2  -7 13326.5 1129.37  13
   9   2  -6 8917.87 1040.73  13
   9   2  -5-40.6427 118.593  13
   9   2  -4 19646.4 1777.61  13
   9   2  -3 14760.3 1475.05  13
   9   2  -2 12013.6 1189.91  13
   9   2  -2 9148.27 867.304  10
   9   2  -1 4015.41 554.229  10
   9   2   0-298.512 106.498  10
 -10  10   0 4786.75 758.572   8
 -10  10  -1 23646.5 1826.65   8
 -10  10  -2 12483.2 1302.98   8
 -10  10  -3 1830.91 429.952   8
 -10  10  -4 1567.23 372.324   5
 -10  10  -5 12331.2 1040.20   5
 -10   9   3 8057.59 816.888   8
 -10   9   2 7432.12 919.512   8
 -10   9   1 5540.06 918.085   8
 -10   9   0 655.611 423.666   8
 -10   9  -1 6947.00 726.229   5
 -10   9  -1 13086.7 1557.63   8
  10  -9   2 9222.00 907.846   2
 -10   9  -2 12051.8 1484.84   8
  10  -9   3 4373.49 651.135   2
 -10   9  -3 4183.84 819.342   8
 -10   9  -4 160.538 151.308   8
  10  -9   4 184.226 101.427   2
  10  -9   5 12709.8 1157.91   2
  10  -9   6 15957.3 1264.72   2
  10  -9   7 28240.0 1606.82   2
 -10   8   4 1368.56 323.571   8
 -10   8   3 13639.7 1280.19   8
 -10   8   2 26215.4 2018.24   8
 -10   8   1 7914.60 1180.53   8
  10  -8  -1 8193.48 883.983   2
 -10   8   0 643.973 351.674   8
  10  -8   0 546.656 147.399   2
  10  -8   1 15341.2 1343.43   2
 -10   8  -1 15839.6 1917.83   8
  10  -8   2 39864.7 2305.54   2
 -10   8  -2 38277.3 3002.55   8
  10  -8   3 37113.5 2281.62   2
 -10   8  -3 32700.0 2613.96   8
  10  -8   4 4549.36 776.945   2
 -10   8  -4 3287.97 733.844   8
 -10   8  -5 309.358 214.965   8
  10  -8   5 375.354 222.511   2
  10  -8   6 5178.16 786.952   2
  10  -8   7 24660.9 1624.82   2
  10  -8   8 27039.1 1508.46   2
 -10   7   6 18197.5 1316.07   3
 -10   7   5 11064.9 978.820   8
 -10   7   5 11276.3 1173.53   3
 -10   7   4 182.378 210.076   8
 -10   7   4 475.468 269.889   3
 -10   7   3 21115.4 1760.35   8
  10  -7  -3 19592.8 1491.45   2
 -10   7   2 8874.08 1236.99   8
  10  -7  -2 9704.99 1049.34   2
  10  -7  -1 24617.8 1820.24   2
 -10   7   1 21686.3 2115.12   8
  10  -7   0 10460.7 1198.72   2
 -10   7   0 8109.81 1318.92   8
  10  -7   1 1395.06 503.003   2
  10  -7   2 23206.0 1876.61   2
  10  -7   3 29163.3 2191.86   2
  10  -7   4 23692.9 1933.42   2
 -10   7  -5 2453.82 537.460   8
  10  -7   5 2811.12 620.447   2
  10  -7   6 1569.40 429.014   2
  10  -7   7 13744.7 1211.70   2
  10  -7   8 27856.0 1523.09   2
 -10   6   7 1095.10 336.153   3
  10  -6  -6 6981.74 718.577  15
 -10   6   5 11546.3 1110.72   8
  10  -6  -5 13619.0 1225.85   2
 -10   6   4 4349.85 759.262   8
  10  -6  -4 3830.06 686.032   2
 -10   6   3 17750.3 1704.22   8
  10  -6  -3 19928.2 1667.68   2
  10  -6  -2 10349.2 1218.71   2
  10  -6  -1 18042.3 1670.74   2
  10  -6   0 10340.2 1284.22   2
  10  -6   1 602.518 424.353   2
 -10   6  -2 13697.4 1383.30  15
  10  -6   2 17624.4 1740.79   2
 -10   6  -3 30818.2 2130.10  15
  10  -6   3 41636.0 2729.91   2
 -10   6  -4 7493.65 992.256  15
  10  -6   4 10580.1 1301.66   2
 -10   6  -5 9300.00 1064.73  15
  10  -6   5 11676.3 1300.42   2
 -10   6  -6 1091.21 343.493  15
  10  -6   6 1262.95 399.628   2
 -10   6  -7 5537.71 677.242  15
  10  -6   7 7432.12 813.176   2
  10  -6   8 26062.7 1343.27   2
  10  -5  -8 2092.72 354.117  15
  10  -5  -7 1031.80 295.490  15
  10  -5  -7 586.393 264.382   2
  10  -5  -6 13670.6 1307.51   2
 -10   5   5 21052.0 1608.29   8
  10  -5  -5 25764.1 1931.62   2
  10  -5  -4 32219.9 2257.94   2
  10  -5  -3 3059.78 696.716   2
  10  -5  -2 305.062 286.968   2
  10  -5  -1 10019.2 1316.11   2
  10  -5   0 20165.9 1845.39   2
 -10   5  -1 9662.55 1196.77  15
  10  -5   1 11580.7 1453.04   2
 -10   5  -2 321.924 271.968  15
  10  -5   2 1731.61 565.865   2
 -10   5  -3 6233.78 960.033  15
  10  -5   3 6426.08 1105.81   2
 -10   5  -4 28898.9 2090.58  15
  10  -5   4 33895.6 2341.94   2
 -10   5  -5 26082.4 1876.29  15
  10  -5   5 28056.5 1954.23   2
 -10   5  -6 7207.60 870.618  15
  10  -5   6 7195.53 851.470   2
 -10   5  -7 4409.06 597.907  15
  10  -5   7 3909.29 501.497   2
  10  -4  -9 13947.1 911.401  15
  10  -4  -8 4195.62 564.943  15
  10  -4  -8 3735.88 602.332   2
  10  -4  -7 78.6621 81.7746   2
  10  -4  -6 8520.78 1119.64   2
  10  -4  -5 17109.4 1640.89   2
  10  -4  -4 40061.2 2696.26   2
  10  -4  -3 426.741 354.399   2
  10  -4  -2 2267.54 643.986   2
  10  -4  -1 21157.9 2030.93   2
 -10   4   0 38991.0 2580.95  15
  10  -4   0 45814.1 2936.02   2
 -10   4  -1 27379.8 2149.14  15
  10  -4   1 30687.8 2345.01   2
 -10   4  -2 6867.09 1031.95  15
  10  -4   2 6823.52 1101.44   2
 -10   4  -3 1967.78 517.411  15
  10  -4   3 2313.60 530.842   2
 -10   4  -4 6263.44 939.679  15
  10  -4   4 6967.79 923.770   2
 -10   4  -5 15963.3 1418.55  15
  10  -4   5 14743.1 1225.67   2
 -10   4  -6 22400.6 1550.67  15
 -10   4  -7-5.28675 96.2790  15
  10  -3  -9 12850.8 921.649  15
  10  -3  -8 24736.8 1520.89  15
  10  -3  -8 30506.3 1898.28   2
  10  -3  -7 4475.21 773.156   2
  10  -3  -6 231.656 107.788   2
  10  -3  -5 1973.25 493.757   2
  10  -3  -4 19966.1 1844.52   2
  10  -3  -3 7705.39 1174.26   2
  10  -3  -2 537.982 273.517   2
  10  -3  -1 1130.84 473.162   2
 -10   3   0 16678.9 1638.81  15
  10  -3   0 14920.1 1673.32   2
 -10   3  -1 19570.8 1792.54  15
  10  -3   1 18972.6 1775.73   2
 -10   3  -2 14264.1 1482.13  15
  10  -3   2 14295.9 1494.94   2
 -10   3  -3 4405.83 794.861  15
  10  -3   3 3569.26 660.620   2
 -10   3  -4 11454.6 1205.88  15
 -10   3  -5 29945.7 1855.15  15
 -10   3  -6 44763.0 2033.37  15
  10  -2  -9 8865.46 724.227  15
  10  -2  -8 8058.26 790.850  15
  10  -2  -8 10606.5 1097.23   2
  10  -2  -7 2784.66 608.455   2
  10  -2  -6 1638.23 494.913   2
  10  -2  -5 11049.5 1312.35   2
  10  -2  -4 28528.6 2242.90   2
  10  -2  -3 33001.1 2441.32   2
  10  -2  -2 8760.82 1193.47   2
  10  -2  -1-186.581 179.543   2
 -10   2   0 15698.3 1522.11  15
  10  -2   0 13177.1 1456.80   2
 -10   2  -1 19851.9 1701.15  15
  10  -2   1 14714.8 1406.13   2
 -10   2  -2 20704.6 1689.43  15
 -10   2  -3 2549.14 544.978  15
 -10   2  -4 4994.38 669.465  15
 -10   2  -5 21034.2 1246.41  15
  10  -2   5 18992.6 1178.53  10
  10  -1  -7 13902.3 1317.41   2
  10  -1  -6 2620.55 615.811   2
  10  -1  -6 2219.22 445.103  13
  10  -1  -5 53.6941 164.697   2
  10  -1  -4 5518.87 917.962   2
  10  -1  -3 14806.2 1568.17   2
  10  -1  -2 4704.32 824.820   2
  10  -1  -2 4049.11 597.962  10
  10  -1  -1 2336.14 500.841  10
  10  -1   0 508.046 275.701  10
  10  -1   1 6189.25 828.664  10
  10  -1   2 19232.6 1416.59  10
  10  -1   3 13642.5 1049.31  10
  10   0  -6 7451.29 806.365  13
  10   0  -5 622.265 254.752  13
  10   0  -4 4013.91 727.752  13
  10   0  -3 3914.43 721.028  13
  10   0  -1 7640.73 927.788  13
  10   0   0 104.510 103.071  13
 -11   8   1 16524.2 1371.88   8
 -11   8   0 22424.7 1740.74   8
 -11   8  -1 7432.82 998.653   8
 -11   8  -2-426.043 295.501   8
  11  -8   2 141.096 182.386   2
  11  -8   3 18835.3 1343.31   2
 -11   7   3 5026.18 655.531   8
 -11   7   2-165.496 216.119   8
  11  -7  -2 13.4815 118.173   2
 -11   7   1 5537.59 838.006   8
  11  -7  -1 5800.35 748.210   2
  11  -7   0 11604.1 1125.75   2
 -11   7   0 10642.6 1275.72   8
  11  -7   1 12085.9 1152.39   2
 -11   7  -1 10256.3 1259.49   8
 -11   7  -2 2310.88 578.098   8
  11  -7   2 2866.24 580.592   2
  11  -7   3 17065.1 1377.68   2
 -11   7  -3 13014.0 1216.58   8
  11  -7   4 7681.08 855.026   2
  11  -6  -4 23335.6 1474.44   2
 -11   6   3 4174.51 653.600   8
  11  -6  -3 4538.65 700.645   2
 -11   6   2 3413.84 660.326   8
  11  -6  -2 5406.75 782.433   2
 -11   6   1 3949.27 767.203   8
  11  -6  -1 4478.30 747.475   2
  11  -6   0 26116.8 1855.65   2
  11  -6   1 23790.3 1794.32   2
  11  -6   2 13802.3 1317.15   2
  11  -6   3-316.993 226.488   2
  11  -6   4 8921.14 929.574   2
  11  -5  -5 4162.96 640.881   2
 -11   5   4 13050.2 1076.26   8
  11  -5  -4 17511.5 1426.54   2
 -11   5   3 6458.68 843.544   8
  11  -5  -3 8179.69 1000.77   2
  11  -5  -2 9846.16 1156.73   2
  11  -5  -1 780.478 282.392   2
  11  -5   0 14474.5 1428.61   2
  11  -5   1 8429.74 1081.54   2
  11  -5   2 12079.0 1183.05   2
  11  -5   3 345.539 225.530   2
  11  -4  -5 157.034 96.3265   2
  11  -4  -4 10721.0 1143.90   2
  11  -4  -3 15957.5 1462.46   2
  11  -4  -2 20253.6 1701.69   2
  11  -4  -1 5065.61 839.816   2
  11  -4   0 6937.19 949.210   2
  11  -4   1 11156.4 1141.05   2
  11  -4   2 13654.2 1145.18   2
  11  -3  -5 1663.88 435.677   2
  11  -3  -4 1919.51 498.607   2
  11  -3  -3 9208.77 1088.27   2
  11  -3  -2 14334.1 1371.81   2
  11  -3  -1 8746.71 1013.02   2
   0   0   0    0.00    0.00   0
TITL DSMSAB in P-1
REM P-1 (#2 in standard setting)
CELL 1.54184   9.244422  10.011578  14.465915 107.3708  91.2692 116.6224
ZERR    1.00   0.000972   0.000790   0.001342   0.0076   0.0082   0.0095
LATT  1
SFAC C H N O Cd
UNIT 40.00 22.00 8.00 8.00 2.00
TREF
HKLF 4
END
;
_shelx_hkl_checksum              78268
loop_
_space_group_symop_operation_xyz
'x, y, z'
'-x, -y, -z'
loop_
_atom_site_label
_atom_site_type_symbol
_atom_site_fract_x
_atom_site_fract_y
_atom_site_fract_z
_atom_site_U_iso_or_equiv
_atom_site_adp_type
_atom_site_occupancy
_atom_site_site_symmetry_order
_atom_site_calc_flag
_atom_site_refinement_flags_posn
_atom_site_refinement_flags_adp
_atom_site_refinement_flags_occupancy
_atom_site_disorder_assembly
_atom_site_disorder_group
Cd1 Cd 0.82342(3) 0.43751(2) 0.10566(2) 0.01700(12) Uani 1 1 d . . . . .
O11 O 0.8214(3) 0.3351(3) 0.23614(19) 0.0229(6) Uani 1 1 d . . . . .
O12 O 0.9888(4) 0.5917(3) 0.2714(2) 0.0270(6) Uani 1 1 d . . . . .
C11 C 0.9220(5) 0.4711(4) 0.2964(3) 0.0202(7) Uani 1 1 d . . . . .
C12 C 0.9618(4) 0.4865(4) 0.4024(3) 0.0179(7) Uani 1 1 d . . . . .
C13 C 0.9005(5) 0.3518(5) 0.4295(3) 0.0214(7) Uani 1 1 d . . . . .
H13 H 0.8321 0.2501 0.3812 0.026 Uiso 1 1 calc R U . . .
C14 C 1.0623(5) 0.6362(5) 0.4739(3) 0.0219(7) Uani 1 1 d . . . . .
H14 H 1.1048 0.7292 0.4564 0.026 Uiso 1 1 calc R U . . .
O21 O 1.0434(4) 0.4021(3) 0.0619(2) 0.0233(6) Uani 1 1 d . . . . .
O22 O 1.1088(3) 0.3317(3) -0.0862(2) 0.0248(6) Uani 1 1 d . . . . .
C21 C 1.0625(5) 0.3070(4) -0.0082(3) 0.0201(7) Uani 1 1 d . . . . .
C22 C 1.0299(4) 0.1469(4) -0.0046(3) 0.0188(7) Uani 1 1 d . . . . .
C23 C 0.9662(5) 0.1022(5) 0.0740(3) 0.0236(8) Uani 1 1 d . . . . .
H23 H 0.9436 0.1721 0.1248 0.028 Uiso 1 1 calc R U . . .
C24 C 1.0643(5) 0.0447(5) -0.0782(3) 0.0244(8) Uani 1 1 d . . . . .
H24 H 1.1088 0.0756 -0.1315 0.029 Uiso 1 1 calc R U . . .
N11 N 0.5935(5) 0.4520(4) 0.1583(3) 0.0259(7) Uani 1 1 d . . . . .
N12 N 0.3760(4) 0.4047(5) 0.2291(3) 0.0330(8) Uani 1 1 d . . . . .
C101 C 0.4993(5) 0.3716(5) 0.2099(3) 0.0283(8) Uani 1 1 d . . . . .
H101 H 0.5169 0.2982 0.2313 0.034 Uiso 1 1 calc R U . . .
C102 C 0.5257(6) 0.5435(6) 0.1427(3) 0.0369(10) Uani 1 1 d . . . . .
H102 H 0.5662 0.6146 0.1070 0.044 Uiso 1 1 calc R U . . .
C103 C 0.3918(6) 0.5154(6) 0.1867(4) 0.0381(10) Uani 1 1 d . . . . .
H103 H 0.3228 0.5630 0.1880 0.046 Uiso 1 1 calc R U . . .
C104 C 0.2581(6) 0.3482(7) 0.2919(4) 0.0438(12) Uani 1 1 d . . . . .
H10A H 0.2330 0.2384 0.2853 0.053 Uiso 1 1 calc R U . . .
H10B H 0.1544 0.3455 0.2697 0.053 Uiso 1 1 calc R U . . .
C105 C 0.3243(7) 0.4547(8) 0.3996(4) 0.0473(13) Uani 1 1 d . . . . .
H10C H 0.2352 0.4215 0.4378 0.057 Uiso 1 1 calc R U . . .
H10D H 0.3571 0.5658 0.4050 0.057 Uiso 1 1 calc R U . . .
C106 C 0.4717(6) 0.4495(7) 0.4450(4) 0.0429(12) Uani 1 1 d . . . . .
H10E H 0.5639 0.4893 0.4098 0.051 Uiso 1 1 calc R U . . .
H10F H 0.4415 0.3379 0.4367 0.051 Uiso 1 1 calc R U . . .
C201 C 0.7009(5) 0.1901(5) -0.1202(3) 0.0257(8) Uani 1 1 d . . . . .
H201 H 0.8091 0.2375 -0.1336 0.031 Uiso 1 1 calc R U . . .
N21 N 0.6596(4) 0.2383(4) -0.0339(2) 0.0227(7) Uani 1 1 d . . . . .
N22 N 0.5713(4) 0.0666(4) -0.1857(2) 0.0249(7) Uani 1 1 d . . . . .
C202 C 0.4935(5) 0.1390(5) -0.0465(3) 0.0286(8) Uani 1 1 d . . . . .
H202 H 0.4281 0.1439 0.0028 0.034 Uiso 1 1 calc R U . . .
C203 C 0.4368(5) 0.0326(5) -0.1404(3) 0.0297(9) Uani 1 1 d . . . . .
H203 H 0.3268 -0.0483 -0.1686 0.036 Uiso 1 1 calc R U . . .
C204 C 0.5693(6) -0.0137(5) -0.2886(3) 0.0299(9) Uani 1 1 d . . . . .
H20A H 0.4837 -0.1266 -0.3093 0.036 Uiso 1 1 calc R U . . .
H20B H 0.6770 -0.0110 -0.2947 0.036 Uiso 1 1 calc R U . . .
C205 C 0.5354(6) 0.0623(5) -0.3566(3) 0.0299(9) Uani 1 1 d . . . . .
H20C H 0.6255 0.1727 -0.3398 0.036 Uiso 1 1 calc R U . . .
H20D H 0.4315 0.0667 -0.3475 0.036 Uiso 1 1 calc R U . . .
C206 C 0.5216(6) -0.0330(5) -0.4642(3) 0.0312(9) Uani 1 1 d . . . . .
H20E H 0.6277 -0.0324 -0.4735 0.037 Uiso 1 1 calc R U . . .
H20F H 0.4362 -0.1449 -0.4792 0.037 Uiso 1 1 calc R U . . .
O1 O 0.9423(5) 0.0890(5) -0.3506(4) 0.0609(11) Uani 1 1 d . . . . .
H1 H 0.9587 0.1734 -0.3063 0.091 Uiso 1 1 calc R U . . .
C1 C 1.0918(10) 0.0874(10) -0.3592(7) 0.077(2) Uani 1 1 d . . . . .
H1A H 1.1446 0.1413 -0.4050 0.116 Uiso 1 1 calc R U . . .
H1B H 1.0717 -0.0230 -0.3842 0.116 Uiso 1 1 calc R U . . .
H1C H 1.1640 0.1427 -0.2945 0.116 Uiso 1 1 calc R U . . .
loop_
_atom_site_aniso_label
_atom_site_aniso_U_11
_atom_site_aniso_U_22
_atom_site_aniso_U_33
_atom_site_aniso_U_23
_atom_site_aniso_U_13
_atom_site_aniso_U_12
Cd1 0.01917(18) 0.01786(18) 0.01387(17) 0.00569(11) -0.00001(11) 0.00873(13)
O11 0.0272(14) 0.0245(13) 0.0158(12) 0.0038(10) -0.0015(10) 0.0135(11)
O12 0.0360(16) 0.0268(14) 0.0180(13) 0.0100(11) 0.0027(11) 0.0136(13)
C11 0.0207(17) 0.0270(18) 0.0147(16) 0.0049(14) -0.0006(13) 0.0144(15)
C12 0.0167(17) 0.0216(17) 0.0140(15) 0.0049(14) 0.0012(13) 0.0089(14)
C13 0.0171(17) 0.0227(17) 0.0174(17) 0.0028(13) -0.0037(13) 0.0067(14)
C14 0.0200(18) 0.0252(18) 0.0190(17) 0.0070(15) 0.0031(14) 0.0102(15)
O21 0.0214(14) 0.0199(13) 0.0298(15) 0.0054(11) 0.0008(11) 0.0129(11)
O22 0.0301(15) 0.0193(12) 0.0270(14) 0.0109(11) 0.0047(11) 0.0115(11)
C21 0.0192(17) 0.0191(16) 0.0234(18) 0.0107(14) -0.0010(14) 0.0084(14)
C22 0.0163(17) 0.0199(16) 0.0231(18) 0.0090(14) 0.0031(13) 0.0099(14)
C23 0.031(2) 0.0261(18) 0.0213(18) 0.0109(15) 0.0092(15) 0.0177(17)
C24 0.030(2) 0.0257(18) 0.0222(18) 0.0125(15) 0.0096(15) 0.0147(16)
N11 0.0290(18) 0.0337(19) 0.0243(17) 0.0095(15) 0.0079(14) 0.0227(16)
N12 0.0232(17) 0.047(2) 0.0260(18) 0.0028(16) 0.0018(14) 0.0207(17)
C101 0.030(2) 0.037(2) 0.028(2) 0.0131(17) 0.0071(16) 0.0234(18)
C102 0.041(3) 0.042(2) 0.032(2) 0.0066(19) -0.0059(19) 0.027(2)
C103 0.038(2) 0.048(3) 0.034(2) 0.004(2) -0.0050(19) 0.031(2)
C104 0.022(2) 0.070(3) 0.029(2) 0.004(2) 0.0027(17) 0.022(2)
C105 0.035(3) 0.080(4) 0.029(2) 0.007(2) 0.011(2) 0.036(3)
C106 0.031(2) 0.065(3) 0.031(2) 0.002(2) 0.0062(19) 0.030(2)
C201 0.0200(18) 0.0299(19) 0.0185(17) 0.0036(15) -0.0034(14) 0.0080(16)
N21 0.0220(16) 0.0240(16) 0.0158(15) 0.0032(13) -0.0037(12) 0.0084(13)
N22 0.0287(17) 0.0273(16) 0.0173(15) 0.0051(13) -0.0007(13) 0.0141(14)
C202 0.024(2) 0.033(2) 0.0228(19) 0.0078(16) 0.0030(15) 0.0096(17)
C203 0.024(2) 0.027(2) 0.027(2) 0.0069(16) 0.0020(16) 0.0041(16)
C204 0.035(2) 0.032(2) 0.0180(19) 0.0038(16) 0.0020(16) 0.0156(18)
C205 0.035(2) 0.030(2) 0.0196(19) 0.0060(16) 0.0001(16) 0.0134(18)
C206 0.034(2) 0.031(2) 0.0209(19) 0.0046(17) 0.0015(16) 0.0125(18)
O1 0.057(3) 0.045(2) 0.069(3) 0.005(2) 0.003(2) 0.024(2)
C1 0.066(4) 0.079(5) 0.088(6) 0.006(4) 0.009(4) 0.050(4)
loop_
_atom_type_symbol
_atom_type_description
_atom_type_scat_dispersion_real
_atom_type_scat_dispersion_imag
_atom_type_scat_source
C C 0.0181 0.0091 'International Tables Vol C Tables 4.2.6.8 and 6.1.1.4'
H H 0.0000 0.0000 'International Tables Vol C Tables 4.2.6.8 and 6.1.1.4'
Cd Cd 0.1185 4.6533 'International Tables Vol C Tables 4.2.6.8 and 6.1.1.4'
N N 0.0311 0.0180 'International Tables Vol C Tables 4.2.6.8 and 6.1.1.4'
O O 0.0492 0.0322 'International Tables Vol C Tables 4.2.6.8 and 6.1.1.4'
loop_
_geom_angle_atom_site_label_1
_geom_angle_atom_site_label_2
_geom_angle_atom_site_label_3
_geom_angle
_geom_angle_site_symmetry_1
_geom_angle_site_symmetry_3
_geom_angle_publ_flag
O11 Cd1 O12 54.22(9) . . yes
O11 Cd1 C11 27.25(10) . . ?
O12 Cd1 C11 27.02(11) . . ?
O21 Cd1 O11 90.18(10) . . yes
O21 Cd1 O12 86.53(10) . . yes
O21 Cd1 C11 89.37(11) . . ?
O21 Cd1 N11 173.57(11) . . yes
O22 Cd1 O11 139.13(10) 2_765 . yes
O22 Cd1 O12 86.97(10) 2_765 . yes
O22 Cd1 C11 112.83(11) 2_765 . ?
O22 Cd1 O21 100.73(10) 2_765 . yes
O22 Cd1 N11 85.42(12) 2_765 . yes
O22 Cd1 N21 108.86(11) 2_765 . yes
N11 Cd1 O11 83.89(11) . . yes
N11 Cd1 O12 91.99(12) . . yes
N11 Cd1 C11 86.49(12) . . ?
N21 Cd1 O11 110.33(11) . . yes
N21 Cd1 O12 164.17(12) . . yes
N21 Cd1 C11 137.57(12) . . ?
N21 Cd1 O21 90.41(11) . . yes
N21 Cd1 N11 89.32(13) . . yes
C11 O11 Cd1 92.5(2) . . ?
C11 O12 Cd1 90.6(2) . . ?
O11 C11 Cd1 60.28(18) . . ?
O11 C11 C12 117.9(3) . . ?
O12 C11 Cd1 62.41(19) . . ?
O12 C11 O11 122.5(3) . . ?
O12 C11 C12 119.6(3) . . ?
C12 C11 Cd1 175.3(3) . . ?
C13 C12 C11 120.3(3) . . ?
C13 C12 C14 119.3(3) . . ?
C14 C12 C11 120.4(3) . . ?
C12 C13 H13 119.5 . . ?
C14 C13 C12 120.9(4) 2_766 . ?
C14 C13 H13 119.5 2_766 . ?
C12 C14 H14 120.1 . . ?
C13 C14 C12 119.8(4) 2_766 . ?
C13 C14 H14 120.1 2_766 . ?
C21 O21 Cd1 134.5(3) . . ?
C21 O22 Cd1 121.3(2) . 2_765 ?
O21 C21 O22 125.5(3) . . ?
O21 C21 C22 120.0(3) . . ?
O22 C21 C22 114.5(3) . . ?
C23 C22 C21 119.3(3) . . ?
C24 C22 C21 120.8(3) . . ?
C24 C22 C23 119.8(3) . . ?
C22 C23 H23 120.1 . . ?
C24 C23 C22 119.8(4) 2_755 . ?
C24 C23 H23 120.1 2_755 . ?
C22 C24 H24 119.8 . . ?
C23 C24 C22 120.3(4) 2_755 . ?
C23 C24 H24 119.8 2_755 . ?
C101 N11 Cd1 126.0(3) . . ?
C101 N11 C102 105.3(4) . . ?
C102 N11 Cd1 128.6(3) . . ?
C101 N12 C103 106.7(4) . . ?
C101 N12 C104 126.7(4) . . ?
C103 N12 C104 126.2(4) . . ?
N11 C101 N12 112.4(4) . . ?
N11 C101 H101 123.8 . . ?
N12 C101 H101 123.8 . . ?
N11 C102 H102 125.5 . . ?
C103 C102 N11 109.1(4) . . ?
C103 C102 H102 125.5 . . ?
N12 C103 H103 126.7 . . ?
C102 C103 N12 106.5(4) . . ?
C102 C103 H103 126.7 . . ?
N12 C104 H10A 109.3 . . ?
N12 C104 H10B 109.3 . . ?
N12 C104 C105 111.7(4) . . ?
H10A C104 H10B 107.9 . . ?
C105 C104 H10A 109.3 . . ?
C105 C104 H10B 109.3 . . ?
C104 C105 H10C 108.9 . . ?
C104 C105 H10D 108.9 . . ?
C104 C105 C106 113.4(4) . . ?
H10C C105 H10D 107.7 . . ?
C106 C105 H10C 108.9 . . ?
C106 C105 H10D 108.9 . . ?
C105 C106 C106 111.8(5) . 2_666 ?
C105 C106 H10E 109.3 . . ?
C105 C106 H10F 109.3 . . ?
C106 C106 H10E 109.3 2_666 . ?
C106 C106 H10F 109.3 2_666 . ?
H10E C106 H10F 107.9 . . ?
N21 C201 H201 124.2 . . ?
N21 C201 N22 111.6(4) . . ?
N22 C201 H201 124.2 . . ?
C201 N21 Cd1 128.3(3) . . ?
C201 N21 C202 105.2(3) . . ?
C202 N21 Cd1 126.5(3) . . ?
C201 N22 C203 107.6(3) . . ?
C201 N22 C204 126.8(4) . . ?
C203 N22 C204 125.6(4) . . ?
N21 C202 H202 125.1 . . ?
C203 C202 N21 109.9(4) . . ?
C203 C202 H202 125.1 . . ?
N22 C203 H203 127.1 . . ?
C202 C203 N22 105.8(4) . . ?
C202 C203 H203 127.1 . . ?
N22 C204 H20A 109.1 . . ?
N22 C204 H20B 109.1 . . ?
N22 C204 C205 112.4(3) . . ?
H20A C204 H20B 107.9 . . ?
C205 C204 H20A 109.1 . . ?
C205 C204 H20B 109.1 . . ?
C204 C205 H20C 109.5 . . ?
C204 C205 H20D 109.5 . . ?
C204 C205 C206 110.5(4) . . ?
H20C C205 H20D 108.1 . . ?
C206 C205 H20C 109.5 . . ?
C206 C205 H20D 109.5 . . ?
C205 C206 H20E 109.1 . . ?
C205 C206 H20F 109.1 . . ?
C206 C206 C205 112.6(5) 2_654 . ?
C206 C206 H20E 109.1 2_654 . ?
C206 C206 H20F 109.1 2_654 . ?
H20E C206 H20F 107.8 . . ?
C1 O1 H1 109.5 . . ?
O1 C1 H1A 109.5 . . ?
O1 C1 H1B 109.5 . . ?
O1 C1 H1C 109.5 . . ?
H1A C1 H1B 109.5 . . ?
H1A C1 H1C 109.5 . . ?
H1B C1 H1C 109.5 . . ?
loop_
_geom_bond_atom_site_label_1
_geom_bond_atom_site_label_2
_geom_bond_distance
_geom_bond_site_symmetry_2
_geom_bond_publ_flag
Cd1 O11 2.399(3) . yes
Cd1 O12 2.446(3) . yes
Cd1 C11 2.759(4) . ?
Cd1 O21 2.287(3) . yes
Cd1 O22 2.216(3) 2_765 yes
Cd1 N11 2.324(4) . yes
Cd1 N21 2.259(3) . yes
O11 C11 1.265(5) . ?
O12 C11 1.254(5) . ?
C11 C12 1.514(5) . ?
C12 C13 1.391(5) . ?
C12 C14 1.401(5) . ?
C13 H13 0.9500 . ?
C13 C14 1.388(5) 2_766 ?
C14 C13 1.388(5) 2_766 ?
C14 H14 0.9500 . ?
O21 C21 1.244(5) . ?
O22 Cd1 2.216(3) 2_765 ?
O22 C21 1.269(5) . ?
C21 C22 1.510(5) . ?
C22 C23 1.393(5) . ?
C22 C24 1.391(5) . ?
C23 H23 0.9500 . ?
C23 C24 1.389(5) 2_755 ?
C24 C23 1.389(5) 2_755 ?
C24 H24 0.9500 . ?
N11 C101 1.313(6) . ?
N11 C102 1.384(6) . ?
N12 C101 1.336(5) . ?
N12 C103 1.374(7) . ?
N12 C104 1.460(6) . ?
C101 H101 0.9500 . ?
C102 H102 0.9500 . ?
C102 C103 1.358(7) . ?
C103 H103 0.9500 . ?
C104 H10A 0.9900 . ?
C104 H10B 0.9900 . ?
C104 C105 1.523(7) . ?
C105 H10C 0.9900 . ?
C105 H10D 0.9900 . ?
C105 C106 1.528(7) . ?
C106 C106 1.534(9) 2_666 ?
C106 H10E 0.9900 . ?
C106 H10F 0.9900 . ?
C201 H201 0.9500 . ?
C201 N21 1.327(5) . ?
C201 N22 1.336(5) . ?
N21 C202 1.375(5) . ?
N22 C203 1.372(5) . ?
N22 C204 1.460(5) . ?
C202 H202 0.9500 . ?
C202 C203 1.363(6) . ?
C203 H203 0.9500 . ?
C204 H20A 0.9900 . ?
C204 H20B 0.9900 . ?
C204 C205 1.514(6) . ?
C205 H20C 0.9900 . ?
C205 H20D 0.9900 . ?
C205 C206 1.532(6) . ?
C206 C206 1.515(9) 2_654 ?
C206 H20E 0.9900 . ?
C206 H20F 0.9900 . ?
O1 H1 0.8400 . ?
O1 C1 1.397(8) . ?
C1 H1A 0.9800 . ?
C1 H1B 0.9800 . ?
C1 H1C 0.9800 . ?
