#------------------------------------------------------------------------------
#$Date: 2019-11-17 08:08:31 +0200 (Sun, 17 Nov 2019) $
#$Revision: 228810 $
#$URL: file:///home/coder/svn-repositories/cod/cif/1/54/96/1549672.cif $
#------------------------------------------------------------------------------
#
# This file is available in the Crystallography Open Database (COD),
# http://www.crystallography.net/
#
# All data on this site have been placed in the public domain by the
# contributors.
#
data_1549672
loop_
_publ_author_name
'Craig, Gavin A.'
'Larpent, Patrick'
'Kusaka, Shinpei'
'Matsuda, Ryotaro'
'Kitagawa, Susumu'
'Furukawa, Shuhei'
_publ_section_title
;
 Switchable gate-opening effect in metal-organic polyhedra assemblies
 through solution processing.
;
_journal_issue                   31
_journal_name_full               'Chemical science'
_journal_page_first              6463
_journal_page_last               6469
_journal_paper_doi               10.1039/c8sc02263a
_journal_volume                  9
_journal_year                    2018
_chemical_formula_moiety         'C112 H84 Cu4 O24, 10(C4 H8 O)'
_chemical_formula_sum            'C152 H164 Cu4 O34'
_chemical_formula_weight         2788.98
_space_group_crystal_system      monoclinic
_space_group_IT_number           14
_space_group_name_Hall           '-P 2yn'
_space_group_name_H-M_alt        'P 1 21/n 1'
_symmetry_space_group_name_Hall  '-P 2yn'
_symmetry_space_group_name_H-M   'P 1 21/n 1'
_atom_sites_solution_hydrogens   mixed
_audit_creation_date             2018-01-30
_audit_creation_method
;
Olex2 1.2
(compiled 2017.08.10 svn.r3458 for OlexSys, GUI svn.r5381)
;
_audit_update_record
;
2018-05-02 deposited with the CCDC.
2018-07-10 downloaded from the CCDC.
;
_cell_angle_alpha                90
_cell_angle_beta                 116.080(10)
_cell_angle_gamma                90
_cell_formula_units_Z            2
_cell_length_a                   18.5382(15)
_cell_length_b                   25.3600(16)
_cell_length_c                   19.6509(16)
_cell_measurement_reflns_used    22093
_cell_measurement_temperature    97
_cell_measurement_theta_max      30.0150
_cell_measurement_theta_min      2.3180
_cell_volume                     8297.8(13)
_computing_cell_refinement       'CrysAlisPro 1.171.39.20a (Rigaku OD, 2015)'
_computing_data_collection       'CrysAlisPro 1.171.39.20a (Rigaku OD, 2015)'
_computing_data_reduction        'CrysAlisPro 1.171.39.20a (Rigaku OD, 2015)'
_computing_molecular_graphics    'Olex2 (Dolomanov et al., 2009)'
_computing_publication_material  'Olex2 (Dolomanov et al., 2009)'
_computing_structure_refinement  'ShelXL (Sheldrick, 2015)'
_computing_structure_solution    'SHELXT 2014/5 (Sheldrick, 2014)'
_diffrn_ambient_temperature      97
_diffrn_detector                 'CCD plate'
_diffrn_measured_fraction_theta_full 0.996
_diffrn_measured_fraction_theta_max 0.995
_diffrn_measurement_details
;
List of Runs (angles in degrees, time in seconds):

  # Type    Start    End  Width  t~exp~   \w     \q     \k     \f   Frames
#--------------------------------------------------------------------------
  1  \w    -67.00 -41.00   0.50   24.00    --    4.00  45.00  30.00   52
  2  \w    -26.00   0.00   0.50   24.00    --    4.00  45.00  90.00   52
  3  \w   -103.00 -37.00   0.50   24.00    --  -13.90  45.00 150.00  132
  4  \w    -52.00  34.00   0.50   24.00    --  -13.90  45.00  60.00  172
  5  \w    -19.00   7.00   0.50   24.00    --  -13.90  45.00 150.00   52
  6  \w   -103.00  75.00   0.50   24.00    --  -13.90  45.00   0.00  356
  7  \w    -73.00 -23.00   0.50   24.00    --  -13.90  45.00 120.00  100
;
_diffrn_measurement_device       'four-circle diffractometer'
_diffrn_measurement_device_type  'XtaLAB AFC10 (RCD3): fixed-chi single'
_diffrn_measurement_method       '\w scans'
_diffrn_orient_matrix_type
'CrysAlisPro convention (1999,Acta A55,543-557)'
_diffrn_orient_matrix_UB_11      0.0182749000
_diffrn_orient_matrix_UB_12      0.0224061000
_diffrn_orient_matrix_UB_13      -0.0075012000
_diffrn_orient_matrix_UB_21      -0.0200776000
_diffrn_orient_matrix_UB_22      -0.0055411000
_diffrn_orient_matrix_UB_23      -0.0394178000
_diffrn_orient_matrix_UB_31      -0.0328141000
_diffrn_orient_matrix_UB_32      0.0157804000
_diffrn_orient_matrix_UB_33      -0.0031090000
_diffrn_radiation_monochromator  graphite
_diffrn_radiation_probe          x-ray
_diffrn_radiation_type           MoK\a
_diffrn_radiation_wavelength     0.71073
_diffrn_reflns_av_R_equivalents  0.0548
_diffrn_reflns_av_unetI/netI     0.0472
_diffrn_reflns_Laue_measured_fraction_full 0.996
_diffrn_reflns_Laue_measured_fraction_max 0.995
_diffrn_reflns_limit_h_max       23
_diffrn_reflns_limit_h_min       -22
_diffrn_reflns_limit_k_max       32
_diffrn_reflns_limit_k_min       -32
_diffrn_reflns_limit_l_max       22
_diffrn_reflns_limit_l_min       -24
_diffrn_reflns_number            85503
_diffrn_reflns_point_group_measured_fraction_full 0.996
_diffrn_reflns_point_group_measured_fraction_max 0.995
_diffrn_reflns_theta_full        25.242
_diffrn_reflns_theta_max         26.733
_diffrn_reflns_theta_min         2.019
_diffrn_source                   'fine-focus sealed X-ray tube'
_diffrn_source_type              'Enhance (Mo) X-ray Source'
_exptl_absorpt_coefficient_mu    0.571
_exptl_absorpt_correction_T_max  1.00000
_exptl_absorpt_correction_T_min  0.36664
_exptl_absorpt_correction_type   multi-scan
_exptl_absorpt_process_details
;
CrysAlisPro 1.171.39.20a (Rigaku Oxford Diffraction, 2015)
Empirical absorption correction using spherical harmonics,
 implemented in SCALE3 ABSPACK scaling algorithm.
;
_exptl_crystal_colour            'light blue'
_exptl_crystal_colour_modifier   light
_exptl_crystal_colour_primary    blue
_exptl_crystal_density_diffrn    1.116
_exptl_crystal_description       block
_exptl_crystal_F_000             2928
_exptl_crystal_recrystallization_method 'Re-crystallisation from solvent: THF'
_exptl_crystal_size_max          0.2
_exptl_crystal_size_mid          0.2
_exptl_crystal_size_min          0.1
_refine_diff_density_max         0.932
_refine_diff_density_min         -0.537
_refine_diff_density_rms         0.068
_refine_ls_extinction_method     none
_refine_ls_goodness_of_fit_ref   1.028
_refine_ls_hydrogen_treatment    constr
_refine_ls_matrix_type           full
_refine_ls_number_parameters     878
_refine_ls_number_reflns         17542
_refine_ls_number_restraints     67
_refine_ls_restrained_S_all      1.031
_refine_ls_R_factor_all          0.0635
_refine_ls_R_factor_gt           0.0468
_refine_ls_shift/su_max          0.002
_refine_ls_shift/su_mean         0.000
_refine_ls_structure_factor_coef Fsqd
_refine_ls_weighting_details
'w=1/[\s^2^(Fo^2^)+(0.0657P)^2^+6.1153P] where P=(Fo^2^+2Fc^2^)/3'
_refine_ls_weighting_scheme      calc
_refine_ls_wR_factor_gt          0.1223
_refine_ls_wR_factor_ref         0.1301
_reflns_Friedel_coverage         0.000
_reflns_number_gt                13755
_reflns_number_total             17542
_reflns_threshold_expression     'I > 2\s(I)'
_cod_data_source_file            c8sc02263a2.cif
_cod_data_source_block           gac269_sq
_cod_depositor_comments
'Adding full bibliography for 1549671--1549673.cif.'
_cod_database_code               1549672
_shelx_shelxl_version_number     2016/6
_chemical_oxdiff_formula         'C100 H48 O7 Cu4'
_shelx_space_group_comment
;
The symmetry employed for this shelxl refinement is uniquely defined
by the following loop, which should always be used as a source of
symmetry information in preference to the above space-group names.
They are only intended as comments.
;
_reflns_odcompleteness_completeness 99.73
_reflns_odcompleteness_iscentric 1
_reflns_odcompleteness_theta     26.67
_olex2_refinement_description
;
1. Fixed Uiso
 At 1.2 times of:
  All C(H) groups, All C(H,H) groups, All C(H,H,H,H) groups
 At 1.5 times of:
  All C(H,H,H) groups, All O(H,H) groups
2. Restrained distances
 C4A-C3A
 1.52 with sigma of 0.02
 C2A-C3A
 1.52 with sigma of 0.02
 O1A-C2A
 1.48 with sigma of 0.02
 C5A-O1A
 1.48 with sigma of 0.02
 C5T-C4T
 1.48 with sigma of 0.02
 C3C-C2C
 1.52 with sigma of 0.02
 C32E-C4E
 1.52 with sigma of 0.02
 C5E-C4E
 1.52 with sigma of 0.02
 C32E-C22E
 1.52 with sigma of 0.02
 O1E-C5E
 1.42 with sigma of 0.02
 O1E-C22E
 1.42 with sigma of 0.02
 C22E-C32E
 1.48 with sigma of 0.02
 C21E-O1E
 1.42 with sigma of 0.02
 C21E-C31E
 1.48 with sigma of 0.02
 C31E-C4E
 1.52 with sigma of 0.02
 C4E-C32E
 1.52 with sigma of 0.02
 C4E-C5E
 1.5 with sigma of 0.02
 C5E-O1E
 1.48 with sigma of 0.02
3. Rigid bond restraints
 O1E, C5E
 with sigma for 1-2 distances of 0.01 and sigma for 1-3 distances of 0.01
 C22E, O1E
 with sigma for 1-2 distances of 0.01 and sigma for 1-3 distances of 0.01
 C32E, C22E
 with sigma for 1-2 distances of 0.01 and sigma for 1-3 distances of 0.01
 C5E, C4E
 with sigma for 1-2 distances of 0.01 and sigma for 1-3 distances of 0.01
 C32E, C4E
 with sigma for 1-2 distances of 0.01 and sigma for 1-3 distances of 0.01
 C3B, C2B
 with sigma for 1-2 distances of 0.01 and sigma for 1-3 distances of 0.01
 C3B, C4B
 with sigma for 1-2 distances of 0.01 and sigma for 1-3 distances of 0.01
4. Uiso/Uaniso restraints and constraints
O1E \\sim C5E: within 2A with sigma of 0.04 and sigma for terminal atoms of 0.08
O1E \\sim C22E: within 2A with sigma of 0.04 and sigma for terminal atoms of
0.08
C22E \\sim C32E: within 2A with sigma of 0.04 and sigma for terminal atoms of
0.08
C4E \\sim C5E: within 2A with sigma of 0.04 and sigma for terminal atoms of 0.08
C32E \\sim C4E: within 2A with sigma of 0.04 and sigma for terminal atoms of
0.08
C3B \\sim C2B: within 2A with sigma of 0.04 and sigma for terminal atoms of 0.08
C3B \\sim C4B: within 2A with sigma of 0.04 and sigma for terminal atoms of 0.08
5. Others
 Sof(H4EC)=Sof(H4ED)=Sof(C22E)=Sof(H22A)=Sof(H22B)=Sof(C32E)=Sof(H32A)=
 Sof(H32B)=1-FVAR(1)
 Sof(H4EA)=Sof(H4EB)=Sof(C21E)=Sof(H21A)=Sof(H21B)=Sof(C31E)=Sof(H31A)=
 Sof(H31B)=FVAR(1)
6.a Rotating group:
 O1W(H1WA,H1WB)
6.b Secondary CH2 refined with riding coordinates:
 C51(H51A,H51B), C25(H25A,H25B), C5B(H5BA,H5BB), C2T(H2TA,H2TB), C5T(H5TA,
 H5TB), C3T(H3TA,H3TB), C4T(H4TA,H4TB), C4B(H4BA,H4BB), C5C(H5CA,H5CB),
 C3D(H3DA,H3DB), C2B(H2BA,H2BB), C4D(H4DA,H4DB), C4C(H4CA,H4CB), C3A(H3AA,H3AB),
  C4E(H4EC,H4ED), C4E(H4EA,H4EB), C3B(H3BA,H3BB), C2A(H2AA,H2AB), C2C(H2CA,
 H2CB), C4A(H4AA,H4AB), C2D(H2DA,H2DB), C5A(H5AA,H5AB), C22E(H22A,H22B),
 C3C(H3CA,H3CB), C5D(H5DA,H5DB), C32E(H32A,H32B), C5E(H5EA,H5EB), C21E(H21A,
 H21B), C31E(H31A,H31B)
6.c Aromatic/amide H refined with riding coordinates:
 C14(H14), C40(H40), C47(H47), C36(H36), C23(H23), C49(H49), C2(H2), C38(H38),
 C12(H12), C21(H21), C10(H10), C11(H11), C30(H30), C45(H45), C28(H28), C46(H46),
  C37(H37), C32(H32), C4(H4), C6(H6), C20(H20), C19(H19)
6.d Idealised Me refined as rotating group:
 C52(H52A,H52B,H52C), C26(H26A,H26B,H26C)
;
_shelx_res_file
;
TITL gac269_a.res in P2(1)/n
    gac269_sq.res
    created by SHELXL-2016/6 at 14:40:29 on 30-Jan-2018
REM Old TITL GAC269 in P2(1)/n
REM SHELXT solution in P2(1)/n
REM R1 0.132, Rweak 0.006, Alpha 0.061, Orientation as input
REM Formula found by SHELXT: C90 O16 Cu2
CELL 0.71073 18.5382 25.36 19.6509 90 116.08 90
ZERR 2 0.0015 0.0016 0.0016 0 0.01 0
LATT 1
SYMM 0.5-X,0.5+Y,0.5-Z
SFAC C H Cu O
UNIT 304 328 8 68
DFIX 1.52 C4A C3A
DFIX 1.52 C2A C3A
DFIX 1.48 O1A C2A
DFIX 1.48 C5A O1A
DFIX 1.48 C5T C4T
DFIX 1.52 C3C C2C
DFIX 1.52 C32E C4E
DFIX 1.52 C5E C4E
DFIX 1.52 C32E C22E
DFIX 1.42 O1E C5E
DFIX 1.42 O1E C22E
DFIX 1.48 C22E C32E
DFIX 1.42 C21E O1E
DFIX 1.48 C21E C31E
DFIX 1.52 C31E C4E
DFIX 1.52 C4E C32E
DFIX 1.5 C4E C5E
DFIX 1.48 C5E O1E
DELU O1E C5E
DELU C22E O1E
DELU C32E C22E
DELU C5E C4E
DELU C32E C4E
DELU C3B C2B
DELU C3B C4B
SIMU O1E C5E
SIMU O1E C22E
SIMU C22E C32E
SIMU C4E C5E
SIMU C32E C4E
SIMU C3B C2B
SIMU C3B C4B

L.S. 5 0 128
PLAN  5
list 4
BOND $H
ABIN
fmap 2
acta
OMIT 0 2 1
OMIT -4 3 1
OMIT 0 7 1
OMIT 0 1 5
OMIT 1 6 3
OMIT -1 4 2
OMIT 4 2 4
OMIT -5 1 1
OMIT -2 3 1
OMIT 2 8 4
OMIT -2 1 6
OMIT 2 1 1
OMIT 0 14 4
OMIT 1 2 3
OMIT 0 14 1
OMIT 1 1 3
OMIT 4 9 3
OMIT 0 10 1
OMIT 0 18 5
OMIT 4 7 2
OMIT -1 6 5
OMIT -2 9 2
OMIT 0 5 3
OMIT -4 3 4
OMIT -1 9 4
OMIT -3 10 2
OMIT 1 16 3
OMIT -1 4 3
OMIT -4 7 8
OMIT 0 7 6
OMIT -8 6 6
OMIT -2 6 4
OMIT 0 14 3
OMIT -3 4 4
OMIT -2 11 3
OMIT 1 3 5
OMIT 2 2 0
OMIT -5 7 6
OMIT -1 10 1
OMIT 3 11 1
OMIT -2 0 8
OMIT -2 4 5
OMIT -1 5 3
REM <olex2.extras>
REM <HklSrc "%.\\GAC269_sq.hkl">
REM </olex2.extras>

WGHT    0.065700    6.115300
FVAR       0.17163   0.67850
CU1   3    0.864228    0.361935    0.564889    11.00000    0.01634    0.01317 =
         0.02112   -0.00028    0.00723    0.00002
CU2   3    0.263222    0.584206    0.450815    11.00000    0.01549    0.01398 =
         0.02213    0.00013    0.00677   -0.00038
O7    4    0.913799    0.431277    0.572510    11.00000    0.02014    0.01475 =
         0.03072   -0.00079    0.00955   -0.00108
O2    4    0.815495    0.366194    0.453640    11.00000    0.01899    0.02519 =
         0.02309    0.00019    0.00667    0.00052
O8    4    0.799195    0.476360    0.542168    11.00000    0.01813    0.01765 =
         0.03758    0.00392    0.00853   -0.00134
O5    4    0.099100    0.636406    0.324810    11.00000    0.02795    0.02093 =
         0.02303    0.00084    0.01034    0.00495
O6    4    0.808499    0.890987    0.471477    11.00000    0.02603    0.01662 =
         0.03965    0.00361    0.01619   -0.00190
O1T   4    0.959803    0.313122    0.565402    11.00000    0.02183    0.01699 =
         0.03199   -0.00383    0.00902    0.00262
O9    4    0.306763    0.652220    0.439602    11.00000    0.02148    0.01770 =
         0.03334    0.00211    0.01252   -0.00167
O3    4    0.699041    0.402672    0.439724    11.00000    0.01942    0.02775 =
         0.02207   -0.00043    0.00675    0.00022
O4    4    0.199849    0.581357    0.339048    11.00000    0.02333    0.02357 =
         0.02265   -0.00164    0.00645    0.00416
O10   4    0.203798    0.699194    0.440184    11.00000    0.02386    0.01777 =
         0.03660   -0.00149    0.01618   -0.00417
O1    4    0.190156    0.349532   -0.088881    11.00000    0.03348    0.02873 =
         0.03086   -0.00841    0.00077    0.00985
O1W   4    0.363254    0.538759    0.458221    11.00000    0.03357    0.03994 =
         0.04696    0.00287    0.01840    0.01464
AFIX   7
H1WA  2    0.390430    0.556008    0.439166    11.00000   -1.50000
H1WB  2    0.346634    0.511197    0.429496    11.00000   -1.50000
AFIX   0

O1B   4    1.018849    0.579441    0.872100    11.00000    0.07795    0.03542 =
         0.03693   -0.00274    0.03104   -0.00534
C39   1    0.916092    0.523453    0.560724    11.00000    0.02367    0.01697 =
         0.02019   -0.00187    0.00883   -0.00379
C14   1    0.633135    0.392334    0.283046    11.00000    0.02267    0.01915 =
         0.02823    0.00290    0.01038   -0.00141
AFIX  43
H14   2    0.600540    0.404686    0.304498    11.00000   -1.20000
AFIX   0
C13   1    0.713278    0.379642    0.329607    11.00000    0.02186    0.01383 =
         0.02241    0.00158    0.00653   -0.00487
C22   1    0.104493    0.602464    0.215001    11.00000    0.02356    0.01775 =
         0.02260   -0.00112    0.00958   -0.00382
C40   1    0.875023    0.571029    0.547319    11.00000    0.01849    0.01907 =
         0.03007    0.00206    0.00800   -0.00094
AFIX  43
H40   2    0.821182    0.571440    0.537567    11.00000   -1.20000
AFIX   0
C47   1    0.257474    0.788888    0.394231    11.00000    0.02068    0.02259 =
         0.02565   -0.00301    0.00882   -0.00364
AFIX  43
H47   2    0.204192    0.788426    0.386318    11.00000   -1.20000
AFIX   0
C36   1    0.994844    0.617042    0.561203    11.00000    0.02711    0.01982 =
         0.02877   -0.00040    0.01270   -0.00626
AFIX  43
H36   2    1.020858    0.648264    0.560574    11.00000   -1.20000
AFIX   0
C35   1    0.914168    0.618146    0.548423    11.00000    0.02779    0.01473 =
         0.02837    0.00108    0.00984   -0.00243
C44   1    0.418192    0.790685    0.420718    11.00000    0.02413    0.02179 =
         0.02112   -0.00114    0.00901   -0.00547
C48   1    0.304848    0.744063    0.421208    11.00000    0.02204    0.01829 =
         0.01866   -0.00353    0.00703   -0.00551
C23   1    0.145015    0.571315    0.185405    11.00000    0.02209    0.01843 =
         0.02626    0.00150    0.00930   -0.00017
AFIX  43
H23   2    0.191659    0.553982    0.218070    11.00000   -1.20000
AFIX   0
C43   1    0.501952    0.792020    0.436766    11.00000    0.02850    0.01690 =
         0.02507    0.00257    0.00987   -0.00482
C49   1    0.385159    0.744715    0.434353    11.00000    0.02334    0.01815 =
         0.02280   -0.00079    0.00748   -0.00231
AFIX  43
H49   2    0.416607    0.714632    0.452139    11.00000   -1.20000
AFIX   0
C2    1    0.320046    0.375816    0.011971    11.00000    0.02725    0.02375 =
         0.02540    0.00366    0.00971    0.00712
AFIX  43
H2    2    0.347414    0.349312    0.000254    11.00000   -1.20000
AFIX   0
C41   1    0.873329    0.473090    0.558626    11.00000    0.02053    0.01758 =
         0.01867   -0.00016    0.00724   -0.00193
C38   1    0.997226    0.522962    0.575235    11.00000    0.02290    0.01825 =
         0.02211   -0.00246    0.00968    0.00002
AFIX  43
H38   2    1.025219    0.491254    0.585213    11.00000   -1.20000
AFIX   0
C12   1    0.762632    0.362129    0.297417    11.00000    0.01939    0.02113 =
         0.02798    0.00030    0.00623   -0.00450
AFIX  43
H12   2    0.815736    0.353064    0.328289    11.00000   -1.20000
AFIX   0
C3    1    0.361553    0.409841    0.073151    11.00000    0.02505    0.02437 =
         0.02378    0.00701    0.00795    0.00281
C15   1    0.744788    0.383431    0.414200    11.00000    0.01968    0.01538 =
         0.02470   -0.00020    0.00732   -0.00522
C50   1    0.269227    0.694554    0.435369    11.00000    0.02017    0.01973 =
         0.01998   -0.00180    0.00684   -0.00349
C29   1    0.783537    0.753374    0.504269    11.00000    0.02771    0.01766 =
         0.02983    0.00480    0.00867    0.00146
C21   1    0.034518    0.628608    0.165891    11.00000    0.02551    0.01928 =
         0.02644    0.00136    0.01165    0.00378
AFIX  43
H21   2    0.005977    0.648814    0.185278    11.00000   -1.20000
AFIX   0
C5    1    0.237975    0.456508    0.045291    11.00000    0.03131    0.02091 =
         0.02541    0.00325    0.01390    0.00308
C7    1    0.446828    0.402867    0.118420    11.00000    0.03166    0.02490 =
         0.02638    0.00432    0.01128    0.00124
C42   1    0.571705    0.793881    0.451696    11.00000    0.02855    0.01875 =
         0.02837    0.00144    0.01125   -0.00309
C10   1    0.651947    0.369947    0.172347    11.00000    0.02953    0.02405 =
         0.02109    0.00037    0.00778   -0.00685
AFIX  43
H10   2    0.631812    0.366718    0.120049    11.00000   -1.20000
AFIX   0
C27   1    0.769837    0.846667    0.477136    11.00000    0.02723    0.01893 =
         0.02693   -0.00016    0.01343   -0.00433
C17   1    0.158145    0.529427    0.079690    11.00000    0.03134    0.02490 =
         0.02362   -0.00001    0.01233   -0.00124
C18   1    0.116837    0.565418    0.106700    11.00000    0.02786    0.02002 =
         0.02638   -0.00023    0.01329   -0.00086
C11   1    0.732290    0.358212    0.218846    11.00000    0.02726    0.02896 =
         0.02848   -0.00235    0.01313   -0.00585
AFIX  43
H11   2    0.765795    0.347728    0.197377    11.00000   -1.20000
AFIX   0
C16   1    0.194804    0.496780    0.063538    11.00000    0.03174    0.02834 =
         0.02369    0.00043    0.01254    0.00059
C30   1    0.702363    0.751072    0.489721    11.00000    0.02955    0.01793 =
         0.03005    0.00363    0.01104   -0.00475
AFIX  43
H30   2    0.679943    0.719203    0.494109    11.00000   -1.20000
AFIX   0
C45   1    0.369772    0.835486    0.392480    11.00000    0.02947    0.01732 =
         0.02670   -0.00081    0.01088   -0.00705
AFIX  43
H45   2    0.391276    0.866060    0.382665    11.00000   -1.20000
AFIX   0
C1    1    0.237379    0.382007   -0.031212    11.00000    0.03123    0.02394 =
         0.02161    0.00091    0.00717    0.00479
C28   1    0.816809    0.801563    0.498613    11.00000    0.02138    0.02260 =
         0.03147    0.00065    0.00970   -0.00042
AFIX  43
H28   2    0.870852    0.803437    0.509321    11.00000   -1.20000
AFIX   0
C24   1    0.136521    0.607310    0.299583    11.00000    0.02113    0.01710 =
         0.02354   -0.00109    0.00854   -0.00345
C31   1    0.655412    0.796513    0.468717    11.00000    0.02320    0.02241 =
         0.02659    0.00166    0.01078   -0.00165
C46   1    0.289631    0.834253    0.379132    11.00000    0.02965    0.01802 =
         0.02934    0.00216    0.01096    0.00274
AFIX  43
H46   2    0.257534    0.863928    0.360033    11.00000   -1.20000
AFIX   0
C33   1    0.830900    0.706317    0.522292    11.00000    0.02777    0.02046 =
         0.03683    0.00325    0.01009   -0.00231

O1C   4    0.462587    0.316224    0.415814    11.00000    0.07470    0.05308 =
         0.07544    0.01393    0.01165   -0.00278
C37   1    1.035715    0.569704    0.574716    11.00000    0.02203    0.02611 =
         0.02717   -0.00254    0.01185   -0.00399
AFIX  43
H37   2    1.089268    0.569203    0.583497    11.00000   -1.20000
AFIX   0
C9    1    0.601550    0.386589    0.204318    11.00000    0.02524    0.01983 =
         0.02550    0.00452    0.00604   -0.00355
C32   1    0.688903    0.844936    0.462104    11.00000    0.02519    0.01966 =
         0.02612    0.00292    0.01113   -0.00022
AFIX  43
H32   2    0.657624    0.875304    0.447945    11.00000   -1.20000
AFIX   0
C4    1    0.320763    0.449899    0.090299    11.00000    0.03291    0.02563 =
         0.02145    0.00107    0.01042   -0.00211
AFIX  43
H4    2    0.348189    0.472121    0.131292    11.00000   -1.20000
AFIX   0
C6    1    0.197027    0.423008   -0.015653    11.00000    0.02610    0.02774 =
         0.02451    0.00378    0.00812    0.00563
AFIX  43
H6    2    0.142479    0.428026   -0.046121    11.00000   -1.20000
AFIX   0
C8    1    0.517301    0.396410    0.156556    11.00000    0.02948    0.02547 =
         0.02316    0.00414    0.00775   -0.00075
C20   1    0.007628    0.624339    0.087890    11.00000    0.02753    0.02759 =
         0.02551    0.00281    0.00635    0.00452
AFIX  43
H20   2   -0.037976    0.642746    0.055473    11.00000   -1.20000
AFIX   0
C51   1    0.761729    0.937159    0.439290    11.00000    0.03552    0.01671 =
         0.04349    0.00205    0.02251    0.00131
AFIX  23
H51A  2    0.736416    0.949297    0.470399    11.00000   -1.20000
H51B  2    0.720173    0.929753    0.388808    11.00000   -1.20000
AFIX   0
C25   1    0.226048    0.301506   -0.099214    11.00000    0.04100    0.03042 =
         0.03732   -0.00541    0.01060    0.01227
AFIX  23
H25A  2    0.251874    0.282377   -0.051784    11.00000   -1.20000
H25B  2    0.265904    0.309366   -0.117227    11.00000   -1.20000
AFIX   0
C34   1    0.870172    0.666927    0.534546    11.00000    0.02619    0.01962 =
         0.03668    0.00296    0.00936   -0.00402
C19   1    0.047899    0.593008    0.057809    11.00000    0.03275    0.02545 =
         0.02246   -0.00068    0.00962   -0.00113
AFIX  43
H19   2    0.029298    0.590330    0.005604    11.00000   -1.20000
AFIX   0

C5B   1    1.003937    0.607936    0.804544    11.00000    0.05032    0.02795 =
         0.03483   -0.00253    0.01715   -0.00286
AFIX  23
H5BA  2    1.034199    0.640619    0.816776    11.00000   -1.20000
H5BB  2    0.947275    0.616270    0.777062    11.00000   -1.20000
AFIX   0

C52   1    0.818841    0.978358    0.436163    11.00000    0.05292    0.01912 =
         0.05789   -0.00139    0.03742   -0.00346
AFIX 137
H52A  2    0.840159    0.967036    0.402030    11.00000   -1.50000
H52B  2    0.862016    0.983183    0.485841    11.00000   -1.50000
H52C  2    0.790708    1.011086    0.418626    11.00000   -1.50000
AFIX   0

O1D   4    0.785918    0.610134    0.280050    11.00000    0.07737    0.05324 =
         0.11343    0.00401    0.03969    0.01293
O1A   4    0.609422    0.757323    0.170625    11.00000    0.07380    0.14405 =
         0.05462    0.00795    0.03141   -0.02690
C2T   1    0.939801    0.261140    0.532666    11.00000    0.03613    0.02427 =
         0.05237   -0.01225    0.01702   -0.00087
AFIX  23
H2TA  2    0.903013    0.263202    0.479227    11.00000   -1.20000
H2TB  2    0.915176    0.240311    0.558211    11.00000   -1.20000
AFIX   0
C5T   1    1.042158    0.315054    0.620738    11.00000    0.02326    0.03748 =
         0.04663   -0.00727    0.00661    0.00573
AFIX  23
H5TA  2    1.045869    0.322784    0.670518    11.00000   -1.20000
H5TB  2    1.071063    0.342022    0.607718    11.00000   -1.20000
AFIX   0
C3T   1    1.017583    0.237646    0.543624    11.00000    0.04209    0.03273 =
         0.05700   -0.00485    0.02248    0.00691
AFIX  23
H3TA  2    1.031485    0.248003    0.503355    11.00000   -1.20000
H3TB  2    1.016078    0.199468    0.545730    11.00000   -1.20000
AFIX   0
C4T   1    1.076570    0.260740    0.619750    11.00000    0.03984    0.04791 =
         0.05009   -0.00409    0.00737    0.02415
AFIX  23
H4TA  2    1.078795    0.239293    0.661501    11.00000   -1.20000
H4TB  2    1.130088    0.263428    0.622758    11.00000   -1.20000
AFIX   0

C4B   1    1.029749    0.573393    0.757929    11.00000    0.05769    0.04020 =
         0.03638   -0.00259    0.02547   -0.00229
AFIX  23
H4BA  2    1.085672    0.579324    0.769604    11.00000   -1.20000
H4BB  2    0.996921    0.579197    0.704230    11.00000   -1.20000
AFIX   0

C5C   1    0.446089    0.266060    0.380120    11.00000    0.06573    0.05366 =
         0.04804    0.00481    0.00335   -0.00905
AFIX  23
H5CA  2    0.404083    0.248408    0.388208    11.00000   -1.20000
H5CB  2    0.493862    0.244182    0.400825    11.00000   -1.20000
AFIX   0

C3D   1    0.795181    0.517844    0.274481    11.00000    0.06811    0.04792 =
         0.04934   -0.00579    0.00247    0.00721
AFIX  23
H3DA  2    0.745482    0.506798    0.232422    11.00000   -1.20000
H3DB  2    0.834906    0.490139    0.285940    11.00000   -1.20000
AFIX   0

C26   1    0.158066    0.269220   -0.157381    11.00000    0.05715    0.04430 =
         0.05994   -0.02427    0.00299    0.01206
AFIX 137
H26A  2    0.131597    0.289292   -0.203181    11.00000   -1.50000
H26B  2    0.120272    0.260563   -0.137896    11.00000   -1.50000
H26C  2    0.179284    0.237363   -0.167898    11.00000   -1.50000
AFIX   0

C2B   1    1.020639    0.525114    0.856814    11.00000    0.09127    0.03166 =
         0.04718    0.00139    0.01840   -0.01971
AFIX  23
H2BA  2    0.975345    0.507473    0.859133    11.00000   -1.20000
H2BB  2    1.069592    0.509445    0.894644    11.00000   -1.20000
AFIX   0

C4D   1    0.782214    0.531584    0.342974    11.00000    0.06199    0.06537 =
         0.07507    0.00746    0.03193    0.01871
AFIX  23
H4DA  2    0.739695    0.510296    0.344932    11.00000   -1.20000
H4DB  2    0.830999    0.526361    0.389330    11.00000   -1.20000
AFIX   0

C4C   1    0.419394    0.275275    0.296514    11.00000    0.05921    0.06738 =
         0.05081    0.02026    0.00288   -0.01274
AFIX  23
H4CA  2    0.361506    0.278949    0.269639    11.00000   -1.20000
H4CB  2    0.436443    0.246717    0.274097    11.00000   -1.20000
AFIX   0

C3A   1    0.663131    0.726703    0.294699    11.00000    0.07241    0.07015 =
         0.06336    0.01147    0.03124    0.01149
AFIX  23
H3AA  2    0.673574    0.691989    0.317773    11.00000   -1.20000
H3AB  2    0.699720    0.751692    0.330738    11.00000   -1.20000
AFIX   0

C4E   1    0.513109    0.625383    0.096583    11.00000    0.05439    0.06006 =
         0.07507    0.00089    0.00400    0.00507
PART 2
AFIX  23
H4EC  2    0.477411    0.651042    0.061160   -21.00000   -1.20000
H4ED  2    0.564795    0.642144    0.125136   -21.00000   -1.20000
AFIX  23
PART 0
PART 1
H4EA  2    0.538067    0.659897    0.109257    21.00000   -1.20000
H4EB  2    0.473331    0.624742    0.044032    21.00000   -1.20000
AFIX   0

PART 0
C3B   1    1.017063    0.518260    0.781371    11.00000    0.12099    0.02875 =
         0.09498   -0.00729    0.07719   -0.00192
AFIX  23
H3BA  2    0.965305    0.504298    0.746173    11.00000   -1.20000
H3BB  2    1.058877    0.494476    0.783248    11.00000   -1.20000
AFIX   0

C2A   1    0.673578    0.726312    0.224881    11.00000    0.07794    0.06421 =
         0.08226   -0.02568    0.05007   -0.01619
AFIX  23
H2AA  2    0.725123    0.741388    0.233993    11.00000   -1.20000
H2AB  2    0.671101    0.690522    0.206569    11.00000   -1.20000
AFIX   0

C2C   1    0.502659    0.342899    0.379319    11.00000    0.10183    0.09358 =
         0.07922    0.01175    0.01859   -0.05617
AFIX  23
H2CA  2    0.558955    0.333085    0.401807    11.00000   -1.20000
H2CB  2    0.498926    0.380737    0.384252    11.00000   -1.20000
AFIX   0

C4A   1    0.580103    0.742111    0.272715    11.00000    0.07630    0.09056 =
         0.05069    0.00824    0.03365    0.01951
AFIX  23
H4AA  2    0.577163    0.767119    0.308762    11.00000   -1.20000
H4AB  2    0.547833    0.711523    0.270765    11.00000   -1.20000
AFIX   0

C2D   1    0.825544    0.570306    0.257020    11.00000    0.09349    0.05426 =
         0.07923    0.00266    0.04396    0.01073
AFIX  23
H2DA  2    0.883404    0.573161    0.285425    11.00000   -1.20000
H2DB  2    0.811270    0.573231    0.203392    11.00000   -1.20000
AFIX   0

C5A   1    0.551036    0.766557    0.196732    11.00000    0.08726    0.05817 =
         0.05647    0.01186    0.03735    0.01360
AFIX  23
H5AA  2    0.500168    0.751065    0.162252    11.00000   -1.20000
H5AB  2    0.543320    0.804150    0.199871    11.00000   -1.20000
AFIX   0

O1E   4    0.479793    0.550445    0.154396    11.00000    0.12996    0.15281 =
         0.17159   -0.00075    0.09963   -0.00143
PART 2
C22E  1    0.521322    0.541334    0.110617   -21.00000    0.12443    0.05333 =
         0.09367   -0.00054    0.06922   -0.00765
AFIX  23
H22A  2    0.500001    0.508991    0.082590   -21.00000   -1.20000
H22B  2    0.576784    0.534280    0.145673   -21.00000   -1.20000
AFIX   0

PART 0
C3C   1    0.461697    0.326827    0.295598    11.00000    0.09181    0.16403 =
         0.09930    0.07718    0.02192   -0.02733
AFIX  23
H3CA  2    0.423402    0.353354    0.265165    11.00000   -1.20000
H3CB  2    0.500860    0.321372    0.275982    11.00000   -1.20000
AFIX   0

C5D   1    0.759184    0.588376    0.331913    11.00000    0.08697    0.07393 =
         0.09182   -0.00188    0.04612    0.00637
AFIX  23
H5DA  2    0.701366    0.591923    0.311878    11.00000   -1.20000
H5DB  2    0.783950    0.606899    0.379930    11.00000   -1.20000
AFIX   0

PART 2
C32E  1    0.522605    0.581043    0.055348   -21.00000    0.05503    0.05599 =
         0.09400    0.01929    0.04171    0.00088
AFIX  23
H32A  2    0.573150    0.581642    0.051780   -21.00000   -1.20000
H32B  2    0.478123    0.577112    0.005432   -21.00000   -1.20000
AFIX   0
PART 0
C5E   1    0.479191    0.608078    0.149996    11.00000    0.16296    0.15744 =
         0.07103    0.01064    0.04631    0.10469
AFIX  23
H5EA  2    0.511102    0.622739    0.199938    11.00000   -1.20000
H5EB  2    0.424629    0.620967    0.132111    11.00000   -1.20000
AFIX   0
PART 1
C21E  1    0.544124    0.533200    0.139803    21.00000    0.06377    0.05994 =
         0.12131    0.01827    0.05802    0.01009
AFIX  23
H21A  2    0.525562    0.506774    0.100071    21.00000   -1.20000
H21B  2    0.585971    0.517730    0.185100    21.00000   -1.20000
AFIX   0
C31E  1    0.575907    0.580040    0.115751    21.00000    0.06520    0.04110 =
         0.11843    0.01116    0.04012    0.00339
AFIX  23
H31A  2    0.584176    0.571448    0.071593    21.00000   -1.20000
H31B  2    0.626918    0.590875    0.156217    21.00000   -1.20000
AFIX   0
HKLF 4




REM  gac269_a.res in P2(1)/n
REM R1 =  0.0468 for   13755 Fo > 4sig(Fo)  and  0.0635 for all   17542 data
REM    878 parameters refined using     67 restraints

END

WGHT      0.0657      6.1160

REM Highest difference peak  0.932,  deepest hole -0.537,  1-sigma level  0.068
Q1    1   0.4782  0.3635  0.3204  11.00000  0.05    0.93
Q2    1   1.0033  0.2257  0.5867  11.00000  0.05    0.67
Q3    1   0.8218  0.3594  0.5806  11.00000  0.05    0.61
Q4    1   0.9073  0.3583  0.5516  11.00000  0.05    0.55
Q5    1   0.3007  0.5857  0.4318  11.00000  0.05    0.53
;
_shelx_res_checksum              25480
_shelx_fab_file
;
    2    0    0    -64.53      0.00
    4    0    0     35.61      0.00
    6    0    0      9.25      0.00
    8    0    0     10.13      0.00
   10    0    0     19.81      0.00
   12    0    0     -1.63      0.00
   14    0    0      5.52      0.00
   16    0    0      0.44      0.00
   18    0    0      1.93      0.00
   20    0    0     -1.45      0.00
    2    1    0    -48.18      0.00
    3    1    0    -10.44      0.00
    4    1    0     26.67      0.00
    5    1    0     25.85      0.00
    6    1    0      1.96      0.00
    7    1    0     17.31      0.00
    8    1    0     24.22      0.00
    9    1    0     -7.46      0.00
   10    1    0    -22.26      0.00
   11    1    0     17.60      0.00
   12    1    0      1.23      0.00
   13    1    0      0.95      0.00
   14    1    0      1.03      0.00
   15    1    0      6.36      0.00
   16    1    0      6.39      0.00
   17    1    0     -0.87      0.00
   18    1    0     -2.61      0.00
   19    1    0     -1.00      0.00
   20    1    0     -1.19      0.00
   21    1    0      0.12      0.00
    1    2    0     54.45      0.00
    2    2    0     50.35      0.00
    3    2    0    -12.58      0.00
    4    2    0     29.52      0.00
    5    2    0     10.78      0.00
    6    2    0     30.24      0.00
    7    2    0     10.18      0.00
    8    2    0    -20.12      0.00
    9    2    0     -5.47      0.00
   10    2    0      3.49      0.00
   11    2    0     -1.95      0.00
   12    2    0      9.58      0.00
   13    2    0     -5.64      0.00
   14    2    0      9.86      0.00
   15    2    0     10.15      0.00
   16    2    0     -2.26      0.00
   17    2    0     -0.43      0.00
   18    2    0     -1.20      0.00
   19    2    0     -1.27      0.00
   20    2    0      1.52      0.00
   21    2    0     -0.39      0.00
    1    3    0     -8.30      0.00
    2    3    0     95.55      0.00
    3    3    0     43.20      0.00
    4    3    0    -13.84      0.00
    5    3    0      7.79      0.00
    6    3    0    -13.00      0.00
    7    3    0      4.66      0.00
    8    3    0     -6.58      0.00
    9    3    0     -9.62      0.00
   10    3    0      1.72      0.00
   11    3    0      0.21      0.00
   12    3    0      3.11      0.00
   13    3    0      8.86      0.00
   14    3    0     -3.90      0.00
   15    3    0      7.50      0.00
   16    3    0      6.05      0.00
   17    3    0     -4.88      0.00
   18    3    0      0.24      0.00
   19    3    0      0.34      0.00
   20    3    0     -0.60      0.00
    0    4    0    -25.27      0.00
    1    4    0    166.15      0.00
    2    4    0     -0.82      0.00
    3    4    0    -22.41      0.00
    4    4    0     -4.63      0.00
    5    4    0     -4.93      0.00
    6    4    0    -14.92      0.00
    7    4    0    -17.96      0.00
    8    4    0     12.07      0.00
    9    4    0     -9.98      0.00
   10    4    0      4.20      0.00
   11    4    0      8.19      0.00
   12    4    0    -10.78      0.00
   13    4    0      0.95      0.00
   14    4    0      8.91      0.00
   15    4    0      0.58      0.00
   16    4    0     -1.19      0.00
   17    4    0     -0.12      0.00
   18    4    0      1.46      0.00
   19    4    0      0.39      0.00
   20    4    0     -0.86      0.00
    1    5    0    -22.26      0.00
    2    5    0     31.19      0.00
    3    5    0    -11.84      0.00
    4    5    0    -19.52      0.00
    5    5    0    -17.13      0.00
    6    5    0    -11.24      0.00
    7    5    0     -8.26      0.00
    8    5    0      7.26      0.00
    9    5    0     22.31      0.00
   10    5    0    -21.19      0.00
   11    5    0     -9.83      0.00
   12    5    0      7.58      0.00
   13    5    0     -1.85      0.00
   14    5    0      2.03      0.00
   15    5    0     -4.30      0.00
   16    5    0      1.29      0.00
   17    5    0      3.42      0.00
   18    5    0      0.66      0.00
   19    5    0      0.38      0.00
   20    5    0     -1.61      0.00
    0    6    0    -76.00      0.00
    1    6    0     11.13      0.00
    2    6    0     13.50      0.00
    3    6    0    -16.11      0.00
    4    6    0    -10.75      0.00
    5    6    0    -19.39      0.00
    6    6    0     -4.98      0.00
    7    6    0     18.53      0.00
    8    6    0      2.31      0.00
    9    6    0    -14.68      0.00
   10    6    0     -0.16      0.00
   11    6    0     -2.41      0.00
   12    6    0      4.38      0.00
   13    6    0     -4.41      0.00
   14    6    0    -14.35      0.00
   15    6    0      9.40      0.00
   16    6    0      3.10      0.00
   17    6    0     -0.27      0.00
   18    6    0     -2.47      0.00
   19    6    0     -0.04      0.00
   20    6    0      2.10      0.00
    1    7    0    -25.61      0.00
    2    7    0     -2.77      0.00
    3    7    0      4.04      0.00
    4    7    0    -15.16      0.00
    5    7    0     15.27      0.00
    6    7    0     -0.37      0.00
    7    7    0     -6.53      0.00
    8    7    0      1.83      0.00
    9    7    0     -2.18      0.00
   10    7    0      2.98      0.00
   11    7    0      0.32      0.00
   12    7    0    -10.20      0.00
   13    7    0     -2.97      0.00
   14    7    0     -0.47      0.00
   15    7    0     -5.02      0.00
   16    7    0      8.76      0.00
   17    7    0     -1.36      0.00
   18    7    0     -0.21      0.00
   19    7    0     -1.24      0.00
   20    7    0      0.79      0.00
    0    8    0    -43.79      0.00
    1    8    0    -11.84      0.00
    2    8    0     21.89      0.00
    3    8    0      8.98      0.00
    4    8    0     -5.68      0.00
    5    8    0      1.36      0.00
    6    8    0     18.19      0.00
    7    8    0     -9.93      0.00
    8    8    0     -6.16      0.00
    9    8    0      5.09      0.00
   10    8    0     -2.49      0.00
   11    8    0      4.67      0.00
   12    8    0     -5.07      0.00
   13    8    0     -6.97      0.00
   14    8    0     -0.76      0.00
   15    8    0      4.45      0.00
   16    8    0      0.62      0.00
   17    8    0      1.23      0.00
   18    8    0     -2.75      0.00
   19    8    0      0.64      0.00
   20    8    0     -2.39      0.00
    1    9    0     -6.83      0.00
    2    9    0     -5.48      0.00
    3    9    0     12.33      0.00
    4    9    0     27.49      0.00
    5    9    0      1.04      0.00
    6    9    0     -7.70      0.00
    7    9    0      1.86      0.00
    8    9    0     -4.95      0.00
    9    9    0      4.00      0.00
   10    9    0      5.62      0.00
   11    9    0     -3.83      0.00
   12    9    0      1.35      0.00
   13    9    0     -5.34      0.00
   14    9    0      4.12      0.00
   15    9    0      0.56      0.00
   16    9    0     -1.83      0.00
   17    9    0     -0.78      0.00
   18    9    0     -0.12      0.00
   19    9    0     -0.77      0.00
   20    9    0      0.69      0.00
    0   10    0    -35.05      0.00
    1   10    0     10.96      0.00
    2   10    0     18.92      0.00
    3   10    0      8.47      0.00
    4   10    0      0.68      0.00
    5   10    0     15.44      0.00
    6   10    0     -9.24      0.00
    7   10    0     -7.77      0.00
    8   10    0     11.40      0.00
    9   10    0      1.05      0.00
   10   10    0     -3.66      0.00
   11   10    0      0.76      0.00
   12   10    0      7.80      0.00
   13   10    0      6.34      0.00
   14   10    0    -13.38      0.00
   15   10    0     -2.35      0.00
   16   10    0      4.41      0.00
   17   10    0      2.28      0.00
   18   10    0     -0.72      0.00
   19   10    0     -0.51      0.00
   20   10    0      2.41      0.00
    1   11    0    -10.42      0.00
    2   11    0     20.13      0.00
    3   11    0     -1.26      0.00
    4   11    0     -8.22      0.00
    5   11    0     -1.02      0.00
    6   11    0     15.68      0.00
    7   11    0     -4.63      0.00
    8   11    0     -4.81      0.00
    9   11    0     10.71      0.00
   10   11    0      1.76      0.00
   11   11    0      2.68      0.00
   12   11    0      0.68      0.00
   13   11    0     -1.88      0.00
   14   11    0     -2.63      0.00
   15   11    0     -4.88      0.00
   16   11    0      2.01      0.00
   17   11    0      3.99      0.00
   18   11    0      2.82      0.00
   19   11    0      1.96      0.00
    0   12    0    -12.77      0.00
    1   12    0    -21.07      0.00
    2   12    0    -14.28      0.00
    3   12    0     15.78      0.00
    4   12    0     -1.14      0.00
    5   12    0    -11.04      0.00
    6   12    0      6.28      0.00
    7   12    0     19.29      0.00
    8   12    0      0.81      0.00
    9   12    0     -6.46      0.00
   10   12    0      4.62      0.00
   11   12    0     -1.15      0.00
   12   12    0     -2.78      0.00
   13   12    0     -0.67      0.00
   14   12    0      0.41      0.00
   15   12    0     -5.07      0.00
   16   12    0      3.00      0.00
   17   12    0      4.53      0.00
   18   12    0      3.52      0.00
   19   12    0      1.13      0.00
    1   13    0    -19.52      0.00
    2   13    0    -13.39      0.00
    3   13    0     -2.82      0.00
    4   13    0      4.72      0.00
    5   13    0     13.26      0.00
    6   13    0      4.51      0.00
    7   13    0      1.97      0.00
    8   13    0      2.35      0.00
    9   13    0     -1.99      0.00
   10   13    0     -7.36      0.00
   11   13    0     -1.25      0.00
   12   13    0      1.96      0.00
   13   13    0      0.06      0.00
   14   13    0     -2.57      0.00
   15   13    0      3.72      0.00
   16   13    0     -1.84      0.00
   17   13    0      3.34      0.00
   18   13    0      0.62      0.00
   19   13    0      0.25      0.00
    0   14    0    -35.77      0.00
    1   14    0    -13.80      0.00
    2   14    0      8.27      0.00
    3   14    0      2.77      0.00
    4   14    0      3.81      0.00
    5   14    0      4.10      0.00
    6   14    0     10.57      0.00
    7   14    0     -6.33      0.00
    8   14    0     -6.73      0.00
    9   14    0     -0.08      0.00
   10   14    0     -1.99      0.00
   11   14    0     -4.19      0.00
   12   14    0      1.89      0.00
   13   14    0      5.32      0.00
   14   14    0      2.64      0.00
   15   14    0     -8.11      0.00
   16   14    0      0.97      0.00
   17   14    0      1.94      0.00
   18   14    0      1.96      0.00
    1   15    0     -4.36      0.00
    2   15    0      2.29      0.00
    3   15    0     13.37      0.00
    4   15    0     -3.91      0.00
    5   15    0     -4.93      0.00
    6   15    0      3.37      0.00
    7   15    0      0.78      0.00
    8   15    0    -14.48      0.00
    9   15    0     -0.67      0.00
   10   15    0     11.17      0.00
   11   15    0     -1.77      0.00
   12   15    0     -3.53      0.00
   13   15    0      3.38      0.00
   14   15    0     -1.49      0.00
   15   15    0      1.32      0.00
   16   15    0     -3.12      0.00
   17   15    0     -0.57      0.00
   18   15    0      0.06      0.00
    0   16    0     30.45      0.00
    1   16    0    -10.78      0.00
    2   16    0    -10.26      0.00
    3   16    0      0.06      0.00
    4   16    0      9.57      0.00
    5   16    0     -4.36      0.00
    6   16    0    -17.74      0.00
    7   16    0      0.29      0.00
    8   16    0     11.19      0.00
    9   16    0     -1.14      0.00
   10   16    0     -2.20      0.00
   11   16    0      5.24      0.00
   12   16    0     -4.09      0.00
   13   16    0     -3.88      0.00
   14   16    0      6.06      0.00
   15   16    0     -2.66      0.00
   16   16    0     -3.56      0.00
   17   16    0     -0.97      0.00
   18   16    0      0.63      0.00
    1   17    0     10.14      0.00
    2   17    0    -18.59      0.00
    3   17    0     -1.90      0.00
    4   17    0     -0.56      0.00
    5   17    0     -9.75      0.00
    6   17    0      3.15      0.00
    7   17    0      0.76      0.00
    8   17    0      3.16      0.00
    9   17    0      1.13      0.00
   10   17    0     -2.15      0.00
   11   17    0     -3.03      0.00
   12   17    0     -0.64      0.00
   13   17    0      0.37      0.00
   14   17    0     -1.66      0.00
   15   17    0      1.54      0.00
   16   17    0     -0.96      0.00
   17   17    0     -1.45      0.00
    0   18    0      7.67      0.00
    1   18    0    -17.53      0.00
    2   18    0     -4.44      0.00
    3   18    0     -5.46      0.00
    4   18    0     -1.53      0.00
    5   18    0      0.77      0.00
    6   18    0     -1.61      0.00
    7   18    0      6.14      0.00
    8   18    0     -6.43      0.00
    9   18    0     -2.24      0.00
   10   18    0     -3.07      0.00
   11   18    0     -2.62      0.00
   12   18    0      1.05      0.00
   13   18    0     -0.50      0.00
   14   18    0      2.92      0.00
   15   18    0     -0.50      0.00
   16   18    0     -1.65      0.00
   17   18    0     -1.16      0.00
    1   19    0     -2.85      0.00
    2   19    0     -4.18      0.00
    3   19    0     -3.33      0.00
    4   19    0      0.53      0.00
    5   19    0     -3.35      0.00
    6   19    0     -1.55      0.00
    7   19    0      1.38      0.00
    8   19    0     -3.11      0.00
    9   19    0    -15.96      0.00
   10   19    0      1.57      0.00
   11   19    0      5.77      0.00
   12   19    0     -1.75      0.00
   13   19    0     -0.19      0.00
   14   19    0     -0.59      0.00
   15   19    0      1.16      0.00
   16   19    0     -0.40      0.00
    0   20    0     10.36      0.00
    1   20    0     14.19      0.00
    2   20    0    -12.61      0.00
    3   20    0     -7.26      0.00
    4   20    0     -4.15      0.00
    5   20    0      5.52      0.00
    6   20    0     -3.01      0.00
    7   20    0    -14.01      0.00
    8   20    0     -3.68      0.00
    9   20    0      3.05      0.00
   10   20    0     -3.58      0.00
   11   20    0      0.40      0.00
   12   20    0      0.61      0.00
   13   20    0     -2.80      0.00
   14   20    0      0.86      0.00
   15   20    0      1.37      0.00
   16   20    0      0.55      0.00
    1   21    0      3.33      0.00
    2   21    0     -0.73      0.00
    3   21    0    -13.36      0.00
    4   21    0      5.44      0.00
    5   21    0     -6.48      0.00
    6   21    0    -10.23      0.00
    7   21    0      0.39      0.00
    8   21    0     -0.14      0.00
    9   21    0     -0.74      0.00
   10   21    0     -2.96      0.00
   11   21    0     -1.27      0.00
   12   21    0     -0.74      0.00
   13   21    0     -0.98      0.00
   14   21    0     -1.21      0.00
   15   21    0      0.30      0.00
    0   22    0      1.82      0.00
    1   22    0      1.84      0.00
    2   22    0     -1.57      0.00
    3   22    0     -3.89      0.00
    4   22    0     -9.45      0.00
    5   22    0     -0.16      0.00
    6   22    0     -2.96      0.00
    7   22    0     -0.73      0.00
    8   22    0      2.79      0.00
    9   22    0     -2.61      0.00
   10   22    0     -2.79      0.00
   11   22    0     -3.62      0.00
   12   22    0      1.29      0.00
   13   22    0     -2.25      0.00
   14   22    0     -2.29      0.00
   15   22    0      1.32      0.00
    1   23    0     -2.43      0.00
    2   23    0      1.27      0.00
    3   23    0      0.87      0.00
    4   23    0     -5.28      0.00
    5   23    0     -3.24      0.00
    6   23    0     -1.26      0.00
    7   23    0      1.02      0.00
    8   23    0      4.14      0.00
    9   23    0     -1.58      0.00
   10   23    0     -6.37      0.00
   11   23    0      0.07      0.00
   12   23    0     -2.84      0.00
   13   23    0      0.22      0.00
   14   23    0      1.27      0.00
    0   24    0     -7.04      0.00
    1   24    0      8.41      0.00
    2   24    0      4.50      0.00
    3   24    0     -2.34      0.00
    4   24    0     -2.96      0.00
    5   24    0     -4.12      0.00
    6   24    0      5.72      0.00
    7   24    0      1.27      0.00
    8   24    0     -2.83      0.00
    9   24    0      0.36      0.00
   10   24    0      0.81      0.00
   11   24    0     -4.42      0.00
   12   24    0      1.75      0.00
   13   24    0      0.67      0.00
    1   25    0      1.63      0.00
    2   25    0      4.29      0.00
    3   25    0     -2.00      0.00
    4   25    0      0.90      0.00
    5   25    0      6.52      0.00
    6   25    0     -4.15      0.00
    7   25    0     -1.82      0.00
    8   25    0      3.84      0.00
    9   25    0      3.36      0.00
   10   25    0     -2.88      0.00
   11   25    0      1.03      0.00
   12   25    0     -1.17      0.00
   13   25    0      0.70      0.00
    0   26    0     -1.25      0.00
    1   26    0     -0.56      0.00
    2   26    0      5.09      0.00
    3   26    0      4.70      0.00
    4   26    0      0.71      0.00
    5   26    0     -0.02      0.00
    6   26    0      0.29      0.00
    7   26    0     -0.46      0.00
    8   26    0      2.92      0.00
    9   26    0      2.03      0.00
   10   26    0      2.18      0.00
   11   26    0     -4.59      0.00
   12   26    0      1.64      0.00
    1   27    0      0.97      0.00
    2   27    0     -0.64      0.00
    3   27    0      4.56      0.00
    4   27    0      2.57      0.00
    5   27    0      0.49      0.00
    6   27    0      1.64      0.00
    7   27    0     -1.23      0.00
    8   27    0     -0.69      0.00
    9   27    0      3.21      0.00
   10   27    0     -0.93      0.00
   11   27    0      3.37      0.00
    0   28    0     -1.28      0.00
    1   28    0     -2.82      0.00
    2   28    0      1.82      0.00
    3   28    0      2.46      0.00
    4   28    0      3.82      0.00
    5   28    0     -0.06      0.00
    6   28    0     -1.89      0.00
    7   28    0      0.23      0.00
    8   28    0     -0.73      0.00
    9   28    0     -0.55      0.00
   10   28    0      5.67      0.00
    1   29    0     -0.40      0.00
    2   29    0      0.59      0.00
    3   29    0      0.58      0.00
    4   29    0     -1.02      0.00
    5   29    0      2.58      0.00
    6   29    0     -0.60      0.00
    7   29    0     -3.04      0.00
    8   29    0      1.54      0.00
    9   29    0      3.61      0.00
    0   30    0     -1.18      0.00
    1   30    0     -0.82      0.00
    2   30    0     -0.34      0.00
    3   30    0      0.68      0.00
    4   30    0     -0.17      0.00
    5   30    0     -0.53      0.00
    6   30    0      2.07      0.00
    7   30    0     -0.55      0.00
    1   31    0     -0.16      0.00
    2   31    0      1.01      0.00
    3   31    0     -1.35      0.00
    4   31    0     -1.01      0.00
    5   31    0      0.95      0.00
    0   32    0      1.90      0.00
    1   32    0      1.77      0.00
  -21    0    1     -2.04      0.00
  -19    0    1      2.08      0.00
  -17    0    1     -6.26      0.00
  -15    0    1      2.30      0.00
  -13    0    1      1.18      0.00
  -11    0    1     26.56      0.00
   -9    0    1     -0.30      0.00
   -7    0    1     12.59      0.00
   -5    0    1     11.62      0.00
   -3    0    1    -52.64      0.00
    3    0    1     96.37      0.00
    5    0    1     30.94      0.00
    7    0    1     14.85      0.00
    9    0    1     -5.79      0.00
   11    0    1     -2.03      0.00
   13    0    1      9.38      0.00
   15    0    1      7.62      0.00
   17    0    1      0.08      0.00
   19    0    1      0.04      0.00
  -21    1    1      1.77      0.00
  -20    1    1     -2.23      0.00
  -19    1    1      0.18      0.00
  -18    1    1     -0.78      0.00
  -17    1    1     -5.56      0.00
  -16    1    1     -0.59      0.00
  -15    1    1      2.64      0.00
  -14    1    1      2.78      0.00
  -13    1    1      1.92      0.00
  -12    1    1     12.15      0.00
  -11    1    1      6.28      0.00
  -10    1    1     -0.96      0.00
   -9    1    1    -30.12      0.00
   -8    1    1     22.68      0.00
   -7    1    1     15.16      0.00
   -6    1    1     16.24      0.00
   -5    1    1     -2.75      0.00
   -4    1    1    -18.60      0.00
   -3    1    1     47.88      0.00
   -2    1    1     76.06      0.00
    1    1    1    -19.43      0.00
    2    1    1     -5.13      0.00
    3    1    1     29.88      0.00
    4    1    1     57.71      0.00
    5    1    1      2.94      0.00
    6    1    1     20.02      0.00
    7    1    1     12.69      0.00
    8    1    1    -19.47      0.00
    9    1    1    -27.29      0.00
   10    1    1     14.96      0.00
   11    1    1      7.87      0.00
   12    1    1     -2.87      0.00
   13    1    1      0.55      0.00
   14    1    1     13.07      0.00
   15    1    1      3.88      0.00
   16    1    1     -0.46      0.00
   17    1    1     -3.61      0.00
   18    1    1      0.38      0.00
   19    1    1     -0.54      0.00
   20    1    1      1.46      0.00
  -21    2    1     -0.24      0.00
  -20    2    1      0.56      0.00
  -19    2    1     -2.90      0.00
  -18    2    1     -0.58      0.00
  -17    2    1     -2.06      0.00
  -16    2    1     -7.28      0.00
  -15    2    1      8.20      0.00
  -14    2    1      7.60      0.00
  -13    2    1      3.13      0.00
  -12    2    1     -8.12      0.00
  -11    2    1     -2.58      0.00
  -10    2    1     -1.39      0.00
   -9    2    1      0.97      0.00
   -8    2    1     -9.08      0.00
   -7    2    1     43.22      0.00
   -6    2    1      6.11      0.00
   -5    2    1     11.89      0.00
   -4    2    1     28.96      0.00
   -3    2    1    -30.68      0.00
   -2    2    1   -130.45      0.00
   -1    2    1     46.55      0.00
    1    2    1     99.04      0.00
    2    2    1    -13.76      0.00
    3    2    1     23.49      0.00
    4    2    1      4.28      0.00
    5    2    1     18.73      0.00
    6    2    1     10.13      0.00
    7    2    1    -27.26      0.00
    8    2    1     -5.02      0.00
    9    2    1      8.04      0.00
   10    2    1     -9.96      0.00
   11    2    1      7.86      0.00
   12    2    1     -2.39      0.00
   13    2    1      5.23      0.00
   14    2    1      7.28      0.00
   15    2    1      0.74      0.00
   16    2    1     -2.10      0.00
   17    2    1      1.49      0.00
   18    2    1     -1.82      0.00
   19    2    1      2.71      0.00
   20    2    1      0.07      0.00
  -21    3    1      0.10      0.00
  -20    3    1     -1.42      0.00
  -19    3    1     -0.24      0.00
  -18    3    1     -2.81      0.00
  -17    3    1     -2.63      0.00
  -16    3    1      6.83      0.00
  -15    3    1     -0.32      0.00
  -14    3    1      3.27      0.00
  -13    3    1     -9.12      0.00
  -12    3    1     -4.87      0.00
  -11    3    1     -5.06      0.00
  -10    3    1      0.04      0.00
   -9    3    1     12.78      0.00
   -8    3    1     17.89      0.00
   -7    3    1      3.67      0.00
   -6    3    1     13.24      0.00
   -5    3    1      3.96      0.00
   -3    3    1    -75.68      0.00
   -2    3    1    -48.71      0.00
   -1    3    1    -83.32      0.00
    0    3    1     35.04      0.00
    1    3    1     34.91      0.00
    2    3    1     39.41      0.00
    3    3    1    -57.08      0.00
    4    3    1     -5.66      0.00
    5    3    1    -10.71      0.00
    6    3    1     -7.61      0.00
    7    3    1     16.06      0.00
    8    3    1    -12.61      0.00
    9    3    1     -4.84      0.00
   10    3    1      5.83      0.00
   11    3    1     -5.50      0.00
   12    3    1      5.87      0.00
   13    3    1     -7.53      0.00
   14    3    1      4.38      0.00
   15    3    1      7.69      0.00
   16    3    1     -4.02      0.00
   17    3    1     -1.34      0.00
   18    3    1      3.06      0.00
   19    3    1     -2.17      0.00
   20    3    1      0.80      0.00
  -21    4    1     -0.28      0.00
  -20    4    1     -0.20      0.00
  -19    4    1      0.89      0.00
  -18    4    1      2.59      0.00
  -17    4    1     -1.20      0.00
  -16    4    1     -5.49      0.00
  -15    4    1      3.55      0.00
  -14    4    1     -7.74      0.00
  -13    4    1     -7.74      0.00
  -12    4    1     -9.35      0.00
  -11    4    1     11.87      0.00
  -10    4    1     13.94      0.00
   -9    4    1      4.36      0.00
   -8    4    1      8.91      0.00
   -7    4    1    -14.21      0.00
   -6    4    1      2.19      0.00
   -5    4    1      6.48      0.00
   -4    4    1      8.50      0.00
   -3    4    1     14.31      0.00
   -2    4    1   -156.17      0.00
   -1    4    1    -21.53      0.00
    0    4    1    100.77      0.00
    1    4    1    -28.06      0.00
    2    4    1    -79.36      0.00
    3    4    1     -9.47      0.00
    4    4    1    -13.11      0.00
    5    4    1    -13.98      0.00
    6    4    1     -8.18      0.00
    7    4    1     10.57      0.00
    8    4    1      7.55      0.00
    9    4    1     -4.70      0.00
   10    4    1     -0.87      0.00
   11    4    1     -9.82      0.00
   12    4    1     -7.48      0.00
   13    4    1     10.15      0.00
   14    4    1     -4.93      0.00
   15    4    1     -2.58      0.00
   16    4    1      3.56      0.00
   17    4    1      1.51      0.00
   18    4    1     -1.18      0.00
   19    4    1     -1.05      0.00
   20    4    1      0.32      0.00
  -21    5    1      1.51      0.00
  -20    5    1      0.29      0.00
  -19    5    1     -2.60      0.00
  -18    5    1      1.21      0.00
  -17    5    1      0.32      0.00
  -16    5    1     -6.79      0.00
  -15    5    1    -10.55      0.00
  -14    5    1      0.88      0.00
  -13    5    1     -2.57      0.00
  -12    5    1     -0.51      0.00
  -11    5    1     10.46      0.00
  -10    5    1     15.19      0.00
   -9    5    1    -13.33      0.00
   -8    5    1    -23.33      0.00
   -7    5    1     19.38      0.00
   -6    5    1     -6.09      0.00
   -5    5    1     18.22      0.00
   -4    5    1      1.16      0.00
   -3    5    1    -28.66      0.00
   -2    5    1     27.93      0.00
   -1    5    1    -48.24      0.00
    0    5    1    -72.40      0.00
    1    5    1     11.33      0.00
    2    5    1    -19.68      0.00
    3    5    1    -30.85      0.00
    4    5    1    -21.18      0.00
    5    5    1     -4.20      0.00
    6    5    1      1.58      0.00
    7    5    1      9.12      0.00
    8    5    1     18.03      0.00
    9    5    1    -20.95      0.00
   10    5    1    -16.74      0.00
   11    5    1     10.75      0.00
   12    5    1     -1.36      0.00
   13    5    1    -11.03      0.00
   14    5    1     -1.24      0.00
   15    5    1      2.12      0.00
   16    5    1      3.21      0.00
   17    5    1     -1.22      0.00
   18    5    1     -0.42      0.00
   19    5    1     -0.82      0.00
   20    5    1     -0.54      0.00
  -21    6    1      0.77      0.00
  -20    6    1     -1.08      0.00
  -19    6    1     -2.72      0.00
  -18    6    1     -1.43      0.00
  -17    6    1      0.86      0.00
  -16    6    1     -7.80      0.00
  -15    6    1    -10.44      0.00
  -14    6    1      2.25      0.00
  -13    6    1     10.87      0.00
  -12    6    1      0.36      0.00
  -11    6    1     -8.01      0.00
  -10    6    1     -0.40      0.00
   -9    6    1     -2.96      0.00
   -8    6    1    -13.94      0.00
   -7    6    1     -7.04      0.00
   -6    6    1     35.08      0.00
   -5    6    1     -8.75      0.00
   -4    6    1     10.39      0.00
   -3    6    1     27.04      0.00
   -2    6    1    -32.08      0.00
   -1    6    1    -61.74      0.00
    0    6    1     -8.36      0.00
    1    6    1     -5.27      0.00
    2    6    1    -17.00      0.00
    3    6    1    -15.32      0.00
    4    6    1     -5.03      0.00
    5    6    1     -9.04      0.00
    6    6    1     14.73      0.00
    7    6    1      4.11      0.00
    8    6    1    -19.86      0.00
    9    6    1      7.00      0.00
   10    6    1      1.91      0.00
   11    6    1     -4.33      0.00
   12    6    1     -6.53      0.00
   13    6    1    -12.58      0.00
   14    6    1      4.72      0.00
   15    6    1      5.45      0.00
   16    6    1     -2.49      0.00
   17    6    1     -2.47      0.00
   18    6    1     -1.28      0.00
   19    6    1      1.75      0.00
   20    6    1     -0.34      0.00
  -20    7    1     -0.88      0.00
  -19    7    1     -1.21      0.00
  -18    7    1     -1.47      0.00
  -17    7    1     -4.96      0.00
  -16    7    1     -0.49      0.00
  -15    7    1      2.35      0.00
  -14    7    1     -2.28      0.00
  -13    7    1      3.78      0.00
  -12    7    1     -1.19      0.00
  -11    7    1     -9.69      0.00
  -10    7    1    -10.30      0.00
   -9    7    1     -3.16      0.00
   -8    7    1     -0.20      0.00
   -7    7    1      8.00      0.00
   -6    7    1      6.88      0.00
   -5    7    1     14.90      0.00
   -4    7    1    -11.99      0.00
   -3    7    1     -7.11      0.00
   -2    7    1     -3.02      0.00
   -1    7    1     -5.71      0.00
    0    7    1    -35.73      0.00
    1    7    1    -10.83      0.00
    2    7    1     15.20      0.00
    3    7    1    -12.91      0.00
    4    7    1      7.40      0.00
    5    7    1      8.27      0.00
    6    7    1    -18.19      0.00
    7    7    1     -1.98      0.00
    8    7    1     10.67      0.00
    9    7    1     -1.75      0.00
   10    7    1      1.24      0.00
   11    7    1    -10.02      0.00
   12    7    1     -3.38      0.00
   13    7    1      0.88      0.00
   14    7    1     -7.73      0.00
   15    7    1      8.17      0.00
   16    7    1      0.25      0.00
   17    7    1     -3.23      0.00
   18    7    1     -1.54      0.00
   19    7    1     -1.00      0.00
   20    7    1      0.29      0.00
  -20    8    1     -0.79      0.00
  -19    8    1     -0.65      0.00
  -18    8    1      0.04      0.00
  -17    8    1      4.06      0.00
  -16    8    1     -1.76      0.00
  -15    8    1     -1.77      0.00
  -14    8    1      2.33      0.00
  -13    8    1     -8.10      0.00
  -12    8    1     -7.19      0.00
  -11    8    1     -2.49      0.00
  -10    8    1     -2.41      0.00
   -9    8    1     -4.27      0.00
   -8    8    1      6.49      0.00
   -7    8    1     12.80      0.00
   -6    8    1     -4.96      0.00
   -5    8    1    -20.63      0.00
   -4    8    1     -8.00      0.00
   -3    8    1     20.51      0.00
   -2    8    1      5.96      0.00
   -1    8    1    -39.90      0.00
    0    8    1    -15.48      0.00
    1    8    1     22.35      0.00
    2    8    1     -1.94      0.00
    3    8    1      5.00      0.00
    4    8    1     -1.64      0.00
    5    8    1      9.43      0.00
    6    8    1     -7.05      0.00
    7    8    1    -10.27      0.00
    8    8    1      6.05      0.00
    9    8    1      4.78      0.00
   10    8    1      1.28      0.00
   11    8    1     -0.13      0.00
   12    8    1     -8.80      0.00
   13    8    1      0.20      0.00
   14    8    1      6.05      0.00
   15    8    1     -5.25      0.00
   16    8    1      1.57      0.00
   17    8    1     -2.36      0.00
   18    8    1     -0.25      0.00
   19    8    1     -2.56      0.00
  -20    9    1      0.56      0.00
  -19    9    1      1.17      0.00
  -18    9    1     -0.97      0.00
  -17    9    1      1.62      0.00
  -16    9    1      4.12      0.00
  -15    9    1     -6.23      0.00
  -14    9    1     -8.99      0.00
  -13    9    1      0.58      0.00
  -12    9    1      0.31      0.00
  -11    9    1     -3.43      0.00
  -10    9    1      2.94      0.00
   -9    9    1      5.01      0.00
   -8    9    1     -2.89      0.00
   -7    9    1     -5.13      0.00
   -6    9    1     -3.20      0.00
   -5    9    1    -19.62      0.00
   -4    9    1      7.84      0.00
   -3    9    1      1.68      0.00
   -2    9    1     -7.46      0.00
   -1    9    1    -10.81      0.00
    0    9    1     -4.35      0.00
    1    9    1    -17.14      0.00
    2    9    1     13.91      0.00
    3    9    1     17.87      0.00
    4    9    1      2.59      0.00
    5    9    1    -14.84      0.00
    6    9    1      0.06      0.00
    7    9    1      0.20      0.00
    8    9    1      5.03      0.00
    9    9    1      6.33      0.00
   10    9    1     -3.20      0.00
   11    9    1      1.09      0.00
   12    9    1      1.98      0.00
   13    9    1     -0.50      0.00
   14    9    1     -4.70      0.00
   15    9    1     -0.75      0.00
   16    9    1     -0.69      0.00
   17    9    1      2.07      0.00
   18    9    1     -1.19      0.00
   19    9    1      1.64      0.00
  -20   10    1      1.56      0.00
  -19   10    1     -2.25      0.00
  -18   10    1     -0.60      0.00
  -17   10    1      3.56      0.00
  -16   10    1      1.29      0.00
  -15   10    1     -6.73      0.00
  -14   10    1     -4.16      0.00
  -13   10    1      8.06      0.00
  -12   10    1      1.61      0.00
  -11   10    1     -2.74      0.00
  -10   10    1      0.89      0.00
   -9   10    1      6.96      0.00
   -8   10    1     -0.90      0.00
   -7   10    1    -16.13      0.00
   -6   10    1    -13.02      0.00
   -5   10    1     13.60      0.00
   -4   10    1    -10.56      0.00
   -3   10    1     13.43      0.00
   -2   10    1    -16.37      0.00
   -1   10    1    -28.35      0.00
    0   10    1     -4.85      0.00
    1   10    1     21.87      0.00
    2   10    1     -9.38      0.00
    3   10    1    -13.26      0.00
    4   10    1     12.44      0.00
    5   10    1     -0.66      0.00
    6   10    1    -10.10      0.00
    7   10    1     10.43      0.00
    8   10    1      3.79      0.00
    9   10    1     -2.75      0.00
   10   10    1      2.32      0.00
   11   10    1      7.74      0.00
   12   10    1      4.13      0.00
   13   10    1    -14.83      0.00
   14   10    1     -3.56      0.00
   15   10    1      5.06      0.00
   16   10    1      3.84      0.00
   17   10    1     -0.39      0.00
   18   10    1      0.73      0.00
   19   10    1      0.93      0.00
  -20   11    1      1.22      0.00
  -19   11    1     -0.64      0.00
  -18   11    1      1.45      0.00
  -17   11    1     -0.57      0.00
  -16   11    1     -0.03      0.00
  -15   11    1      7.19      0.00
  -14   11    1      1.79      0.00
  -13   11    1     -4.51      0.00
  -12   11    1      4.61      0.00
  -11   11    1      0.94      0.00
  -10   11    1      7.76      0.00
   -9   11    1     -0.11      0.00
   -8   11    1    -14.39      0.00
   -7   11    1    -11.48      0.00
   -6   11    1      6.96      0.00
   -5   11    1      8.88      0.00
   -4   11    1      8.01      0.00
   -3   11    1    -31.35      0.00
   -2   11    1      7.05      0.00
   -1   11    1     -0.40      0.00
    0   11    1    -17.55      0.00
    1   11    1     -5.22      0.00
    2   11    1     -6.52      0.00
    3   11    1    -10.48      0.00
    4   11    1    -10.07      0.00
    5   11    1     20.01      0.00
    6   11    1      4.90      0.00
    7   11    1    -10.59      0.00
    8   11    1      8.85      0.00
    9   11    1      3.64      0.00
   10   11    1      1.31      0.00
   11   11    1     -3.83      0.00
   12   11    1     -3.49      0.00
   13   11    1      3.48      0.00
   14   11    1     -7.36      0.00
   15   11    1      1.31      0.00
   16   11    1      5.29      0.00
   17   11    1      2.59      0.00
   18   11    1      0.65      0.00
   19   11    1     -1.48      0.00
  -19   12    1      3.94      0.00
  -18   12    1     -3.28      0.00
  -17   12    1      3.88      0.00
  -16   12    1      7.45      0.00
  -15   12    1      0.93      0.00
  -14   12    1      1.52      0.00
  -13   12    1     -0.50      0.00
  -12   12    1     -1.43      0.00
  -11   12    1      6.26      0.00
  -10   12    1      1.46      0.00
   -9   12    1     -1.25      0.00
   -8   12    1    -15.58      0.00
   -7   12    1      1.54      0.00
   -6   12    1     15.62      0.00
   -5   12    1      4.37      0.00
   -4   12    1    -17.71      0.00
   -3   12    1      8.37      0.00
   -2   12    1     11.17      0.00
   -1   12    1     -4.27      0.00
    0   12    1    -27.69      0.00
    1   12    1    -23.57      0.00
    2   12    1     11.95      0.00
    3   12    1     -7.34      0.00
    4   12    1     -3.90      0.00
    5   12    1      3.65      0.00
    6   12    1     16.53      0.00
    7   12    1      0.57      0.00
    8   12    1    -14.09      0.00
    9   12    1      3.85      0.00
   10   12    1     -1.99      0.00
   11   12    1     -1.37      0.00
   12   12    1      0.79      0.00
   13   12    1     -0.81      0.00
   14   12    1     -0.07      0.00
   15   12    1     -0.38      0.00
   16   12    1      3.07      0.00
   17   12    1      1.61      0.00
   18   12    1     -0.53      0.00
   19   12    1     -0.78      0.00
  -19   13    1     -1.20      0.00
  -18   13    1      4.21      0.00
  -17   13    1     -1.41      0.00
  -16   13    1      3.45      0.00
  -15   13    1      5.44      0.00
  -14   13    1     -0.52      0.00
  -13   13    1     -1.15      0.00
  -12   13    1      0.47      0.00
  -11   13    1      4.65      0.00
  -10   13    1     -1.04      0.00
   -9   13    1     -5.54      0.00
   -8   13    1      5.46      0.00
   -7   13    1     -4.38      0.00
   -6   13    1      7.08      0.00
   -5   13    1     -1.92      0.00
   -4   13    1      6.19      0.00
   -3   13    1     10.85      0.00
   -2   13    1     -4.56      0.00
   -1   13    1     -3.81      0.00
    0   13    1    -12.92      0.00
    1   13    1     -6.31      0.00
    2   13    1     -8.64      0.00
    3   13    1      9.28      0.00
    4   13    1      4.97      0.00
    5   13    1      2.19      0.00
    6   13    1     -4.91      0.00
    7   13    1     -4.87      0.00
    8   13    1     -0.09      0.00
    9   13    1     -8.32      0.00
   10   13    1      1.73      0.00
   11   13    1      2.98      0.00
   12   13    1      0.47      0.00
   13   13    1      0.62      0.00
   14   13    1      1.02      0.00
   15   13    1     -3.07      0.00
   16   13    1      1.14      0.00
   17   13    1      0.27      0.00
   18   13    1     -1.11      0.00
  -19   14    1      2.02      0.00
  -18   14    1     -4.05      0.00
  -17   14    1      0.86      0.00
  -16   14    1      5.60      0.00
  -15   14    1      2.09      0.00
  -14   14    1     -3.30      0.00
  -13   14    1      3.64      0.00
  -12   14    1      5.40      0.00
  -11   14    1     -6.74      0.00
  -10   14    1     -0.73      0.00
   -9   14    1      0.75      0.00
   -8   14    1      3.91      0.00
   -7   14    1      7.18      0.00
   -6   14    1    -15.44      0.00
   -5   14    1      6.69      0.00
   -4   14    1      0.30      0.00
   -3   14    1      9.24      0.00
   -2   14    1     18.86      0.00
   -1   14    1    -23.02      0.00
    0   14    1     -1.85      0.00
    1   14    1     13.85      0.00
    2   14    1      9.14      0.00
    3   14    1     -8.26      0.00
    4   14    1     -4.68      0.00
    5   14    1      5.15      0.00
    6   14    1     -7.82      0.00
    7   14    1     -9.88      0.00
    8   14    1     -2.14      0.00
    9   14    1      6.51      0.00
   10   14    1     -2.36      0.00
   11   14    1      0.30      0.00
   12   14    1      5.92      0.00
   13   14    1      0.37      0.00
   14   14    1     -7.50      0.00
   15   14    1      1.04      0.00
   16   14    1      1.08      0.00
   17   14    1      0.94      0.00
   18   14    1     -2.22      0.00
  -19   15    1     -1.28      0.00
  -18   15    1      0.35      0.00
  -17   15    1     -0.07      0.00
  -16   15    1     -1.41      0.00
  -15   15    1      1.97      0.00
  -14   15    1      6.19      0.00
  -13   15    1      1.25      0.00
  -12   15    1     -4.43      0.00
  -11   15    1     -7.09      0.00
  -10   15    1     -0.54      0.00
   -9   15    1     17.65      0.00
   -8   15    1     -0.81      0.00
   -7   15    1    -17.06      0.00
   -6   15    1     -3.10      0.00
   -5   15    1     -3.41      0.00
   -4   15    1     18.13      0.00
   -3   15    1     -4.28      0.00
   -2   15    1     -3.16      0.00
   -1   15    1     26.94      0.00
    0   15    1      1.10      0.00
    1   15    1      1.55      0.00
    2   15    1      6.79      0.00
    3   15    1     -3.90      0.00
    4   15    1     -9.37      0.00
    5   15    1     -7.53      0.00
    6   15    1      3.39      0.00
    7   15    1     -8.87      0.00
    8   15    1      0.52      0.00
    9   15    1      9.27      0.00
   10   15    1      1.96      0.00
   11   15    1     -4.61      0.00
   12   15    1     -1.94      0.00
   13   15    1      0.71      0.00
   14   15    1      3.01      0.00
   15   15    1     -4.74      0.00
   16   15    1     -0.72      0.00
   17   15    1     -0.08      0.00
   18   15    1      0.36      0.00
  -18   16    1      0.04      0.00
  -17   16    1     -4.75      0.00
  -16   16    1      1.81      0.00
  -15   16    1      4.55      0.00
  -14   16    1      0.78      0.00
  -13   16    1     -3.06      0.00
  -12   16    1     -3.12      0.00
  -11   16    1      1.66      0.00
  -10   16    1      2.50      0.00
   -9   16    1      4.04      0.00
   -8   16    1      0.16      0.00
   -7   16    1    -17.11      0.00
   -6   16    1     -6.80      0.00
   -5   16    1     11.91      0.00
   -4   16    1     -7.69      0.00
   -3   16    1     -1.12      0.00
   -2   16    1     17.59      0.00
   -1   16    1     25.11      0.00
    0   16    1      0.59      0.00
    1   16    1    -16.62      0.00
    2   16    1      0.43      0.00
    3   16    1     10.45      0.00
    4   16    1     -8.66      0.00
    5   16    1    -13.06      0.00
    6   16    1     -0.45      0.00
    7   16    1     14.89      0.00
    8   16    1     -3.49      0.00
    9   16    1     -6.86      0.00
   10   16    1      5.19      0.00
   11   16    1     -3.38      0.00
   12   16    1     -4.00      0.00
   13   16    1      4.84      0.00
   14   16    1     -2.25      0.00
   15   16    1     -1.51      0.00
   16   16    1     -1.01      0.00
   17   16    1      1.04      0.00
  -18   17    1     -0.78      0.00
  -17   17    1      1.07      0.00
  -16   17    1     -1.95      0.00
  -15   17    1      0.36      0.00
  -14   17    1      0.67      0.00
  -13   17    1      1.54      0.00
  -12   17    1     -0.18      0.00
  -11   17    1      1.25      0.00
  -10   17    1      1.56      0.00
   -9   17    1     -6.45      0.00
   -8   17    1     -0.66      0.00
   -7   17    1     -0.58      0.00
   -6   17    1    -10.65      0.00
   -5   17    1     -5.25      0.00
   -4   17    1      3.20      0.00
   -3   17    1     12.83      0.00
   -2   17    1      6.25      0.00
   -1   17    1     -1.92      0.00
    0   17    1      8.21      0.00
    1   17    1    -11.17      0.00
    2   17    1     -2.98      0.00
    3   17    1      2.88      0.00
    4   17    1     -2.34      0.00
    5   17    1      1.55      0.00
    6   17    1      3.11      0.00
    7   17    1     -4.61      0.00
    8   17    1     -1.55      0.00
    9   17    1     -3.15      0.00
   10   17    1     -5.57      0.00
   11   17    1      3.71      0.00
   12   17    1     -0.24      0.00
   13   17    1     -2.48      0.00
   14   17    1      3.95      0.00
   15   17    1     -1.53      0.00
   16   17    1     -1.44      0.00
   17   17    1      0.60      0.00
  -17   18    1     -2.28      0.00
  -16   18    1      0.55      0.00
  -15   18    1      1.68      0.00
  -14   18    1     -0.93      0.00
  -13   18    1     -0.39      0.00
  -12   18    1      4.86      0.00
  -11   18    1     -2.05      0.00
  -10   18    1     -4.24      0.00
   -9   18    1     -1.88      0.00
   -8   18    1     -3.76      0.00
   -7   18    1      3.71      0.00
   -6   18    1     -0.11      0.00
   -5   18    1     -6.02      0.00
   -4   18    1      2.41      0.00
   -3   18    1    -10.03      0.00
   -2   18    1     10.56      0.00
   -1   18    1      6.13      0.00
    0   18    1    -17.82      0.00
    1   18    1      3.19      0.00
    2   18    1      0.80      0.00
    3   18    1      2.71      0.00
    4   18    1      2.00      0.00
    5   18    1     -3.10      0.00
    6   18    1      2.46      0.00
    7   18    1     -6.87      0.00
    8   18    1     -9.29      0.00
    9   18    1     -3.52      0.00
   10   18    1      2.67      0.00
   11   18    1      0.52      0.00
   12   18    1      0.56      0.00
   13   18    1      1.30      0.00
   14   18    1     -1.88      0.00
   15   18    1     -0.23      0.00
   16   18    1      0.29      0.00
   17   18    1      1.06      0.00
  -17   19    1      1.87      0.00
  -16   19    1     -0.85      0.00
  -15   19    1     -1.84      0.00
  -14   19    1     -0.37      0.00
  -13   19    1      1.82      0.00
  -12   19    1      3.11      0.00
  -11   19    1     -1.33      0.00
  -10   19    1    -12.08      0.00
   -9   19    1      3.19      0.00
   -8   19    1     12.07      0.00
   -7   19    1      1.41      0.00
   -6   19    1     -4.57      0.00
   -5   19    1     -3.79      0.00
   -4   19    1     -7.68      0.00
   -3   19    1      4.70      0.00
   -2   19    1    -13.23      0.00
   -1   19    1     -0.90      0.00
    0   19    1      9.42      0.00
    1   19    1     -3.51      0.00
    2   19    1     -0.80      0.00
    3   19    1     -0.84      0.00
    4   19    1     -0.51      0.00
    5   19    1     -1.08      0.00
    6   19    1     -4.97      0.00
    7   19    1     -2.05      0.00
    8   19    1    -13.32      0.00
    9   19    1      0.94      0.00
   10   19    1      5.39      0.00
   11   19    1      0.14      0.00
   12   19    1     -2.13      0.00
   13   19    1     -2.83      0.00
   14   19    1      1.33      0.00
   15   19    1      0.48      0.00
   16   19    1     -0.22      0.00
  -16   20    1     -2.08      0.00
  -15   20    1      0.48      0.00
  -14   20    1      1.39      0.00
  -13   20    1     -0.86      0.00
  -12   20    1     -1.61      0.00
  -11   20    1      0.11      0.00
  -10   20    1      2.14      0.00
   -9   20    1     -1.82      0.00
   -8   20    1     11.80      0.00
   -7   20    1      3.00      0.00
   -6   20    1     -7.70      0.00
   -5   20    1     -7.06      0.00
   -4   20    1      5.39      0.00
   -3   20    1    -13.98      0.00
   -2   20    1     -8.01      0.00
   -1   20    1      9.14      0.00
    0   20    1     13.64      0.00
    1   20    1     -9.59      0.00
    2   20    1    -10.70      0.00
    3   20    1      0.43      0.00
    4   20    1      4.54      0.00
    5   20    1     -4.25      0.00
    6   20    1     -9.47      0.00
    7   20    1     -2.69      0.00
    8   20    1      8.64      0.00
    9   20    1     -7.17      0.00
   10   20    1     -2.14      0.00
   11   20    1      0.22      0.00
   12   20    1     -2.63      0.00
   13   20    1     -0.07      0.00
   14   20    1     -0.70      0.00
   15   20    1     -0.56      0.00
   16   20    1     -0.54      0.00
  -16   21    1      0.77      0.00
  -15   21    1     -1.09      0.00
  -14   21    1     -1.85      0.00
  -13   21    1      0.85      0.00
  -12   21    1      1.24      0.00
  -11   21    1      2.33      0.00
  -10   21    1      1.67      0.00
   -9   21    1      1.50      0.00
   -8   21    1     -2.41      0.00
   -7   21    1      9.73      0.00
   -6   21    1     -3.90      0.00
   -5   21    1     -6.34      0.00
   -4   21    1    -11.12      0.00
   -3   21    1      7.93      0.00
   -2   21    1      4.79      0.00
   -1   21    1     -4.33      0.00
    0   21    1     -0.37      0.00
    1   21    1      4.24      0.00
    2   21    1    -12.21      0.00
    3   21    1      2.18      0.00
    4   21    1     -1.83      0.00
    5   21    1     -6.69      0.00
    6   21    1      3.81      0.00
    7   21    1      4.98      0.00
    8   21    1     -4.09      0.00
    9   21    1     -1.81      0.00
   10   21    1     -4.74      0.00
   11   21    1      0.05      0.00
   12   21    1     -0.82      0.00
   13   21    1     -3.02      0.00
   14   21    1     -0.45      0.00
   15   21    1      0.73      0.00
  -15   22    1     -2.13      0.00
  -14   22    1      1.62      0.00
  -13   22    1      1.14      0.00
  -12   22    1      1.86      0.00
  -11   22    1     -0.35      0.00
  -10   22    1      1.55      0.00
   -9   22    1      0.35      0.00
   -8   22    1     -0.07      0.00
   -7   22    1     -3.60      0.00
   -6   22    1      5.90      0.00
   -5   22    1     -5.33      0.00
   -4   22    1      7.77      0.00
   -3   22    1     -1.39      0.00
   -2   22    1     -2.86      0.00
   -1   22    1      2.08      0.00
    0   22    1      0.52      0.00
    1   22    1     -3.17      0.00
    2   22    1      2.32      0.00
    3   22    1     -9.03      0.00
    4   22    1      2.56      0.00
    5   22    1      1.85      0.00
    6   22    1      0.27      0.00
    7   22    1      4.80      0.00
    8   22    1      0.22      0.00
    9   22    1     -5.81      0.00
   10   22    1     -2.63      0.00
   11   22    1     -0.30      0.00
   12   22    1     -0.65      0.00
   13   22    1     -1.51      0.00
   14   22    1      1.03      0.00
  -15   23    1     -0.69      0.00
  -14   23    1     -1.86      0.00
  -13   23    1      1.72      0.00
  -12   23    1      0.67      0.00
  -11   23    1      4.24      0.00
  -10   23    1     -1.96      0.00
   -9   23    1     -4.98      0.00
   -8   23    1     -0.07      0.00
   -7   23    1      6.31      0.00
   -6   23    1     -0.15      0.00
   -5   23    1      8.33      0.00
   -4   23    1     -2.58      0.00
   -3   23    1      1.13      0.00
   -2   23    1     -2.06      0.00
   -1   23    1     -2.59      0.00
    0   23    1     -0.59      0.00
    1   23    1      5.16      0.00
    2   23    1      2.01      0.00
    3   23    1     -1.60      0.00
    4   23    1     -4.71      0.00
    5   23    1      3.85      0.00
    6   23    1      4.31      0.00
    7   23    1      3.33      0.00
    8   23    1     -0.02      0.00
    9   23    1     -4.33      0.00
   10   23    1     -1.47      0.00
   11   23    1     -0.59      0.00
   12   23    1      1.68      0.00
   13   23    1      2.17      0.00
   14   23    1     -0.51      0.00
  -14   24    1     -0.77      0.00
  -13   24    1      0.04      0.00
  -12   24    1      2.91      0.00
  -11   24    1     -0.37      0.00
  -10   24    1      0.78      0.00
   -9   24    1     -2.05      0.00
   -8   24    1     -1.03      0.00
   -7   24    1      4.56      0.00
   -6   24    1      7.83      0.00
   -5   24    1     -5.17      0.00
   -4   24    1      2.04      0.00
   -3   24    1      2.41      0.00
   -2   24    1     -4.73      0.00
   -1   24    1     -5.11      0.00
    0   24    1      9.73      0.00
    1   24    1      5.72      0.00
    2   24    1     -2.38      0.00
    3   24    1     -0.88      0.00
    4   24    1      1.18      0.00
    5   24    1      5.04      0.00
    6   24    1      1.95      0.00
    7   24    1     -1.30      0.00
    8   24    1      2.86      0.00
    9   24    1      2.63      0.00
   10   24    1     -3.00      0.00
   11   24    1      1.47      0.00
   12   24    1      1.37      0.00
   13   24    1      0.53      0.00
  -13   25    1     -0.15      0.00
  -12   25    1      0.92      0.00
  -11   25    1      2.48      0.00
  -10   25    1      1.64      0.00
   -9   25    1     -1.68      0.00
   -8   25    1     -2.30      0.00
   -7   25    1      2.67      0.00
   -6   25    1      3.98      0.00
   -5   25    1      1.27      0.00
   -4   25    1     -5.53      0.00
   -3   25    1     -1.69      0.00
   -2   25    1      5.71      0.00
   -1   25    1      2.19      0.00
    0   25    1     -2.26      0.00
    1   25    1      5.62      0.00
    2   25    1      2.14      0.00
    3   25    1      1.26      0.00
    4   25    1      6.96      0.00
    5   25    1     -3.79      0.00
    6   25    1     -1.16      0.00
    7   25    1      6.31      0.00
    8   25    1      4.83      0.00
    9   25    1     -1.88      0.00
   10   25    1      0.23      0.00
   11   25    1     -0.23      0.00
   12   25    1      2.12      0.00
  -12   26    1      3.62      0.00
  -11   26    1      1.18      0.00
  -10   26    1     -1.84      0.00
   -9   26    1      2.90      0.00
   -8   26    1     -0.08      0.00
   -7   26    1     -2.76      0.00
   -6   26    1     -0.38      0.00
   -5   26    1      0.42      0.00
   -4   26    1     -1.36      0.00
   -3   26    1      4.92      0.00
   -2   26    1      1.03      0.00
   -1   26    1     -0.95      0.00
    0   26    1      0.67      0.00
    1   26    1      2.66      0.00
    2   26    1      5.22      0.00
    3   26    1      1.55      0.00
    4   26    1     -0.97      0.00
    5   26    1      3.08      0.00
    6   26    1     -0.83      0.00
    7   26    1      2.15      0.00
    8   26    1      3.23      0.00
    9   26    1      3.21      0.00
   10   26    1     -2.87      0.00
   11   26    1      1.97      0.00
  -11   27    1      1.87      0.00
  -10   27    1      2.05      0.00
   -9   27    1     -1.04      0.00
   -8   27    1     -1.41      0.00
   -7   27    1     -2.33      0.00
   -6   27    1      0.51      0.00
   -5   27    1      0.56      0.00
   -4   27    1      3.66      0.00
   -3   27    1     -1.25      0.00
   -2   27    1      1.75      0.00
   -1   27    1     -0.08      0.00
    0   27    1     -0.92      0.00
    1   27    1     -1.60      0.00
    2   27    1      3.63      0.00
    3   27    1      3.79      0.00
    4   27    1      0.85      0.00
    5   27    1     -0.36      0.00
    6   27    1     -0.06      0.00
    7   27    1     -0.62      0.00
    8   27    1      4.18      0.00
    9   27    1      1.21      0.00
   10   27    1      3.60      0.00
  -10   28    1      0.48      0.00
   -9   28    1     -2.19      0.00
   -8   28    1     -0.83      0.00
   -7   28    1     -0.44      0.00
   -6   28    1      0.84      0.00
   -5   28    1      3.77      0.00
   -4   28    1     -3.10      0.00
   -3   28    1      0.81      0.00
   -2   28    1      0.75      0.00
   -1   28    1     -0.80      0.00
    0   28    1     -3.29      0.00
    1   28    1      1.64      0.00
    2   28    1      0.89      0.00
    3   28    1      2.21      0.00
    4   28    1     -0.12      0.00
    5   28    1     -1.23      0.00
    6   28    1      0.28      0.00
    7   28    1      1.20      0.00
    8   28    1      0.09      0.00
    9   28    1      5.51      0.00
   -9   29    1     -1.28      0.00
   -8   29    1     -3.28      0.00
   -7   29    1      2.06      0.00
   -6   29    1      2.50      0.00
   -5   29    1      0.22      0.00
   -4   29    1      0.92      0.00
   -3   29    1     -3.05      0.00
   -2   29    1     -0.45      0.00
   -1   29    1      0.16      0.00
    0   29    1      0.39      0.00
    1   29    1     -1.77      0.00
    2   29    1      0.06      0.00
    3   29    1     -2.31      0.00
    4   29    1      2.58      0.00
    5   29    1      1.48      0.00
    6   29    1     -2.25      0.00
    7   29    1      0.72      0.00
    8   29    1      4.37      0.00
   -7   30    1     -0.08      0.00
   -6   30    1      0.77      0.00
   -5   30    1      0.54      0.00
   -4   30    1     -1.77      0.00
   -3   30    1     -0.17      0.00
   -2   30    1      0.18      0.00
   -1   30    1     -0.70      0.00
    0   30    1     -1.19      0.00
    1   30    1      0.95      0.00
    2   30    1     -1.30      0.00
    3   30    1     -0.58      0.00
    4   30    1     -0.67      0.00
    5   30    1      3.11      0.00
    6   30    1     -0.07      0.00
    7   30    1     -1.50      0.00
   -5   31    1      1.45      0.00
   -4   31    1      0.34      0.00
   -3   31    1     -1.97      0.00
   -2   31    1     -0.74      0.00
   -1   31    1      1.03      0.00
    0   31    1      1.12      0.00
    1   31    1     -0.69      0.00
    2   31    1     -1.36      0.00
    3   31    1     -1.44      0.00
    4   31    1      0.87      0.00
   -1   32    1      1.76      0.00
    0   32    1      1.39      0.00
    1   32    1     -1.90      0.00
  -20    0    2      0.18      0.00
  -18    0    2     -8.67      0.00
  -16    0    2      4.38      0.00
  -14    0    2      2.19      0.00
  -12    0    2     12.62      0.00
  -10    0    2    -19.06      0.00
   -8    0    2     29.06      0.00
   -6    0    2     26.22      0.00
   -4    0    2    -29.30      0.00
   -2    0    2    101.93      0.00
    0    0    2   -161.19      0.00
    2    0    2    114.62      0.00
    4    0    2     38.49      0.00
    6    0    2     22.73      0.00
    8    0    2    -28.26      0.00
   10    0    2      4.95      0.00
   12    0    2      7.16      0.00
   14    0    2      9.04      0.00
   16    0    2     -2.81      0.00
   18    0    2      2.30      0.00
   20    0    2      1.60      0.00
  -21    1    2     -2.64      0.00
  -20    1    2     -1.72      0.00
  -19    1    2     -0.65      0.00
  -18    1    2     -2.10      0.00
  -17    1    2     -3.60      0.00
  -16    1    2      4.81      0.00
  -15    1    2      4.37      0.00
  -14    1    2      0.11      0.00
  -13    1    2      1.22      0.00
  -12    1    2     -6.51      0.00
  -11    1    2     -5.56      0.00
  -10    1    2    -22.73      0.00
   -9    1    2     19.71      0.00
   -8    1    2     24.35      0.00
   -7    1    2     22.75      0.00
   -6    1    2      0.24      0.00
   -5    1    2      0.26      0.00
   -4    1    2     29.88      0.00
   -3    1    2    -24.23      0.00
   -2    1    2   -195.13      0.00
   -1    1    2     50.31      0.00
    0    1    2     42.21      0.00
    1    1    2    -47.41      0.00
    2    1    2    -13.30      0.00
    3    1    2     66.55      0.00
    4    1    2    -21.37      0.00
    5    1    2     27.07      0.00
    6    1    2      2.03      0.00
    7    1    2    -20.22      0.00
    8    1    2    -16.09      0.00
    9    1    2      9.37      0.00
   10    1    2     12.39      0.00
   11    1    2     -6.34      0.00
   12    1    2     -4.39      0.00
   13    1    2     13.70      0.00
   14    1    2      0.05      0.00
   15    1    2     -1.78      0.00
   16    1    2     -2.61      0.00
   17    1    2      1.35      0.00
   18    1    2     -0.12      0.00
   19    1    2      3.18      0.00
   20    1    2      1.17      0.00
  -21    2    2      0.49      0.00
  -20    2    2     -3.11      0.00
  -19    2    2     -0.69      0.00
  -18    2    2     -0.05      0.00
  -17    2    2     -3.15      0.00
  -16    2    2      3.06      0.00
  -15    2    2      6.33      0.00
  -14    2    2     -4.82      0.00
  -13    2    2    -12.66      0.00
  -12    2    2     -6.02      0.00
  -11    2    2     -3.48      0.00
  -10    2    2     13.26      0.00
   -9    2    2    -12.17      0.00
   -8    2    2     36.04      0.00
   -7    2    2      9.73      0.00
   -6    2    2     -2.09      0.00
   -5    2    2     29.87      0.00
   -4    2    2    -54.23      0.00
   -3    2    2   -117.29      0.00
   -2    2    2     22.28      0.00
   -1    2    2    -85.82      0.00
    0    2    2     57.19      0.00
    1    2    2    -24.65      0.00
    2    2    2    -29.85      0.00
    3    2    2    -42.05      0.00
    4    2    2     16.78      0.00
    5    2    2     -4.93      0.00
    6    2    2    -11.29      0.00
    7    2    2      4.90      0.00
    8    2    2      9.38      0.00
    9    2    2    -11.50      0.00
   10    2    2      0.50      0.00
   11    2    2      1.67      0.00
   12    2    2     -1.69      0.00
   13    2    2     -0.62      0.00
   14    2    2      3.68      0.00
   15    2    2     -3.66      0.00
   16    2    2      1.95      0.00
   17    2    2     -1.73      0.00
   18    2    2      3.28      0.00
   19    2    2     -0.07      0.00
   20    2    2     -0.14      0.00
  -21    3    2     -1.99      0.00
  -20    3    2      0.32      0.00
  -19    3    2     -0.48      0.00
  -18    3    2     -1.13      0.00
  -17    3    2      3.63      0.00
  -16    3    2     -3.49      0.00
  -15    3    2     -5.33      0.00
  -14    3    2     -6.72      0.00
  -13    3    2     -5.33      0.00
  -12    3    2     -1.59      0.00
  -11    3    2      6.28      0.00
  -10    3    2      2.65      0.00
   -9    3    2     18.03      0.00
   -8    3    2    -20.05      0.00
   -7    3    2      7.32      0.00
   -6    3    2      7.13      0.00
   -5    3    2     -4.16      0.00
   -4    3    2    -13.42      0.00
   -3    3    2    -49.96      0.00
   -2    3    2    -93.82      0.00
   -1    3    2     55.77      0.00
    0    3    2    -33.18      0.00
    1    3    2    -12.10      0.00
    2    3    2   -103.64      0.00
    3    3    2    -21.19      0.00
    4    3    2    -17.22      0.00
    5    3    2     -9.17      0.00
    6    3    2     29.02      0.00
    7    3    2     -5.29      0.00
    8    3    2     -9.40      0.00
    9    3    2      8.06      0.00
   10    3    2     -8.52      0.00
   11    3    2     -2.14      0.00
   12    3    2     -6.87      0.00
   13    3    2     -0.04      0.00
   14    3    2      4.68      0.00
   15    3    2     -2.01      0.00
   16    3    2     -4.74      0.00
   17    3    2      4.80      0.00
   18    3    2     -3.53      0.00
   19    3    2      1.15      0.00
   20    3    2      1.43      0.00
  -21    4    2      0.60      0.00
  -20    4    2     -0.63      0.00
  -19    4    2      1.56      0.00
  -18    4    2     -1.23      0.00
  -17    4    2     -8.52      0.00
  -16    4    2     -1.46      0.00
  -15    4    2     -6.28      0.00
  -14    4    2     -3.90      0.00
  -13    4    2     -2.05      0.00
  -12    4    2     12.41      0.00
  -11    4    2      7.09      0.00
  -10    4    2     -7.23      0.00
   -9    4    2    -15.59      0.00
   -8    4    2     -7.51      0.00
   -7    4    2     -4.55      0.00
   -6    4    2     11.47      0.00
   -5    4    2     16.58      0.00
   -4    4    2      7.66      0.00
   -3    4    2    -80.33      0.00
   -2    4    2    -10.53      0.00
   -1    4    2     30.24      0.00
    0    4    2    -40.64      0.00
    1    4    2   -125.20      0.00
    2    4    2     -3.24      0.00
    3    4    2    -26.99      0.00
    4    4    2    -16.71      0.00
    5    4    2     -2.68      0.00
    6    4    2      0.07      0.00
    7    4    2     23.70      0.00
    8    4    2     -7.81      0.00
    9    4    2    -11.95      0.00
   10    4    2     -4.94      0.00
   11    4    2     -7.73      0.00
   12    4    2      6.95      0.00
   13    4    2     -8.11      0.00
   14    4    2     -5.69      0.00
   15    4    2      4.67      0.00
   16    4    2      1.77      0.00
   17    4    2     -5.12      0.00
   18    4    2      0.53      0.00
   19    4    2      0.70      0.00
   20    4    2      1.17      0.00
  -21    5    2     -0.74      0.00
  -20    5    2     -3.59      0.00
  -19    5    2     -1.35      0.00
  -18    5    2      1.25      0.00
  -17    5    2     -5.73      0.00
  -16    5    2    -11.80      0.00
  -15    5    2      3.58      0.00
  -14    5    2      4.21      0.00
  -13    5    2      3.52      0.00
  -12    5    2     -1.72      0.00
  -11    5    2      3.36      0.00
  -10    5    2    -20.59      0.00
   -9    5    2    -27.78      0.00
   -8    5    2     16.31      0.00
   -7    5    2      5.75      0.00
   -6    5    2      7.55      0.00
   -5    5    2     -3.80      0.00
   -4    5    2     -8.59      0.00
   -3    5    2     44.01      0.00
   -2    5    2    -53.28      0.00
   -1    5    2    -86.63      0.00
    0    5    2      4.25      0.00
    1    5    2      0.41      0.00
    2    5    2    -49.03      0.00
    3    5    2    -16.32      0.00
    4    5    2     -9.85      0.00
    5    5    2     -3.10      0.00
    6    5    2     11.15      0.00
    7    5    2      3.12      0.00
    8    5    2    -11.38      0.00
    9    5    2    -15.09      0.00
   10    5    2     12.11      0.00
   11    5    2      1.29      0.00
   12    5    2    -19.55      0.00
   13    5    2      0.30      0.00
   14    5    2      3.12      0.00
   15    5    2      0.43      0.00
   16    5    2     -3.50      0.00
   17    5    2     -0.40      0.00
   18    5    2     -0.63      0.00
   19    5    2     -1.17      0.00
  -21    6    2     -1.22      0.00
  -20    6    2     -2.44      0.00
  -19    6    2     -1.61      0.00
  -18    6    2     -0.04      0.00
  -17    6    2     -2.76      0.00
  -16    6    2     -4.83      0.00
  -15    6    2      0.63      0.00
  -14    6    2     10.90      0.00
  -13    6    2     -3.18      0.00
  -12    6    2    -11.86      0.00
  -11    6    2    -11.60      0.00
  -10    6    2     -2.53      0.00
   -9    6    2     -7.44      0.00
   -8    6    2    -12.18      0.00
   -7    6    2     32.12      0.00
   -6    6    2    -14.39      0.00
   -5    6    2     -4.23      0.00
   -4    6    2     18.97      0.00
   -3    6    2    -30.61      0.00
   -2    6    2    -31.32      0.00
   -1    6    2      0.38      0.00
    0    6    2    -11.91      0.00
    1    6    2     -8.77      0.00
    2    6    2     -9.12      0.00
    3    6    2     -6.16      0.00
    4    6    2    -12.11      0.00
    5    6    2      1.38      0.00
    6    6    2     -3.55      0.00
    7    6    2    -13.18      0.00
    8    6    2      9.32      0.00
    9    6    2     10.19      0.00
   10    6    2    -11.67      0.00
   11    6    2     -6.91      0.00
   12    6    2     -4.41      0.00
   13    6    2     -1.32      0.00
   14    6    2      6.43      0.00
   15    6    2     -4.01      0.00
   16    6    2     -3.15      0.00
   17    6    2     -2.08      0.00
   18    6    2      0.47      0.00
   19    6    2      0.53      0.00
  -21    7    2     -0.74      0.00
  -20    7    2     -0.45      0.00
  -19    7    2     -0.67      0.00
  -18    7    2     -0.52      0.00
  -17    7    2      1.99      0.00
  -16    7    2      3.37      0.00
  -15    7    2     -3.45      0.00
  -14    7    2     -4.01      0.00
  -13    7    2     -0.54      0.00
  -12    7    2     -9.68      0.00
  -11    7    2     -7.56      0.00
  -10    7    2     -2.43      0.00
   -9    7    2     -0.10      0.00
   -8    7    2      7.21      0.00
   -7    7    2    -12.50      0.00
   -6    7    2      7.42      0.00
   -5    7    2    -26.68      0.00
   -4    7    2    -11.30      0.00
   -3    7    2     17.32      0.00
   -2    7    2      0.16      0.00
   -1    7    2    -34.38      0.00
    0    7    2     -2.39      0.00
    1    7    2     19.61      0.00
    2    7    2     -8.77      0.00
    3    7    2     -2.05      0.00
    4    7    2     10.59      0.00
    5    7    2    -25.46      0.00
    6    7    2     -8.88      0.00
    7    7    2     18.04      0.00
    8    7    2      0.27      0.00
    9    7    2     -2.10      0.00
   10    7    2     -2.89      0.00
   11    7    2     -2.46      0.00
   12    7    2      1.68      0.00
   13    7    2     -5.42      0.00
   14    7    2      2.89      0.00
   15    7    2      2.43      0.00
   16    7    2     -5.90      0.00
   17    7    2     -1.47      0.00
   18    7    2     -1.26      0.00
   19    7    2     -0.06      0.00
  -21    8    2     -0.13      0.00
  -20    8    2      0.71      0.00
  -19    8    2      0.80      0.00
  -18    8    2      3.93      0.00
  -17    8    2      0.47      0.00
  -16    8    2     -3.61      0.00
  -15    8    2     -1.30      0.00
  -14    8    2     -6.88      0.00
  -13    8    2     -5.55      0.00
  -12    8    2      4.66      0.00
  -11    8    2      1.90      0.00
  -10    8    2     -3.43      0.00
   -9    8    2     -1.35      0.00
   -8    8    2     -2.25      0.00
   -7    8    2     -7.09      0.00
   -6    8    2    -31.83      0.00
   -5    8    2      0.33      0.00
   -4    8    2     16.09      0.00
   -3    8    2      2.48      0.00
   -2    8    2    -32.25      0.00
   -1    8    2     -4.39      0.00
    0    8    2     18.13      0.00
    1    8    2    -11.39      0.00
    2    8    2     10.74      0.00
    3    8    2     -0.78      0.00
    4    8    2     -2.15      0.00
    5    8    2     -2.40      0.00
    6    8    2    -12.68      0.00
    7    8    2      3.67      0.00
    8    8    2     11.51      0.00
    9    8    2      1.38      0.00
   10    8    2      1.29      0.00
   11    8    2     -6.16      0.00
   12    8    2      1.53      0.00
   13    8    2      5.33      0.00
   14    8    2     -9.25      0.00
   15    8    2     -0.13      0.00
   16    8    2      1.27      0.00
   17    8    2     -1.02      0.00
   18    8    2     -1.53      0.00
   19    8    2     -0.16      0.00
  -20    9    2      0.20      0.00
  -19    9    2     -1.54      0.00
  -18    9    2      1.12      0.00
  -17    9    2      5.22      0.00
  -16    9    2     -4.52      0.00
  -15    9    2     -8.46      0.00
  -14    9    2      3.86      0.00
  -13    9    2      6.76      0.00
  -12    9    2     -1.24      0.00
  -11    9    2      3.86      0.00
  -10    9    2      3.08      0.00
   -9    9    2     -9.19      0.00
   -8    9    2    -16.02      0.00
   -7    9    2     -8.44      0.00
   -6    9    2     -1.56      0.00
   -5    9    2     -0.80      0.00
   -4    9    2      2.50      0.00
   -3    9    2     -8.72      0.00
   -2    9    2     -6.48      0.00
   -1    9    2     -3.49      0.00
    0    9    2    -19.25      0.00
    1    9    2     14.28      0.00
    2    9    2     -0.59      0.00
    3    9    2      5.88      0.00
    4    9    2    -13.18      0.00
    5    9    2     -4.05      0.00
    6    9    2      5.75      0.00
    7    9    2      3.57      0.00
    8    9    2      4.55      0.00
    9    9    2     -1.43      0.00
   10    9    2      1.07      0.00
   11    9    2      8.13      0.00
   12    9    2     -5.28      0.00
   13    9    2     -8.91      0.00
   14    9    2      2.13      0.00
   15    9    2      0.24      0.00
   16    9    2      2.55      0.00
   17    9    2     -0.37      0.00
   18    9    2      1.54      0.00
   19    9    2     -0.39      0.00
  -20   10    2     -2.97      0.00
  -19   10    2     -0.09      0.00
  -18   10    2      2.99      0.00
  -17   10    2      1.31      0.00
  -16   10    2      0.49      0.00
  -15   10    2     -0.22      0.00
  -14   10    2      6.55      0.00
  -13   10    2      2.84      0.00
  -12   10    2      0.32      0.00
  -11   10    2      1.74      0.00
  -10   10    2      4.63      0.00
   -9   10    2     -8.98      0.00
   -8   10    2    -18.36      0.00
   -7   10    2     -7.68      0.00
   -6   10    2     16.53      0.00
   -5   10    2     -1.69      0.00
   -4   10    2     -0.57      0.00
   -3   10    2     -6.66      0.00
   -2   10    2    -16.21      0.00
   -1   10    2     -8.57      0.00
    0   10    2     25.33      0.00
    1   10    2    -27.43      0.00
    2   10    2    -15.69      0.00
    3   10    2      4.87      0.00
    4   10    2     10.31      0.00
    5   10    2     -6.98      0.00
    6   10    2      1.78      0.00
    7   10    2      4.53      0.00
    8   10    2     -2.83      0.00
    9   10    2      3.22      0.00
   10   10    2      7.24      0.00
   11   10    2     -1.19      0.00
   12   10    2    -10.53      0.00
   13   10    2     -3.36      0.00
   14   10    2      4.64      0.00
   15   10    2      4.95      0.00
   16   10    2     -1.57      0.00
   17   10    2      0.43      0.00
   18   10    2     -0.49      0.00
   19   10    2     -0.47      0.00
  -20   11    2      2.32      0.00
  -19   11    2     -1.20      0.00
  -18   11    2      0.26      0.00
  -17   11    2      3.57      0.00
  -16   11    2      7.16      0.00
  -15   11    2      4.11      0.00
  -14   11    2     -6.99      0.00
  -13   11    2      4.86      0.00
  -12   11    2      4.20      0.00
  -11   11    2      6.14      0.00
  -10   11    2     -2.13      0.00
   -9   11    2    -14.75      0.00
   -8   11    2     -9.42      0.00
   -7   11    2      9.80      0.00
   -6   11    2      8.94      0.00
   -5   11    2      6.20      0.00
   -4   11    2    -25.40      0.00
   -3   11    2     14.44      0.00
   -2   11    2     10.63      0.00
   -1   11    2    -11.35      0.00
    0   11    2    -24.57      0.00
    1   11    2      6.41      0.00
    2   11    2    -14.36      0.00
    3   11    2    -11.07      0.00
    4   11    2     19.44      0.00
    5   11    2      9.60      0.00
    6   11    2    -15.20      0.00
    7   11    2     -0.87      0.00
    8   11    2      5.54      0.00
    9   11    2      0.66      0.00
   10   11    2     -6.88      0.00
   11   11    2     -1.41      0.00
   12   11    2      7.17      0.00
   13   11    2     -6.36      0.00
   14   11    2     -1.30      0.00
   15   11    2      5.36      0.00
   16   11    2      1.54      0.00
   17   11    2     -2.11      0.00
   18   11    2     -1.53      0.00
  -20   12    2      2.02      0.00
  -19   12    2     -0.64      0.00
  -18   12    2      0.46      0.00
  -17   12    2      5.35      0.00
  -16   12    2      1.41      0.00
  -15   12    2     -0.11      0.00
  -14   12    2      2.55      0.00
  -13   12    2     -3.79      0.00
  -12   12    2      8.10      0.00
  -11   12    2      1.34      0.00
  -10   12    2     -0.19      0.00
   -9   12    2     -7.73      0.00
   -8   12    2     -2.81      0.00
   -7   12    2     12.36      0.00
   -6   12    2      2.13      0.00
   -5   12    2    -17.50      0.00
   -4   12    2     19.69      0.00
   -3   12    2      7.77      0.00
   -2   12    2      6.09      0.00
   -1   12    2    -21.76      0.00
    0   12    2     -7.41      0.00
    1   12    2      7.40      0.00
    2   12    2     -0.79      0.00
    3   12    2     -1.38      0.00
    4   12    2     -2.65      0.00
    5   12    2      9.75      0.00
    6   12    2     -3.35      0.00
    7   12    2    -18.37      0.00
    8   12    2      1.74      0.00
    9   12    2      0.44      0.00
   10   12    2      3.15      0.00
   11   12    2      0.99      0.00
   12   12    2     -1.85      0.00
   13   12    2      3.69      0.00
   14   12    2     -3.19      0.00
   15   12    2     -0.04      0.00
   16   12    2      1.18      0.00
   17   12    2     -1.37      0.00
   18   12    2     -1.63      0.00
  -20   13    2     -0.96      0.00
  -19   13    2      1.72      0.00
  -18   13    2     -3.66      0.00
  -17   13    2      1.17      0.00
  -16   13    2      5.40      0.00
  -15   13    2     -0.81      0.00
  -14   13    2     -2.46      0.00
  -13   13    2      4.59      0.00
  -12   13    2      0.94      0.00
  -11   13    2      2.28      0.00
  -10   13    2     -3.16      0.00
   -9   13    2      8.07      0.00
   -8   13    2     -1.68      0.00
   -7   13    2     -8.29      0.00
   -6   13    2     -2.40      0.00
   -5   13    2      9.04      0.00
   -4   13    2      2.92      0.00
   -3   13    2     10.42      0.00
   -2   13    2     -5.77      0.00
   -1   13    2      7.75      0.00
    0   13    2      5.08      0.00
    1   13    2      0.41      0.00
    2   13    2     10.37      0.00
    3   13    2     -5.25      0.00
    4   13    2      0.11      0.00
    5   13    2    -10.39      0.00
    6   13    2     -9.20      0.00
    7   13    2      1.57      0.00
    8   13    2     -6.34      0.00
    9   13    2      5.61      0.00
   10   13    2      2.45      0.00
   11   13    2      1.84      0.00
   12   13    2      2.06      0.00
   13   13    2     -3.24      0.00
   14   13    2     -2.71      0.00
   15   13    2      0.26      0.00
   16   13    2      1.00      0.00
   17   13    2     -1.86      0.00
   18   13    2     -1.52      0.00
  -19   14    2     -4.48      0.00
  -18   14    2      0.76      0.00
  -17   14    2      1.23      0.00
  -16   14    2      0.15      0.00
  -15   14    2     -1.72      0.00
  -14   14    2      4.15      0.00
  -13   14    2      2.68      0.00
  -12   14    2     -6.56      0.00
  -11   14    2     -1.64      0.00
  -10   14    2     10.26      0.00
   -9   14    2      3.81      0.00
   -8   14    2     -1.39      0.00
   -7   14    2    -19.53      0.00
   -6   14    2     -0.05      0.00
   -5   14    2      2.83      0.00
   -4   14    2      8.39      0.00
   -3   14    2     10.78      0.00
   -2   14    2      0.20      0.00
   -1   14    2      3.32      0.00
    0   14    2     24.60      0.00
    1   14    2     14.59      0.00
    2   14    2    -15.63      0.00
    3   14    2     -4.81      0.00
    4   14    2     -1.15      0.00
    5   14    2     -3.37      0.00
    6   14    2     -8.43      0.00
    7   14    2     -4.25      0.00
    8   14    2     11.81      0.00
    9   14    2     -2.25      0.00
   10   14    2     -0.07      0.00
   11   14    2      4.20      0.00
   12   14    2     -1.62      0.00
   13   14    2     -4.54      0.00
   14   14    2     -0.10      0.00
   15   14    2      0.94      0.00
   16   14    2      0.34      0.00
   17   14    2     -1.37      0.00
   18   14    2     -1.23      0.00
  -19   15    2      1.05      0.00
  -18   15    2     -3.57      0.00
  -17   15    2     -2.16      0.00
  -16   15    2      0.99      0.00
  -15   15    2      5.73      0.00
  -14   15    2     -2.48      0.00
  -13   15    2     -6.16      0.00
  -12   15    2     -2.71      0.00
  -11   15    2      2.01      0.00
  -10   15    2     15.81      0.00
   -9   15    2      0.40      0.00
   -8   15    2    -22.20      0.00
   -7   15    2     -3.34      0.00
   -6   15    2     -5.19      0.00
   -5   15    2     14.54      0.00
   -4   15    2     -8.19      0.00
   -3   15    2     -1.83      0.00
   -2   15    2     32.07      0.00
   -1   15    2      9.64      0.00
    0   15    2     -6.19      0.00
    1   15    2      5.67      0.00
    2   15    2      7.34      0.00
    3   15    2    -10.81      0.00
    4   15    2     -7.45      0.00
    5   15    2      6.32      0.00
    6   15    2     -1.44      0.00
    7   15    2     -0.25      0.00
    8   15    2      0.83      0.00
    9   15    2      5.18      0.00
   10   15    2     -5.16      0.00
   11   15    2     -5.03      0.00
   12   15    2      4.27      0.00
   13   15    2      3.15      0.00
   14   15    2     -5.26      0.00
   15   15    2     -1.56      0.00
   16   15    2      1.51      0.00
   17   15    2      1.48      0.00
  -19   16    2     -1.04      0.00
  -18   16    2     -3.25      0.00
  -17   16    2     -0.65      0.00
  -16   16    2      2.83      0.00
  -15   16    2     -2.91      0.00
  -14   16    2     -2.16      0.00
  -13   16    2     -1.66      0.00
  -12   16    2      2.54      0.00
  -11   16    2      3.38      0.00
  -10   16    2     -2.71      0.00
   -9   16    2      2.62      0.00
   -8   16    2     -8.19      0.00
   -7   16    2    -12.44      0.00
   -6   16    2     13.43      0.00
   -5   16    2    -14.27      0.00
   -4   16    2      2.51      0.00
   -3   16    2     12.69      0.00
   -2   16    2     11.52      0.00
   -1   16    2      1.71      0.00
    0   16    2    -15.00      0.00
    1   16    2      3.87      0.00
    2   16    2     14.82      0.00
    3   16    2     -1.37      0.00
    4   16    2     -7.65      0.00
    5   16    2      1.37      0.00
    6   16    2     13.95      0.00
    7   16    2     -7.87      0.00
    8   16    2    -10.27      0.00
    9   16    2      1.53      0.00
   10   16    2      1.59      0.00
   11   16    2     -1.31      0.00
   12   16    2      2.09      0.00
   13   16    2      0.21      0.00
   14   16    2     -0.89      0.00
   15   16    2     -1.56      0.00
   16   16    2      1.35      0.00
   17   16    2      1.77      0.00
  -18   17    2      0.24      0.00
  -17   17    2     -3.48      0.00
  -16   17    2     -1.30      0.00
  -15   17    2      1.30      0.00
  -14   17    2     -0.78      0.00
  -13   17    2      0.47      0.00
  -12   17    2     -0.29      0.00
  -11   17    2     -1.32      0.00
  -10   17    2     -4.57      0.00
   -9   17    2     -0.03      0.00
   -8   17    2      7.40      0.00
   -7   17    2     -3.61      0.00
   -6   17    2    -13.93      0.00
   -5   17    2      9.59      0.00
   -4   17    2     -0.54      0.00
   -3   17    2     -1.36      0.00
   -2   17    2     -6.68      0.00
   -1   17    2      2.12      0.00
    0   17    2     -1.83      0.00
    1   17    2     -1.86      0.00
    2   17    2      8.85      0.00
    3   17    2      5.26      0.00
    4   17    2      1.12      0.00
    5   17    2      4.33      0.00
    6   17    2     -9.27      0.00
    7   17    2     -3.50      0.00
    8   17    2     -4.19      0.00
    9   17    2     -4.47      0.00
   10   17    2      6.87      0.00
   11   17    2      0.82      0.00
   12   17    2     -2.09      0.00
   13   17    2      3.70      0.00
   14   17    2     -1.77      0.00
   15   17    2     -2.01      0.00
   16   17    2      1.52      0.00
  -18   18    2     -1.84      0.00
  -17   18    2      0.18      0.00
  -16   18    2     -0.34      0.00
  -15   18    2     -3.25      0.00
  -14   18    2     -1.30      0.00
  -13   18    2      3.83      0.00
  -12   18    2     -2.03      0.00
  -11   18    2     -7.63      0.00
  -10   18    2      1.38      0.00
   -9   18    2      3.98      0.00
   -8   18    2      8.28      0.00
   -7   18    2      1.58      0.00
   -6   18    2     -5.05      0.00
   -5   18    2     -7.02      0.00
   -4   18    2     -7.02      0.00
   -3   18    2      0.17      0.00
   -2   18    2      2.71      0.00
   -1   18    2    -15.19      0.00
    0   18    2      5.25      0.00
    1   18    2      6.57      0.00
    2   18    2      0.76      0.00
    3   18    2      2.95      0.00
    4   18    2     -0.95      0.00
    5   18    2     -0.73      0.00
    6   18    2     -1.47      0.00
    7   18    2    -11.79      0.00
    8   18    2     -2.41      0.00
    9   18    2      6.65      0.00
   10   18    2     -0.55      0.00
   11   18    2      2.25      0.00
   12   18    2     -1.42      0.00
   13   18    2     -3.25      0.00
   14   18    2      1.64      0.00
   15   18    2      0.32      0.00
   16   18    2     -0.79      0.00
  -17   19    2     -3.12      0.00
  -16   19    2     -3.07      0.00
  -15   19    2      0.10      0.00
  -14   19    2      1.22      0.00
  -13   19    2     -0.62      0.00
  -12   19    2     -1.22      0.00
  -11   19    2     -6.49      0.00
  -10   19    2      1.89      0.00
   -9   19    2     16.81      0.00
   -8   19    2      2.24      0.00
   -7   19    2     -4.11      0.00
   -6   19    2     -5.30      0.00
   -5   19    2     -4.95      0.00
   -4   19    2      3.36      0.00
   -3   19    2    -14.89      0.00
   -2   19    2     -2.87      0.00
   -1   19    2     16.55      0.00
    0   19    2     -6.56      0.00
    1   19    2     -5.91      0.00
    2   19    2     -1.19      0.00
    3   19    2      0.96      0.00
    4   19    2      1.53      0.00
    5   19    2     -3.60      0.00
    6   19    2      0.25      0.00
    7   19    2     -3.68      0.00
    8   19    2     -0.96      0.00
    9   19    2      2.33      0.00
   10   19    2      2.24      0.00
   11   19    2     -4.71      0.00
   12   19    2     -2.40      0.00
   13   19    2      0.64      0.00
   14   19    2     -0.19      0.00
   15   19    2     -1.32      0.00
   16   19    2     -0.38      0.00
  -17   20    2     -1.60      0.00
  -16   20    2     -0.26      0.00
  -15   20    2      0.25      0.00
  -14   20    2     -2.37      0.00
  -13   20    2     -1.32      0.00
  -12   20    2      0.99      0.00
  -11   20    2      4.08      0.00
  -10   20    2     -1.55      0.00
   -9   20    2      3.42      0.00
   -8   20    2      8.03      0.00
   -7   20    2     -6.86      0.00
   -6   20    2     -4.44      0.00
   -5   20    2      5.99      0.00
   -4   20    2    -10.13      0.00
   -3   20    2     -0.25      0.00
   -2   20    2      6.30      0.00
   -1   20    2      5.50      0.00
    0   20    2     -6.80      0.00
    1   20    2    -14.23      0.00
    2   20    2      1.66      0.00
    3   20    2      6.16      0.00
    4   20    2     -3.06      0.00
    5   20    2     -2.59      0.00
    6   20    2      2.71      0.00
    7   20    2     11.43      0.00
    8   20    2     -7.38      0.00
    9   20    2     -5.87      0.00
   10   20    2     -0.48      0.00
   11   20    2      0.85      0.00
   12   20    2     -1.16      0.00
   13   20    2     -1.74      0.00
   14   20    2     -1.48      0.00
   15   20    2      0.45      0.00
  -16   21    2     -2.18      0.00
  -15   21    2     -2.56      0.00
  -14   21    2      1.67      0.00
  -13   21    2      0.65      0.00
  -12   21    2      0.34      0.00
  -11   21    2      0.42      0.00
  -10   21    2     -0.23      0.00
   -9   21    2     -4.91      0.00
   -8   21    2      5.19      0.00
   -7   21    2      4.90      0.00
   -6   21    2     -4.25      0.00
   -5   21    2     -6.12      0.00
   -4   21    2     13.85      0.00
   -3   21    2      3.21      0.00
   -2   21    2     -7.88      0.00
   -1   21    2     -3.11      0.00
    0   21    2      5.16      0.00
    1   21    2     -7.63      0.00
    2   21    2     -1.77      0.00
    3   21    2      2.00      0.00
    4   21    2     -1.80      0.00
    5   21    2      5.59      0.00
    6   21    2     10.02      0.00
    7   21    2     -4.63      0.00
    8   21    2     -0.46      0.00
    9   21    2     -4.89      0.00
   10   21    2      1.08      0.00
   11   21    2     -0.04      0.00
   12   21    2     -1.41      0.00
   13   21    2     -0.50      0.00
   14   21    2      0.91      0.00
   15   21    2     -1.06      0.00
  -16   22    2     -1.14      0.00
  -15   22    2      1.29      0.00
  -14   22    2     -1.08      0.00
  -13   22    2     -0.11      0.00
  -12   22    2     -0.48      0.00
  -11   22    2     -0.86      0.00
  -10   22    2     -2.13      0.00
   -9   22    2     -1.34      0.00
   -8   22    2     -1.64      0.00
   -7   22    2      8.54      0.00
   -6   22    2      1.83      0.00
   -5   22    2      7.53      0.00
   -4   22    2     -3.34      0.00
   -3   22    2     -2.48      0.00
   -2   22    2      2.75      0.00
   -1   22    2     -0.51      0.00
    0   22    2     -3.20      0.00
    1   22    2      7.15      0.00
    2   22    2     -6.67      0.00
    3   22    2      0.42      0.00
    4   22    2      5.96      0.00
    5   22    2      1.86      0.00
    6   22    2      4.68      0.00
    7   22    2      5.46      0.00
    8   22    2     -6.05      0.00
    9   22    2     -1.05      0.00
   10   22    2     -0.51      0.00
   11   22    2      3.33      0.00
   12   22    2     -0.09      0.00
   13   22    2      1.10      0.00
   14   22    2     -0.69      0.00
  -15   23    2     -2.85      0.00
  -14   23    2      0.68      0.00
  -13   23    2     -0.14      0.00
  -12   23    2      1.05      0.00
  -11   23    2     -1.78      0.00
  -10   23    2     -4.84      0.00
   -9   23    2     -0.24      0.00
   -8   23    2      6.92      0.00
   -7   23    2      1.41      0.00
   -6   23    2      7.57      0.00
   -5   23    2     -5.23      0.00
   -4   23    2      2.11      0.00
   -3   23    2     -0.21      0.00
   -2   23    2     -3.98      0.00
   -1   23    2      2.61      0.00
    0   23    2      8.37      0.00
    1   23    2      0.49      0.00
    2   23    2      0.57      0.00
    3   23    2     -4.51      0.00
    4   23    2      4.64      0.00
    5   23    2      6.75      0.00
    6   23    2      2.62      0.00
    7   23    2      1.27      0.00
    8   23    2      0.43      0.00
    9   23    2     -1.66      0.00
   10   23    2      2.69      0.00
   11   23    2      1.49      0.00
   12   23    2      4.11      0.00
   13   23    2     -1.34      0.00
  -14   24    2     -1.81      0.00
  -13   24    2      1.23      0.00
  -12   24    2     -0.61      0.00
  -11   24    2      0.23      0.00
  -10   24    2     -0.79      0.00
   -9   24    2     -2.34      0.00
   -8   24    2      1.53      0.00
   -7   24    2      7.19      0.00
   -6   24    2     -6.15      0.00
   -5   24    2      2.03      0.00
   -4   24    2      0.82      0.00
   -3   24    2     -0.85      0.00
   -2   24    2     -1.13      0.00
   -1   24    2      7.44      0.00
    0   24    2      5.65      0.00
    1   24    2     -1.41      0.00
    2   24    2     -0.74      0.00
    3   24    2      4.49      0.00
    4   24    2      2.67      0.00
    5   24    2      0.54      0.00
    6   24    2      0.93      0.00
    7   24    2      5.39      0.00
    8   24    2      4.42      0.00
    9   24    2     -1.08      0.00
   10   24    2     -0.94      0.00
   11   24    2      3.49      0.00
   12   24    2      0.10      0.00
   13   24    2      1.48      0.00
  -13   25    2      0.67      0.00
  -12   25    2      1.36      0.00
  -11   25    2     -0.30      0.00
  -10   25    2     -1.10      0.00
   -9   25    2     -2.23      0.00
   -8   25    2     -0.29      0.00
   -7   25    2      0.83      0.00
   -6   25    2      3.56      0.00
   -5   25    2     -6.33      0.00
   -4   25    2      0.41      0.00
   -3   25    2      7.47      0.00
   -2   25    2      2.61      0.00
   -1   25    2     -4.70      0.00
    0   25    2      4.48      0.00
    1   25    2      5.00      0.00
    2   25    2      0.37      0.00
    3   25    2      4.57      0.00
    4   25    2     -2.88      0.00
    5   25    2     -1.79      0.00
    6   25    2      7.09      0.00
    7   25    2      5.99      0.00
    8   25    2     -1.06      0.00
    9   25    2     -0.98      0.00
   10   25    2      1.93      0.00
   11   25    2      1.23      0.00
   12   25    2      1.51      0.00
  -13   26    2      1.39      0.00
  -12   26    2      0.60      0.00
  -11   26    2     -2.00      0.00
  -10   26    2      1.47      0.00
   -9   26    2     -0.69      0.00
   -8   26    2     -4.30      0.00
   -7   26    2     -0.31      0.00
   -6   26    2      1.21      0.00
   -5   26    2      2.49      0.00
   -4   26    2      2.32      0.00
   -3   26    2     -0.39      0.00
   -2   26    2     -0.85      0.00
   -1   26    2      1.09      0.00
    0   26    2     -0.29      0.00
    1   26    2      3.73      0.00
    2   26    2      2.57      0.00
    3   26    2     -2.03      0.00
    4   26    2      3.21      0.00
    5   26    2     -1.33      0.00
    6   26    2      0.32      0.00
    7   26    2      4.55      0.00
    8   26    2      4.57      0.00
    9   26    2     -0.89      0.00
   10   26    2     -1.07      0.00
   11   26    2      2.17      0.00
  -12   27    2      1.00      0.00
  -11   27    2      0.95      0.00
  -10   27    2     -3.07      0.00
   -9   27    2     -1.15      0.00
   -8   27    2     -1.32      0.00
   -7   27    2      1.20      0.00
   -6   27    2      2.97      0.00
   -5   27    2      1.50      0.00
   -4   27    2     -2.61      0.00
   -3   27    2      0.75      0.00
   -2   27    2     -0.19      0.00
   -1   27    2     -2.22      0.00
    0   27    2     -1.20      0.00
    1   27    2      2.27      0.00
    2   27    2      3.35      0.00
    3   27    2      0.41      0.00
    4   27    2     -2.32      0.00
    5   27    2      0.37      0.00
    6   27    2     -0.07      0.00
    7   27    2      4.07      0.00
    8   27    2      2.66      0.00
    9   27    2      1.44      0.00
   10   27    2     -1.42      0.00
  -10   28    2     -1.95      0.00
   -9   28    2     -1.94      0.00
   -8   28    2      1.56      0.00
   -7   28    2      1.01      0.00
   -6   28    2      2.32      0.00
   -5   28    2     -1.85      0.00
   -4   28    2     -0.43      0.00
   -3   28    2     -0.46      0.00
   -2   28    2      0.18      0.00
   -1   28    2     -2.12      0.00
    0   28    2      0.65      0.00
    1   28    2      0.27      0.00
    2   28    2      0.08      0.00
    3   28    2     -0.31      0.00
    4   28    2     -0.23      0.00
    5   28    2      0.01      0.00
    6   28    2      0.81      0.00
    7   28    2      0.11      0.00
    8   28    2      3.98      0.00
    9   28    2      0.02      0.00
   -9   29    2     -2.41      0.00
   -8   29    2      0.86      0.00
   -7   29    2      2.25      0.00
   -6   29    2      0.01      0.00
   -5   29    2      0.98      0.00
   -4   29    2     -2.51      0.00
   -3   29    2      0.28      0.00
   -2   29    2      0.46      0.00
   -1   29    2      0.95      0.00
    0   29    2     -1.84      0.00
    1   29    2     -0.62      0.00
    2   29    2     -2.27      0.00
    3   29    2      1.98      0.00
    4   29    2      2.59      0.00
    5   29    2     -2.48      0.00
    6   29    2     -1.38      0.00
    7   29    2      3.54      0.00
    8   29    2     -1.04      0.00
   -8   30    2     -1.72      0.00
   -7   30    2     -0.12      0.00
   -6   30    2      1.17      0.00
   -5   30    2     -0.72      0.00
   -4   30    2      0.80      0.00
   -3   30    2      0.05      0.00
   -2   30    2      0.41      0.00
   -1   30    2     -0.80      0.00
    0   30    2      1.92      0.00
    1   30    2     -1.66      0.00
    2   30    2     -1.26      0.00
    3   30    2     -0.91      0.00
    4   30    2      2.81      0.00
    5   30    2      0.38      0.00
    6   30    2     -2.68      0.00
   -6   31    2      1.78      0.00
   -5   31    2      1.89      0.00
   -4   31    2     -2.11      0.00
   -3   31    2     -0.48      0.00
   -2   31    2      1.96      0.00
   -1   31    2      2.18      0.00
    0   31    2     -1.98      0.00
    1   31    2     -0.80      0.00
    2   31    2     -1.53      0.00
    3   31    2      0.28      0.00
    4   31    2      0.24      0.00
  -21    0    3     -1.26      0.00
  -19    0    3     -7.22      0.00
  -17    0    3      7.40      0.00
  -15    0    3      0.57      0.00
  -13    0    3     -6.01      0.00
  -11    0    3    -30.22      0.00
   -9    0    3     34.18      0.00
   -7    0    3     25.31      0.00
   -5    0    3     -3.50      0.00
   -3    0    3    -52.35      0.00
   -1    0    3   -145.60      0.00
    1    0    3     50.25      0.00
    3    0    3     -7.46      0.00
    5    0    3     25.11      0.00
    7    0    3    -31.08      0.00
    9    0    3     17.52      0.00
   11    0    3     -0.47      0.00
   13    0    3      4.59      0.00
   15    0    3     -6.24      0.00
   17    0    3      3.66      0.00
   19    0    3      3.28      0.00
  -22    1    3     -1.17      0.00
  -21    1    3     -2.03      0.00
  -20    1    3     -0.57      0.00
  -19    1    3      1.67      0.00
  -18    1    3     -4.27      0.00
  -17    1    3      2.13      0.00
  -16    1    3      5.95      0.00
  -15    1    3     -3.78      0.00
  -14    1    3     -7.63      0.00
  -13    1    3     -7.58      0.00
  -12    1    3    -11.50      0.00
  -11    1    3     -5.81      0.00
  -10    1    3      7.10      0.00
   -9    1    3     18.47      0.00
   -8    1    3     17.51      0.00
   -7    1    3    -20.24      0.00
   -6    1    3     15.39      0.00
   -5    1    3      7.59      0.00
   -4    1    3    -47.48      0.00
   -3    1    3   -125.88      0.00
   -2    1    3    -18.78      0.00
   -1    1    3    104.42      0.00
    0    1    3   -100.13      0.00
    1    1    3    -71.40      0.00
    2    1    3     20.99      0.00
    3    1    3    -42.96      0.00
    4    1    3     13.55      0.00
    5    1    3     -5.66      0.00
    6    1    3     -8.51      0.00
    7    1    3      0.61      0.00
    8    1    3      5.78      0.00
    9    1    3      8.69      0.00
   10    1    3     -5.04      0.00
   11    1    3     -8.42      0.00
   12    1    3      8.73      0.00
   13    1    3     -1.56      0.00
   14    1    3     -5.43      0.00
   15    1    3     -1.02      0.00
   16    1    3      0.43      0.00
   17    1    3     -0.54      0.00
   18    1    3      4.24      0.00
   19    1    3      0.80      0.00
  -22    2    3      0.46      0.00
  -21    2    3     -1.57      0.00
  -20    2    3     -0.08      0.00
  -19    2    3      0.40      0.00
  -18    2    3     -1.04      0.00
  -17    2    3     -1.90      0.00
  -16    2    3      1.00      0.00
  -15    2    3     -6.14      0.00
  -14    2    3     -9.04      0.00
  -13    2    3     -4.58      0.00
  -12    2    3      2.40      0.00
  -11    2    3      9.69      0.00
  -10    2    3    -12.70      0.00
   -9    2    3      8.88      0.00
   -8    2    3     -2.89      0.00
   -7    2    3     -8.67      0.00
   -6    2    3      2.86      0.00
   -5    2    3    -23.01      0.00
   -4    2    3    -64.62      0.00
   -3    2    3     24.82      0.00
   -2    2    3    -34.20      0.00
   -1    2    3    -18.00      0.00
    0    2    3    -10.13      0.00
    1    2    3    -92.85      0.00
    2    2    3    -87.45      0.00
    3    2    3     13.83      0.00
    4    2    3    -27.58      0.00
    5    2    3      6.04      0.00
    6    2    3     12.13      0.00
    7    2    3      5.74      0.00
    8    2    3    -10.89      0.00
    9    2    3     -4.77      0.00
   10    2    3      4.47      0.00
   11    2    3     -4.04      0.00
   12    2    3     -7.09      0.00
   13    2    3      4.40      0.00
   14    2    3     -3.53      0.00
   15    2    3     -2.29      0.00
   16    2    3     -1.57      0.00
   17    2    3      2.48      0.00
   18    2    3     -0.76      0.00
   19    2    3      0.93      0.00
  -22    3    3     -1.04      0.00
  -21    3    3      0.67      0.00
  -20    3    3      0.21      0.00
  -19    3    3     -1.36      0.00
  -18    3    3     -0.45      0.00
  -17    3    3     -5.41      0.00
  -16    3    3     -8.82      0.00
  -15    3    3      0.09      0.00
  -14    3    3     -0.70      0.00
  -13    3    3      4.56      0.00
  -12    3    3      4.85      0.00
  -11    3    3     -8.58      0.00
  -10    3    3      4.99      0.00
   -9    3    3    -33.50      0.00
   -8    3    3     -3.63      0.00
   -7    3    3      4.59      0.00
   -6    3    3     -9.02      0.00
   -5    3    3     11.12      0.00
   -4    3    3    -19.40      0.00
   -3    3    3    -59.89      0.00
   -2    3    3     55.44      0.00
   -1    3    3    -34.57      0.00
    0    3    3    -68.16      0.00
    1    3    3    -92.73      0.00
    2    3    3    -25.20      0.00
    3    3    3    -31.96      0.00
    4    3    3     -5.20      0.00
    5    3    3     13.56      0.00
    6    3    3      2.85      0.00
    7    3    3    -11.70      0.00
    8    3    3      5.22      0.00
    9    3    3     -6.72      0.00
   10    3    3     -7.93      0.00
   11    3    3     -1.88      0.00
   12    3    3     -0.89      0.00
   13    3    3     -0.61      0.00
   14    3    3     -1.25      0.00
   15    3    3     -7.02      0.00
   16    3    3      2.74      0.00
   17    3    3     -3.93      0.00
   18    3    3      1.91      0.00
   19    3    3      2.75      0.00
  -22    4    3      0.76      0.00
  -21    4    3     -1.49      0.00
  -20    4    3     -0.70      0.00
  -19    4    3     -0.76      0.00
  -18    4    3     -8.48      0.00
  -17    4    3     -3.30      0.00
  -16    4    3     -0.32      0.00
  -15    4    3     -1.40      0.00
  -14    4    3      6.18      0.00
  -13    4    3      6.66      0.00
  -12    4    3     -0.96      0.00
  -11    4    3    -15.63      0.00
  -10    4    3    -30.54      0.00
   -9    4    3      4.13      0.00
   -8    4    3     -8.44      0.00
   -7    4    3      4.67      0.00
   -6    4    3      8.84      0.00
   -5    4    3    -10.83      0.00
   -4    4    3    -19.51      0.00
   -3    4    3      2.55      0.00
   -2    4    3     -4.37      0.00
   -1    4    3    -26.22      0.00
    0    4    3    -95.35      0.00
    1    4    3     13.04      0.00
    2    4    3    -24.90      0.00
    3    4    3    -21.60      0.00
    4    4    3    -14.00      0.00
    5    4    3    -10.92      0.00
    6    4    3     22.40      0.00
    7    4    3     -4.68      0.00
    8    4    3    -21.01      0.00
    9    4    3      0.08      0.00
   10    4    3     -0.02      0.00
   11    4    3      1.67      0.00
   12    4    3     -7.48      0.00
   13    4    3     -6.65      0.00
   14    4    3      3.91      0.00
   15    4    3      1.92      0.00
   16    4    3     -9.39      0.00
   17    4    3      1.92      0.00
   18    4    3      0.63      0.00
   19    4    3      1.45      0.00
  -21    5    3     -3.16      0.00
  -20    5    3     -1.67      0.00
  -19    5    3      1.69      0.00
  -18    5    3     -1.74      0.00
  -17    5    3     -9.43      0.00
  -16    5    3      3.31      0.00
  -15    5    3      9.69      0.00
  -14    5    3      0.10      0.00
  -13    5    3     -7.77      0.00
  -12    5    3     -4.91      0.00
  -11    5    3    -17.26      0.00
  -10    5    3    -18.21      0.00
   -9    5    3      7.30      0.00
   -8    5    3     14.86      0.00
   -7    5    3    -12.38      0.00
   -6    5    3    -23.91      0.00
   -5    5    3     -0.36      0.00
   -4    5    3     27.35      0.00
   -3    5    3    -32.04      0.00
   -2    5    3    -64.73      0.00
   -1    5    3     23.08      0.00
    0    5    3     40.09      0.00
    1    5    3    -47.34      0.00
    2    5    3     -5.56      0.00
    3    5    3    -15.98      0.00
    4    5    3    -13.27      0.00
    5    5    3      7.23      0.00
    6    5    3    -12.51      0.00
    7    5    3     -3.48      0.00
    8    5    3     -4.90      0.00
    9    5    3      9.00      0.00
   10    5    3      1.05      0.00
   11    5    3    -18.70      0.00
   12    5    3      1.37      0.00
   13    5    3      6.87      0.00
   14    5    3     -2.63      0.00
   15    5    3     -6.01      0.00
   16    5    3      0.99      0.00
   17    5    3     -2.57      0.00
   18    5    3     -1.18      0.00
   19    5    3      1.15      0.00
  -21    6    3     -0.91      0.00
  -20    6    3     -0.57      0.00
  -19    6    3      0.54      0.00
  -18    6    3      0.98      0.00
  -17    6    3     -0.45      0.00
  -16    6    3     -1.59      0.00
  -15    6    3      4.21      0.00
  -14    6    3     -2.95      0.00
  -13    6    3    -10.64      0.00
  -12    6    3     -9.92      0.00
  -11    6    3      3.74      0.00
  -10    6    3     -1.04      0.00
   -9    6    3    -13.86      0.00
   -8    6    3     14.20      0.00
   -7    6    3    -17.02      0.00
   -6    6    3    -21.52      0.00
   -5    6    3     -4.44      0.00
   -4    6    3    -16.53      0.00
   -3    6    3     -7.34      0.00
   -2    6    3     22.13      0.00
   -1    6    3     -8.59      0.00
    0    6    3      6.76      0.00
    1    6    3     11.10      0.00
    2    6    3     -9.57      0.00
    3    6    3     -5.24      0.00
    4    6    3     -8.45      0.00
    5    6    3    -15.68      0.00
    6    6    3     -1.54      0.00
    7    6    3      8.46      0.00
    8    6    3     13.03      0.00
    9    6    3    -15.67      0.00
   10    6    3     -5.64      0.00
   11    6    3      5.03      0.00
   12    6    3     -2.82      0.00
   13    6    3      5.08      0.00
   14    6    3     -2.59      0.00
   15    6    3     -4.08      0.00
   16    6    3     -3.30      0.00
   17    6    3      0.15      0.00
   18    6    3      0.91      0.00
   19    6    3     -0.80      0.00
  -21    7    3      0.20      0.00
  -20    7    3     -0.09      0.00
  -19    7    3      2.06      0.00
  -18    7    3      2.28      0.00
  -17    7    3      2.40      0.00
  -16    7    3     -5.55      0.00
  -15    7    3     -7.63      0.00
  -14    7    3      1.52      0.00
  -13    7    3     -1.51      0.00
  -12    7    3      0.50      0.00
  -11    7    3      0.52      0.00
  -10    7    3     -2.20      0.00
   -9    7    3      1.71      0.00
   -8    7    3    -24.05      0.00
   -7    7    3     -0.26      0.00
   -6    7    3    -28.47      0.00
   -5    7    3    -12.19      0.00
   -4    7    3     19.77      0.00
   -3    7    3      6.84      0.00
   -2    7    3    -30.42      0.00
   -1    7    3     16.01      0.00
    0    7    3     16.73      0.00
    1    7    3      1.22      0.00
    2    7    3      1.79      0.00
    3    7    3     11.41      0.00
    4    7    3    -21.29      0.00
    5    7    3    -13.21      0.00
    6    7    3     16.32      0.00
    7    7    3      5.42      0.00
    8    7    3     -7.82      0.00
    9    7    3      5.31      0.00
   10    7    3     -1.89      0.00
   11    7    3      1.53      0.00
   12    7    3     -0.32      0.00
   13    7    3     -2.10      0.00
   14    7    3      3.96      0.00
   15    7    3     -5.97      0.00
   16    7    3     -1.41      0.00
   17    7    3     -0.20      0.00
   18    7    3     -0.66      0.00
   19    7    3      1.50      0.00
  -21    8    3      0.30      0.00
  -20    8    3      0.41      0.00
  -19    8    3      1.62      0.00
  -18    8    3      2.22      0.00
  -17    8    3     -4.52      0.00
  -16    8    3     -1.42      0.00
  -15    8    3     -3.28      0.00
  -14    8    3     -0.99      0.00
  -13    8    3     11.05      0.00
  -12    8    3      6.29      0.00
  -11    8    3     -2.98      0.00
  -10    8    3     -6.17      0.00
   -9    8    3    -13.06      0.00
   -8    8    3     -3.44      0.00
   -7    8    3    -28.15      0.00
   -6    8    3      8.41      0.00
   -5    8    3      8.43      0.00
   -4    8    3     -5.42      0.00
   -3    8    3    -26.79      0.00
   -2    8    3     14.57      0.00
   -1    8    3      7.88      0.00
    0    8    3     -7.16      0.00
    1    8    3     10.60      0.00
    2    8    3      8.20      0.00
    3    8    3     -4.96      0.00
    4    8    3      2.13      0.00
    5    8    3     -9.44      0.00
    6    8    3     -1.69      0.00
    7    8    3     13.07      0.00
    8    8    3      4.72      0.00
    9    8    3     -3.43      0.00
   10    8    3     -0.94      0.00
   11    8    3      1.64      0.00
   12    8    3      2.82      0.00
   13    8    3     -8.17      0.00
   14    8    3     -1.54      0.00
   15    8    3      6.36      0.00
   16    8    3     -1.52      0.00
   17    8    3     -1.29      0.00
   18    8    3      0.22      0.00
   19    8    3      0.39      0.00
  -21    9    3     -1.29      0.00
  -20    9    3     -2.61      0.00
  -19    9    3      1.04      0.00
  -18    9    3      4.68      0.00
  -17    9    3      0.23      0.00
  -16    9    3     -6.58      0.00
  -15    9    3      6.25      0.00
  -14    9    3     10.09      0.00
  -13    9    3     -0.68      0.00
  -12    9    3      4.04      0.00
  -11    9    3      4.22      0.00
  -10    9    3    -10.78      0.00
   -9    9    3    -16.84      0.00
   -8    9    3     -8.43      0.00
   -7    9    3     16.30      0.00
   -6    9    3     -6.20      0.00
   -5    9    3     -1.37      0.00
   -4    9    3    -10.76      0.00
   -3    9    3      4.28      0.00
   -2    9    3     -7.17      0.00
   -1    9    3     -2.03      0.00
    0    9    3      9.83      0.00
    1    9    3    -10.36      0.00
    2    9    3      9.68      0.00
    3    9    3     -2.09      0.00
    4    9    3     -4.65      0.00
    5    9    3      6.44      0.00
    6    9    3      2.22      0.00
    7    9    3      0.17      0.00
    8    9    3     -2.00      0.00
    9    9    3      3.54      0.00
   10    9    3      8.14      0.00
   11    9    3     -7.88      0.00
   12    9    3    -10.09      0.00
   13    9    3      6.48      0.00
   14    9    3      3.66      0.00
   15    9    3      0.55      0.00
   16    9    3      0.43      0.00
   17    9    3      0.59      0.00
   18    9    3     -1.35      0.00
  -21   10    3     -1.79      0.00
  -20   10    3     -0.79      0.00
  -19   10    3      1.79      0.00
  -18   10    3      1.74      0.00
  -17   10    3      3.45      0.00
  -16   10    3      3.61      0.00
  -15   10    3      1.85      0.00
  -14   10    3      1.43      0.00
  -13   10    3      3.08      0.00
  -12   10    3      2.64      0.00
  -11   10    3      5.44      0.00
  -10   10    3     -8.39      0.00
   -9   10    3    -14.03      0.00
   -8   10    3     -0.47      0.00
   -7   10    3     13.60      0.00
   -6   10    3      7.67      0.00
   -5   10    3    -14.23      0.00
   -4   10    3      2.83      0.00
   -3   10    3     -8.08      0.00
   -2   10    3      4.42      0.00
   -1   10    3     21.04      0.00
    0   10    3    -24.66      0.00
    1   10    3     -8.55      0.00
    2   10    3     -0.69      0.00
    3   10    3     20.86      0.00
    4   10    3     -1.22      0.00
    5   10    3     -7.80      0.00
    6   10    3      0.64      0.00
    7   10    3     -2.84      0.00
    8   10    3      4.78      0.00
    9   10    3      3.77      0.00
   10   10    3     -5.40      0.00
   11   10    3     -3.89      0.00
   12   10    3     -0.79      0.00
   13   10    3      3.23      0.00
   14   10    3      6.05      0.00
   15   10    3     -1.65      0.00
   16   10    3     -1.41      0.00
   17   10    3     -0.92      0.00
   18   10    3     -0.34      0.00
  -20   11    3     -2.15      0.00
  -19   11    3     -1.76      0.00
  -18   11    3      3.28      0.00
  -17   11    3      5.05      0.00
  -16   11    3      2.88      0.00
  -15   11    3     -7.15      0.00
  -14   11    3      2.27      0.00
  -13   11    3      6.47      0.00
  -12   11    3      6.66      0.00
  -11   11    3     -1.16      0.00
  -10   11    3     -5.97      0.00
   -9   11    3     -6.46      0.00
   -8   11    3     10.10      0.00
   -7   11    3      7.71      0.00
   -6   11    3     -2.11      0.00
   -5   11    3    -11.58      0.00
   -4   11    3      8.09      0.00
   -3   11    3     24.60      0.00
   -2   11    3     -7.68      0.00
   -1   11    3    -22.44      0.00
    0   11    3     26.62      0.00
    1   11    3    -11.74      0.00
    2   11    3     -4.17      0.00
    3   11    3     13.49      0.00
    4   11    3     12.16      0.00
    5   11    3    -17.08      0.00
    6   11    3    -11.57      0.00
    7   11    3      7.78      0.00
    8   11    3      0.03      0.00
    9   11    3     -6.38      0.00
   10   11    3      1.64      0.00
   11   11    3      7.75      0.00
   12   11    3     -3.07      0.00
   13   11    3     -3.51      0.00
   14   11    3      4.48      0.00
   15   11    3      2.26      0.00
   16   11    3     -3.40      0.00
   17   11    3     -1.11      0.00
   18   11    3     -1.02      0.00
  -20   12    3      0.76      0.00
  -19   12    3     -3.58      0.00
  -18   12    3      1.49      0.00
  -17   12    3      1.64      0.00
  -16   12    3     -1.79      0.00
  -15   12    3      3.43      0.00
  -14   12    3     -4.85      0.00
  -13   12    3      6.98      0.00
  -12   12    3      3.16      0.00
  -11   12    3      3.31      0.00
  -10   12    3     -0.53      0.00
   -9   12    3     -0.16      0.00
   -8   12    3      3.74      0.00
   -7   12    3     -1.50      0.00
   -6   12    3    -12.93      0.00
   -5   12    3     16.44      0.00
   -4   12    3     11.75      0.00
   -3   12    3      0.46      0.00
   -2   12    3     -5.97      0.00
   -1   12    3     14.34      0.00
    0   12    3      5.48      0.00
    1   12    3     16.15      0.00
    2   12    3     -4.04      0.00
    3   12    3     -5.20      0.00
    4   12    3      3.86      0.00
    5   12    3     -4.37      0.00
    6   12    3    -15.97      0.00
    7   12    3     -1.80      0.00
    8   12    3      5.67      0.00
    9   12    3      6.16      0.00
   10   12    3     -0.09      0.00
   11   12    3     -1.90      0.00
   12   12    3      4.96      0.00
   13   12    3     -3.81      0.00
   14   12    3     -2.90      0.00
   15   12    3      2.97      0.00
   16   12    3      0.31      0.00
   17   12    3     -2.73      0.00
   18   12    3     -0.76      0.00
  -20   13    3     -1.16      0.00
  -19   13    3     -2.30      0.00
  -18   13    3     -1.61      0.00
  -17   13    3      3.68      0.00
  -16   13    3     -0.33      0.00
  -15   13    3     -4.98      0.00
  -14   13    3      6.62      0.00
  -13   13    3     -3.46      0.00
  -12   13    3      3.24      0.00
  -11   13    3      0.98      0.00
  -10   13    3     11.26      0.00
   -9   13    3      0.40      0.00
   -8   13    3    -17.40      0.00
   -7   13    3     -3.70      0.00
   -6   13    3     11.04      0.00
   -5   13    3     -1.40      0.00
   -4   13    3      9.45      0.00
   -3   13    3     -2.21      0.00
   -2   13    3     15.61      0.00
   -1   13    3     12.52      0.00
    0   13    3     16.55      0.00
    1   13    3      4.46      0.00
    2   13    3     -5.59      0.00
    3   13    3      0.34      0.00
    4   13    3     -7.33      0.00
    5   13    3     -6.38      0.00
    6   13    3      2.22      0.00
    7   13    3     -1.84      0.00
    8   13    3      5.17      0.00
    9   13    3      0.65      0.00
   10   13    3      3.26      0.00
   11   13    3      2.03      0.00
   12   13    3     -5.41      0.00
   13   13    3     -1.61      0.00
   14   13    3      1.07      0.00
   15   13    3      1.59      0.00
   16   13    3     -1.00      0.00
   17   13    3     -0.23      0.00
  -20   14    3     -2.22      0.00
  -19   14    3     -0.33      0.00
  -18   14    3     -0.71      0.00
  -17   14    3     -1.77      0.00
  -16   14    3     -0.77      0.00
  -15   14    3      4.01      0.00
  -14   14    3     -3.74      0.00
  -13   14    3     -4.76      0.00
  -12   14    3     -3.77      0.00
  -11   14    3     16.22      0.00
  -10   14    3      4.30      0.00
   -9   14    3     -7.29      0.00
   -8   14    3    -14.38      0.00
   -7   14    3     -3.80      0.00
   -6   14    3      7.22      0.00
   -5   14    3      5.55      0.00
   -4   14    3     -1.03      0.00
   -3   14    3     10.77      0.00
   -2   14    3      0.75      0.00
   -1   14    3     24.93      0.00
    0   14    3     11.69      0.00
    1   14    3    -11.19      0.00
    2   14    3     -0.05      0.00
    3   14    3      0.04      0.00
    4   14    3      5.70      0.00
    5   14    3     -2.47      0.00
    6   14    3     -4.56      0.00
    7   14    3      9.24      0.00
    8   14    3     -2.64      0.00
    9   14    3     -0.42      0.00
   10   14    3      0.82      0.00
   11   14    3     -0.21      0.00
   12   14    3     -0.06      0.00
   13   14    3     -0.85      0.00
   14   14    3     -0.14      0.00
   15   14    3      0.14      0.00
   16   14    3      1.29      0.00
   17   14    3      0.08      0.00
  -19   15    3     -3.96      0.00
  -18   15    3     -1.79      0.00
  -17   15    3      0.40      0.00
  -16   15    3      3.89      0.00
  -15   15    3     -5.89      0.00
  -14   15    3     -5.84      0.00
  -13   15    3     -1.87      0.00
  -12   15    3      4.69      0.00
  -11   15    3      7.94      0.00
  -10   15    3      2.92      0.00
   -9   15    3    -16.85      0.00
   -8   15    3     -2.00      0.00
   -7   15    3      2.61      0.00
   -6   15    3      7.22      0.00
   -5   15    3     -8.75      0.00
   -4   15    3     -2.97      0.00
   -3   15    3     19.26      0.00
   -2   15    3     11.09      0.00
   -1   15    3    -21.42      0.00
    0   15    3      5.99      0.00
    1   15    3     19.73      0.00
    2   15    3     -7.20      0.00
    3   15    3     -1.31      0.00
    4   15    3      9.82      0.00
    5   15    3      6.29      0.00
    6   15    3     -2.74      0.00
    7   15    3     -8.05      0.00
    8   15    3      5.53      0.00
    9   15    3     -4.11      0.00
   10   15    3     -3.95      0.00
   11   15    3      6.57      0.00
   12   15    3      4.72      0.00
   13   15    3     -4.31      0.00
   14   15    3     -2.84      0.00
   15   15    3      2.70      0.00
   16   15    3      1.89      0.00
   17   15    3      1.33      0.00
  -19   16    3     -1.09      0.00
  -18   16    3     -2.99      0.00
  -17   16    3      2.00      0.00
  -16   16    3     -4.52      0.00
  -15   16    3     -0.47      0.00
  -14   16    3     -1.54      0.00
  -13   16    3      1.37      0.00
  -12   16    3      0.49      0.00
  -11   16    3     -6.49      0.00
  -10   16    3      3.82      0.00
   -9   16    3      4.81      0.00
   -8   16    3     -8.93      0.00
   -7   16    3     10.96      0.00
   -6   16    3    -10.71      0.00
   -5   16    3      0.82      0.00
   -4   16    3      4.69      0.00
   -3   16    3     -2.10      0.00
   -2   16    3     -7.79      0.00
   -1   16    3     -8.30      0.00
    0   16    3      0.77      0.00
    1   16    3     15.22      0.00
    2   16    3      8.63      0.00
    3   16    3     -5.03      0.00
    4   16    3      4.16      0.00
    5   16    3     11.47      0.00
    6   16    3     -8.74      0.00
    7   16    3    -10.90      0.00
    8   16    3     -2.38      0.00
    9   16    3      8.31      0.00
   10   16    3      1.36      0.00
   11   16    3     -0.13      0.00
   12   16    3      3.06      0.00
   13   16    3      0.23      0.00
   14   16    3     -2.22      0.00
   15   16    3      0.01      0.00
   16   16    3      2.52      0.00
  -18   17    3     -2.60      0.00
  -17   17    3     -3.28      0.00
  -16   17    3      3.05      0.00
  -15   17    3     -3.16      0.00
  -14   17    3      0.61      0.00
  -13   17    3     -1.91      0.00
  -12   17    3     -5.13      0.00
  -11   17    3     -1.49      0.00
  -10   17    3      1.61      0.00
   -9   17    3     13.34      0.00
   -8   17    3      5.21      0.00
   -7   17    3    -17.92      0.00
   -6   17    3     12.72      0.00
   -5   17    3     -5.84      0.00
   -4   17    3     -6.79      0.00
   -3   17    3     -8.95      0.00
   -2   17    3     -2.58      0.00
   -1   17    3     -0.52      0.00
    0   17    3     -2.45      0.00
    1   17    3      6.35      0.00
    2   17    3      6.01      0.00
    3   17    3      1.48      0.00
    4   17    3      3.52      0.00
    5   17    3     -6.68      0.00
    6   17    3     -2.00      0.00
    7   17    3     -3.01      0.00
    8   17    3     -0.58      0.00
    9   17    3      5.15      0.00
   10   17    3      3.31      0.00
   11   17    3     -2.28      0.00
   12   17    3      1.87      0.00
   13   17    3      0.38      0.00
   14   17    3     -2.41      0.00
   15   17    3      0.74      0.00
   16   17    3     -0.03      0.00
  -18   18    3     -1.00      0.00
  -17   18    3     -0.95      0.00
  -16   18    3     -5.04      0.00
  -15   18    3      1.21      0.00
  -14   18    3      1.85      0.00
  -13   18    3     -2.32      0.00
  -12   18    3     -7.33      0.00
  -11   18    3      0.86      0.00
  -10   18    3     10.08      0.00
   -9   18    3      7.60      0.00
   -8   18    3      1.35      0.00
   -7   18    3      0.01      0.00
   -6   18    3    -12.88      0.00
   -5   18    3      3.40      0.00
   -4   18    3     -3.71      0.00
   -3   18    3      0.40      0.00
   -2   18    3    -10.80      0.00
   -1   18    3      1.31      0.00
    0   18    3      4.39      0.00
    1   18    3     -7.36      0.00
    2   18    3     -0.50      0.00
    3   18    3      1.91      0.00
    4   18    3     -1.03      0.00
    5   18    3      5.23      0.00
    6   18    3     -7.07      0.00
    7   18    3     -0.56      0.00
    8   18    3      6.49      0.00
    9   18    3     -0.65      0.00
   10   18    3      0.58      0.00
   11   18    3     -1.93      0.00
   12   18    3     -3.56      0.00
   13   18    3      3.18      0.00
   14   18    3      0.97      0.00
   15   18    3     -3.31      0.00
   16   18    3     -0.55      0.00
  -18   19    3     -3.37      0.00
  -17   19    3     -3.47      0.00
  -16   19    3      2.69      0.00
  -15   19    3     -0.08      0.00
  -14   19    3     -1.88      0.00
  -13   19    3     -0.93      0.00
  -12   19    3     -2.46      0.00
  -11   19    3      0.10      0.00
  -10   19    3     11.54      0.00
   -9   19    3      2.34      0.00
   -8   19    3     -4.74      0.00
   -7   19    3     -4.32      0.00
   -6   19    3      5.23      0.00
   -5   19    3      1.92      0.00
   -4   19    3     -7.41      0.00
   -3   19    3     -3.18      0.00
   -2   19    3     16.90      0.00
   -1   19    3    -10.27      0.00
    0   19    3    -15.43      0.00
    1   19    3     -1.70      0.00
    2   19    3      0.82      0.00
    3   19    3      2.10      0.00
    4   19    3      0.20      0.00
    5   19    3      2.23      0.00
    6   19    3      6.75      0.00
    7   19    3     -2.05      0.00
    8   19    3     -2.37      0.00
    9   19    3      2.29      0.00
   10   19    3     -4.21      0.00
   11   19    3     -1.02      0.00
   12   19    3      1.18      0.00
   13   19    3     -1.02      0.00
   14   19    3     -0.84      0.00
   15   19    3     -0.06      0.00
  -17   20    3     -0.25      0.00
  -16   20    3     -1.74      0.00
  -15   20    3     -1.07      0.00
  -14   20    3     -0.29      0.00
  -13   20    3      0.23      0.00
  -12   20    3      3.32      0.00
  -11   20    3     -3.08      0.00
  -10   20    3     -5.40      0.00
   -9   20    3      7.32      0.00
   -8   20    3     -2.42      0.00
   -7   20    3     -0.36      0.00
   -6   20    3      6.24      0.00
   -5   20    3     -1.34      0.00
   -4   20    3      4.84      0.00
   -3   20    3      3.96      0.00
   -2   20    3     -3.67      0.00
   -1   20    3     -3.54      0.00
    0   20    3    -13.03      0.00
    1   20    3      0.03      0.00
    2   20    3      6.91      0.00
    3   20    3     -3.48      0.00
    4   20    3      0.16      0.00
    5   20    3      7.99      0.00
    6   20    3     10.30      0.00
    7   20    3     -5.01      0.00
    8   20    3     -8.20      0.00
    9   20    3     -0.38      0.00
   10   20    3      4.92      0.00
   11   20    3     -0.14      0.00
   12   20    3     -1.28      0.00
   13   20    3     -1.06      0.00
   14   20    3      0.53      0.00
   15   20    3     -0.44      0.00
  -16   21    3     -1.59      0.00
  -15   21    3      1.60      0.00
  -14   21    3     -0.40      0.00
  -13   21    3     -0.75      0.00
  -12   21    3     -2.26      0.00
  -11   21    3     -1.67      0.00
  -10   21    3     -5.69      0.00
   -9   21    3      0.10      0.00
   -8   21    3     10.99      0.00
   -7   21    3     -2.08      0.00
   -6   21    3     -2.69      0.00
   -5   21    3     15.01      0.00
   -4   21    3      1.06      0.00
   -3   21    3     -8.69      0.00
   -2   21    3     -2.61      0.00
   -1   21    3      5.22      0.00
    0   21    3     -0.43      0.00
    1   21    3     -4.68      0.00
    2   21    3      0.91      0.00
    3   21    3      1.15      0.00
    4   21    3      3.63      0.00
    5   21    3     10.10      0.00
    6   21    3     -2.63      0.00
    7   21    3      0.57      0.00
    8   21    3     -2.13      0.00
    9   21    3      0.98      0.00
   10   21    3      1.81      0.00
   11   21    3      1.51      0.00
   12   21    3      0.36      0.00
   13   21    3      0.87      0.00
   14   21    3     -1.99      0.00
  -16   22    3      0.63      0.00
  -15   22    3     -2.60      0.00
  -14   22    3     -0.29      0.00
  -13   22    3     -1.13      0.00
  -12   22    3     -1.05      0.00
  -11   22    3     -3.62      0.00
  -10   22    3     -1.08      0.00
   -9   22    3     -0.25      0.00
   -8   22    3      5.05      0.00
   -7   22    3      5.94      0.00
   -6   22    3      3.23      0.00
   -5   22    3     -6.52      0.00
   -4   22    3      0.36      0.00
   -3   22    3      3.95      0.00
   -2   22    3     -0.09      0.00
   -1   22    3     -1.30      0.00
    0   22    3      8.90      0.00
    1   22    3     -3.16      0.00
    2   22    3     -3.82      0.00
    3   22    3      5.65      0.00
    4   22    3      2.59      0.00
    5   22    3      1.27      0.00
    6   22    3      9.01      0.00
    7   22    3     -3.89      0.00
    8   22    3     -0.89      0.00
    9   22    3      1.06      0.00
   10   22    3      4.91      0.00
   11   22    3      1.55      0.00
   12   22    3      1.12      0.00
   13   22    3     -0.99      0.00
  -15   23    3      0.79      0.00
  -14   23    3     -0.85      0.00
  -13   23    3      0.76      0.00
  -12   23    3     -1.53      0.00
  -11   23    3     -2.97      0.00
  -10   23    3     -1.37      0.00
   -9   23    3      4.15      0.00
   -8   23    3      0.17      0.00
   -7   23    3      2.18      0.00
   -6   23    3     -5.99      0.00
   -5   23    3      2.69      0.00
   -4   23    3      1.42      0.00
   -3   23    3     -3.16      0.00
   -2   23    3      4.31      0.00
   -1   23    3      9.52      0.00
    0   23    3     -1.56      0.00
    1   23    3      1.03      0.00
    2   23    3     -2.50      0.00
    3   23    3      2.09      0.00
    4   23    3      5.45      0.00
    5   23    3      1.66      0.00
    6   23    3      0.08      0.00
    7   23    3      5.31      0.00
    8   23    3     -0.58      0.00
    9   23    3      1.70      0.00
   10   23    3      0.46      0.00
   11   23    3      4.58      0.00
   12   23    3     -1.25      0.00
   13   23    3     -0.42      0.00
  -15   24    3     -2.44      0.00
  -14   24    3      1.74      0.00
  -13   24    3     -0.04      0.00
  -12   24    3     -0.10      0.00
  -11   24    3     -0.70      0.00
  -10   24    3     -3.20      0.00
   -9   24    3     -1.82      0.00
   -8   24    3      4.08      0.00
   -7   24    3     -5.94      0.00
   -6   24    3      1.73      0.00
   -5   24    3     -0.49      0.00
   -4   24    3      1.50      0.00
   -3   24    3      1.84      0.00
   -2   24    3      3.12      0.00
   -1   24    3      3.33      0.00
    0   24    3      0.56      0.00
    1   24    3     -1.22      0.00
    2   24    3      5.53      0.00
    3   24    3      0.58      0.00
    4   24    3     -2.87      0.00
    5   24    3      1.17      0.00
    6   24    3      7.41      0.00
    7   24    3      4.07      0.00
    8   24    3     -1.36      0.00
    9   24    3     -3.16      0.00
   10   24    3      3.55      0.00
   11   24    3     -1.15      0.00
   12   24    3      2.32      0.00
  -14   25    3      0.19      0.00
  -13   25    3      1.29      0.00
  -12   25    3     -1.25      0.00
  -11   25    3     -1.02      0.00
  -10   25    3     -1.51      0.00
   -9   25    3     -2.40      0.00
   -8   25    3     -1.55      0.00
   -7   25    3      5.05      0.00
   -6   25    3     -5.80      0.00
   -5   25    3      0.61      0.00
   -4   25    3      5.99      0.00
   -3   25    3      1.37      0.00
   -2   25    3     -6.31      0.00
   -1   25    3      1.59      0.00
    0   25    3      6.03      0.00
    1   25    3      0.53      0.00
    2   25    3      1.77      0.00
    3   25    3     -1.75      0.00
    4   25    3     -3.25      0.00
    5   25    3      5.18      0.00
    6   25    3      5.08      0.00
    7   25    3     -0.64      0.00
    8   25    3     -1.39      0.00
    9   25    3      1.87      0.00
   10   25    3     -1.59      0.00
   11   25    3      1.33      0.00
  -13   26    3      0.29      0.00
  -12   26    3     -1.12      0.00
  -11   26    3      0.08      0.00
  -10   26    3     -0.83      0.00
   -9   26    3     -3.62      0.00
   -8   26    3      0.29      0.00
   -7   26    3      1.05      0.00
   -6   26    3      4.22      0.00
   -5   26    3     -1.13      0.00
   -4   26    3     -3.07      0.00
   -3   26    3     -1.33      0.00
   -2   26    3      1.56      0.00
   -1   26    3     -2.48      0.00
    0   26    3      1.42      0.00
    1   26    3      4.21      0.00
    2   26    3     -2.06      0.00
    3   26    3      1.82      0.00
    4   26    3     -1.62      0.00
    5   26    3     -3.23      0.00
    6   26    3      4.48      0.00
    7   26    3      5.70      0.00
    8   26    3     -0.67      0.00
    9   26    3     -4.96      0.00
   10   26    3      1.08      0.00
  -12   27    3      0.50      0.00
  -11   27    3     -2.98      0.00
  -10   27    3     -0.65      0.00
   -9   27    3      0.51      0.00
   -8   27    3      0.66      0.00
   -7   27    3      2.71      0.00
   -6   27    3     -1.08      0.00
   -5   27    3     -3.12      0.00
   -4   27    3     -0.06      0.00
   -3   27    3      0.77      0.00
   -2   27    3     -2.80      0.00
   -1   27    3     -0.43      0.00
    0   27    3      1.37      0.00
    1   27    3      1.84      0.00
    2   27    3      0.48      0.00
    3   27    3     -2.53      0.00
    4   27    3     -0.07      0.00
    5   27    3     -0.41      0.00
    6   27    3      1.09      0.00
    7   27    3      2.44      0.00
    8   27    3     -0.10      0.00
    9   27    3     -1.02      0.00
  -11   28    3     -0.36      0.00
  -10   28    3     -2.24      0.00
   -9   28    3      1.48      0.00
   -8   28    3      0.45      0.00
   -7   28    3     -0.41      0.00
   -6   28    3     -0.56      0.00
   -5   28    3     -0.34      0.00
   -4   28    3      0.23      0.00
   -3   28    3      0.51      0.00
   -2   28    3     -0.43      0.00
   -1   28    3     -0.52      0.00
    0   28    3      0.06      0.00
    1   28    3     -0.79      0.00
    2   28    3      0.28      0.00
    3   28    3      0.78      0.00
    4   28    3      0.15      0.00
    5   28    3     -2.07      0.00
    6   28    3     -1.35      0.00
    7   28    3      2.29      0.00
    8   28    3      1.31      0.00
   -9   29    3     -1.03      0.00
   -8   29    3      1.00      0.00
   -7   29    3     -0.39      0.00
   -6   29    3      0.34      0.00
   -5   29    3     -0.31      0.00
   -4   29    3      0.42      0.00
   -3   29    3      1.02      0.00
   -2   29    3      0.68      0.00
   -1   29    3     -0.62      0.00
    0   29    3     -0.83      0.00
    1   29    3     -1.36      0.00
    2   29    3      1.22      0.00
    3   29    3      3.84      0.00
    4   29    3     -2.84      0.00
    5   29    3     -2.82      0.00
    6   29    3      1.13      0.00
    7   29    3     -0.06      0.00
   -8   30    3     -1.51      0.00
   -7   30    3      1.12      0.00
   -6   30    3      0.40      0.00
   -5   30    3     -0.03      0.00
   -4   30    3      0.22      0.00
   -3   30    3      1.14      0.00
   -2   30    3     -0.03      0.00
   -1   30    3      1.55      0.00
    0   30    3     -0.63      0.00
    1   30    3     -2.02      0.00
    2   30    3     -0.37      0.00
    3   30    3      2.24      0.00
    4   30    3      2.25      0.00
    5   30    3     -3.27      0.00
   -6   31    3      1.09      0.00
   -5   31    3     -2.00      0.00
   -4   31    3     -0.77      0.00
   -3   31    3      2.14      0.00
   -2   31    3      2.53      0.00
   -1   31    3     -2.50      0.00
    0   31    3     -0.85      0.00
    1   31    3     -0.15      0.00
    2   31    3     -0.54      0.00
    3   31    3      0.65      0.00
  -22    0    4     -1.09      0.00
  -20    0    4     -3.09      0.00
  -18    0    4      5.70      0.00
  -16    0    4     -2.51      0.00
  -14    0    4    -13.61      0.00
  -12    0    4    -23.67      0.00
  -10    0    4     28.38      0.00
   -8    0    4     -8.05      0.00
   -6    0    4     -1.51      0.00
   -4    0    4    -69.17      0.00
   -2    0    4    -41.05      0.00
    0    0    4    -35.71      0.00
    2    0    4    -74.66      0.00
    4    0    4     14.37      0.00
    6    0    4    -22.55      0.00
    8    0    4     24.41      0.00
   10    0    4     -7.44      0.00
   12    0    4      0.50      0.00
   14    0    4     -8.48      0.00
   16    0    4      2.59      0.00
   18    0    4      2.96      0.00
  -22    1    4     -1.25      0.00
  -21    1    4      0.37      0.00
  -20    1    4      3.56      0.00
  -19    1    4     -4.30      0.00
  -18    1    4     -2.97      0.00
  -17    1    4      5.22      0.00
  -16    1    4     -5.23      0.00
  -15    1    4     -9.53      0.00
  -14    1    4      0.25      0.00
  -13    1    4    -10.56      0.00
  -12    1    4      7.25      0.00
  -11    1    4     -1.80      0.00
  -10    1    4      5.55      0.00
   -9    1    4      0.83      0.00
   -8    1    4    -34.58      0.00
   -7    1    4      2.84      0.00
   -6    1    4     -3.09      0.00
   -5    1    4    -29.77      0.00
   -4    1    4    -45.70      0.00
   -3    1    4     -8.52      0.00
   -2    1    4    113.69      0.00
   -1    1    4    -94.53      0.00
    0    1    4    -93.86      0.00
    1    1    4    -39.44      0.00
    2    1    4    -28.31      0.00
    3    1    4    -19.77      0.00
    4    1    4     -8.61      0.00
    5    1    4      0.97      0.00
    6    1    4      9.06      0.00
    7    1    4      0.47      0.00
    8    1    4     -3.53      0.00
    9    1    4      0.61      0.00
   10    1    4     -7.65      0.00
   11    1    4      3.18      0.00
   12    1    4      0.35      0.00
   13    1    4     -8.28      0.00
   14    1    4     -0.51      0.00
   15    1    4     -1.63      0.00
   16    1    4     -1.62      0.00
   17    1    4      3.17      0.00
   18    1    4      0.22      0.00
   19    1    4      0.70      0.00
  -22    2    4      0.65      0.00
  -21    2    4      0.37      0.00
  -20    2    4     -0.33      0.00
  -19    2    4     -0.74      0.00
  -18    2    4     -4.74      0.00
  -17    2    4     -4.99      0.00
  -16    2    4     -0.90      0.00
  -15    2    4     -0.94      0.00
  -14    2    4     -1.23      0.00
  -13    2    4      9.12      0.00
  -12    2    4     -0.83      0.00
  -11    2    4    -10.17      0.00
  -10    2    4    -14.02      0.00
   -9    2    4     -9.36      0.00
   -8    2    4     -8.86      0.00
   -7    2    4    -24.55      0.00
   -6    2    4      3.67      0.00
   -5    2    4    -28.73      0.00
   -4    2    4     28.84      0.00
   -3    2    4     11.94      0.00
   -2    2    4    -51.98      0.00
   -1    2    4     22.51      0.00
    0    2    4    -98.38      0.00
    1    2    4    -81.29      0.00
    2    2    4      7.21      0.00
    3    2    4    -31.63      0.00
    4    2    4      3.27      0.00
    5    2    4     10.23      0.00
    6    2    4     -3.91      0.00
    7    2    4    -13.80      0.00
    8    2    4     -4.76      0.00
    9    2    4      2.28      0.00
   10    2    4     -0.83      0.00
   11    2    4     -7.80      0.00
   12    2    4      3.29      0.00
   13    2    4     -0.98      0.00
   14    2    4     -7.62      0.00
   15    2    4     -1.69      0.00
   16    2    4      0.84      0.00
   17    2    4     -1.62      0.00
   18    2    4      1.72      0.00
   19    2    4      1.71      0.00
  -22    3    4      0.27      0.00
  -21    3    4      0.17      0.00
  -20    3    4     -1.41      0.00
  -19    3    4     -2.66      0.00
  -18    3    4     -5.50      0.00
  -17    3    4     -5.96      0.00
  -16    3    4      3.96      0.00
  -15    3    4      4.93      0.00
  -14    3    4      7.37      0.00
  -13    3    4     -1.57      0.00
  -12    3    4    -12.95      0.00
  -11    3    4     -8.01      0.00
  -10    3    4    -21.85      0.00
   -9    3    4     -7.61      0.00
   -8    3    4      1.93      0.00
   -7    3    4     -6.48      0.00
   -6    3    4    -12.33      0.00
   -5    3    4      4.49      0.00
   -4    3    4    -39.29      0.00
   -3    3    4     38.12      0.00
   -2    3    4      3.16      0.00
   -1    3    4    -80.97      0.00
    0    3    4    -19.91      0.00
    1    3    4     -4.15      0.00
    2    3    4    -35.06      0.00
    3    3    4     -3.04      0.00
    4    3    4    -12.41      0.00
    5    3    4      3.00      0.00
    6    3    4    -10.36      0.00
    7    3    4     -1.69      0.00
    8    3    4     -7.68      0.00
    9    3    4     -7.72      0.00
   10    3    4      1.99      0.00
   11    3    4      1.60      0.00
   12    3    4     -3.98      0.00
   13    3    4     -1.10      0.00
   14    3    4     -4.94      0.00
   15    3    4     -1.76      0.00
   16    3    4     -3.20      0.00
   17    3    4      1.83      0.00
   18    3    4      2.66      0.00
   19    3    4      0.36      0.00
  -22    4    4     -1.00      0.00
  -21    4    4     -1.73      0.00
  -20    4    4      0.77      0.00
  -19    4    4     -5.01      0.00
  -18    4    4     -2.66      0.00
  -17    4    4      3.08      0.00
  -16    4    4     -0.09      0.00
  -15    4    4      7.88      0.00
  -14    4    4     -0.30      0.00
  -13    4    4     -4.99      0.00
  -12    4    4    -15.59      0.00
  -11    4    4    -24.76      0.00
  -10    4    4     13.48      0.00
   -9    4    4      0.95      0.00
   -8    4    4     -5.01      0.00
   -7    4    4    -12.32      0.00
   -6    4    4    -21.81      0.00
   -5    4    4    -11.49      0.00
   -4    4    4     11.39      0.00
   -3    4    4    -20.03      0.00
   -2    4    4     -5.88      0.00
   -1    4    4    -12.77      0.00
    0    4    4     28.31      0.00
    1    4    4      1.49      0.00
    2    4    4    -17.60      0.00
    3    4    4    -27.22      0.00
    4    4    4    -10.40      0.00
    5    4    4      9.91      0.00
    6    4    4     -0.13      0.00
    7    4    4    -24.90      0.00
    8    4    4      2.28      0.00
    9    4    4      5.92      0.00
   10    4    4     -3.74      0.00
   11    4    4     -5.63      0.00
   12    4    4     -2.57      0.00
   13    4    4      4.05      0.00
   14    4    4      1.67      0.00
   15    4    4    -10.17      0.00
   16    4    4      0.87      0.00
   17    4    4     -0.21      0.00
   18    4    4      0.61      0.00
  -22    5    4     -2.04      0.00
  -21    5    4      0.13      0.00
  -20    5    4      1.98      0.00
  -19    5    4      2.28      0.00
  -18    5    4     -6.36      0.00
  -17    5    4      0.33      0.00
  -16    5    4     10.42      0.00
  -15    5    4     -5.41      0.00
  -14    5    4     -7.50      0.00
  -13    5    4     -5.37      0.00
  -12    5    4     -4.81      0.00
  -11    5    4     -4.64      0.00
  -10    5    4      1.88      0.00
   -9    5    4     18.26      0.00
   -8    5    4    -21.52      0.00
   -7    5    4    -35.67      0.00
   -6    5    4     -7.13      0.00
   -5    5    4      8.15      0.00
   -4    5    4    -19.76      0.00
   -3    5    4    -32.70      0.00
   -2    5    4     37.03      0.00
   -1    5    4     60.97      0.00
    0    5    4    -22.85      0.00
    1    5    4      5.98      0.00
    2    5    4     -4.52      0.00
    3    5    4    -11.21      0.00
    4    5    4      2.17      0.00
    5    5    4    -17.27      0.00
    6    5    4     -0.82      0.00
    7    5    4      8.39      0.00
    8    5    4      0.11      0.00
    9    5    4     -3.90      0.00
   10    5    4    -11.93      0.00
   11    5    4      2.82      0.00
   12    5    4     11.23      0.00
   13    5    4     -3.52      0.00
   14    5    4     -7.18      0.00
   15    5    4      2.69      0.00
   16    5    4     -4.78      0.00
   17    5    4     -1.44      0.00
   18    5    4      1.05      0.00
  -22    6    4      0.79      0.00
  -21    6    4     -0.33      0.00
  -20    6    4      1.67      0.00
  -19    6    4      2.08      0.00
  -18    6    4      2.07      0.00
  -17    6    4     -3.79      0.00
  -16    6    4     -4.05      0.00
  -15    6    4      1.95      0.00
  -14    6    4     -5.84      0.00
  -13    6    4     -1.03      0.00
  -12    6    4      8.94      0.00
  -11    6    4      3.66      0.00
  -10    6    4    -12.66      0.00
   -9    6    4     -1.28      0.00
   -8    6    4     -6.80      0.00
   -7    6    4    -23.77      0.00
   -6    6    4    -19.79      0.00
   -5    6    4     -6.25      0.00
   -4    6    4      3.23      0.00
   -3    6    4     26.53      0.00
   -2    6    4     -9.09      0.00
   -1    6    4     11.73      0.00
    0    6    4     30.59      0.00
    1    6    4     -1.46      0.00
    2    6    4     11.36      0.00
    3    6    4     -3.04      0.00
    4    6    4    -22.58      0.00
    5    6    4     10.00      0.00
    6    6    4      9.56      0.00
    7    6    4      6.15      0.00
    8    6    4    -14.28      0.00
    9    6    4     -4.47      0.00
   10    6    4      9.56      0.00
   11    6    4     -0.89      0.00
   12    6    4      1.35      0.00
   13    6    4      2.03      0.00
   14    6    4     -3.78      0.00
   15    6    4     -4.70      0.00
   16    6    4      1.89      0.00
   17    6    4     -0.08      0.00
   18    6    4     -0.69      0.00
  -21    7    4      0.15      0.00
  -20    7    4      1.71      0.00
  -19    7    4      2.14      0.00
  -18    7    4      0.85      0.00
  -17    7    4     -5.28      0.00
  -16    7    4     -5.56      0.00
  -15    7    4      2.54      0.00
  -14    7    4      8.76      0.00
  -13    7    4      5.28      0.00
  -12    7    4      2.26      0.00
  -11    7    4     -5.01      0.00
  -10    7    4     -1.22      0.00
   -9    7    4    -19.57      0.00
   -8    7    4      1.36      0.00
   -7    7    4    -12.61      0.00
   -6    7    4     -8.11      0.00
   -5    7    4      8.20      0.00
   -4    7    4      4.09      0.00
   -3    7    4    -26.06      0.00
   -2    7    4     23.88      0.00
   -1    7    4      8.54      0.00
    0    7    4      8.68      0.00
    1    7    4     16.22      0.00
    2    7    4     15.68      0.00
    3    7    4     -9.81      0.00
    4    7    4     -7.70      0.00
    5    7    4      8.17      0.00
    6    7    4     10.17      0.00
    7    7    4     -8.48      0.00
    8    7    4      7.66      0.00
    9    7    4     -2.54      0.00
   10    7    4     -0.63      0.00
   11    7    4      2.57      0.00
   12    7    4     -3.04      0.00
   13    7    4      3.91      0.00
   14    7    4     -1.57      0.00
   15    7    4     -0.76      0.00
   16    7    4     -0.11      0.00
   17    7    4     -0.76      0.00
   18    7    4      0.61      0.00
  -21    8    4     -0.98      0.00
  -20    8    4     -0.69      0.00
  -19    8    4      3.34      0.00
  -18    8    4     -2.41      0.00
  -17    8    4      0.65      0.00
  -16    8    4     -0.17      0.00
  -15    8    4      3.38      0.00
  -14    8    4     10.75      0.00
  -13    8    4      7.92      0.00
  -12    8    4     -3.79      0.00
  -11    8    4     -5.08      0.00
  -10    8    4    -13.94      0.00
   -9    8    4      5.69      0.00
   -8    8    4    -11.44      0.00
   -7    8    4     15.42      0.00
   -6    8    4      3.84      0.00
   -5    8    4    -13.80      0.00
   -4    8    4    -22.43      0.00
   -3    8    4     24.80      0.00
   -2    8    4     -0.25      0.00
   -1    8    4      1.89      0.00
    0    8    4      4.15      0.00
    1    8    4     18.72      0.00
    2    8    4      0.42      0.00
    3    8    4      7.63      0.00
    4    8    4     -4.42      0.00
    5    8    4     -3.98      0.00
    6    8    4     11.13      0.00
    7    8    4      7.91      0.00
    8    8    4     -9.46      0.00
    9    8    4      2.90      0.00
   10    8    4     -0.47      0.00
   11    8    4     -0.57      0.00
   12    8    4     -3.75      0.00
   13    8    4      0.60      0.00
   14    8    4     10.35      0.00
   15    8    4     -1.25      0.00
   16    8    4     -2.33      0.00
   17    8    4      0.09      0.00
   18    8    4     -1.39      0.00
  -21    9    4     -3.10      0.00
  -20    9    4      1.21      0.00
  -19    9    4      3.15      0.00
  -18    9    4      4.23      0.00
  -17    9    4     -4.71      0.00
  -16    9    4      6.53      0.00
  -15    9    4      8.02      0.00
  -14    9    4     -1.44      0.00
  -13    9    4      1.83      0.00
  -12    9    4      8.09      0.00
  -11    9    4     -8.03      0.00
  -10    9    4     -8.72      0.00
   -9    9    4     -4.02      0.00
   -8    9    4     27.86      0.00
   -7    9    4     -3.16      0.00
   -6    9    4     -5.76      0.00
   -5    9    4     -8.21      0.00
   -4    9    4      9.86      0.00
   -3    9    4    -10.03      0.00
   -2    9    4     17.98      0.00
   -1    9    4      2.19      0.00
    0    9    4     -7.50      0.00
    1    9    4      7.44      0.00
    2    9    4     13.52      0.00
    3    9    4     -2.82      0.00
    4    9    4      4.35      0.00
    5    9    4      2.33      0.00
    6    9    4     -4.32      0.00
    7    9    4     -2.36      0.00
    8    9    4      7.74      0.00
    9    9    4      2.14      0.00
   10    9    4     -7.88      0.00
   11    9    4     -8.80      0.00
   12    9    4     10.41      0.00
   13    9    4      8.07      0.00
   14    9    4     -1.87      0.00
   15    9    4      1.10      0.00
   16    9    4      0.08      0.00
   17    9    4     -2.30      0.00
   18    9    4     -1.80      0.00
  -21   10    4     -1.09      0.00
  -20   10    4     -0.48      0.00
  -19   10    4      1.34      0.00
  -18   10    4      2.38      0.00
  -17   10    4      6.53      0.00
  -16   10    4     -4.05      0.00
  -15   10    4     -1.02      0.00
  -14   10    4      4.24      0.00
  -13   10    4      4.10      0.00
  -12   10    4      5.22      0.00
  -11   10    4     -0.53      0.00
  -10   10    4     -8.33      0.00
   -9   10    4      6.98      0.00
   -8   10    4     10.06      0.00
   -7   10    4     13.52      0.00
   -6   10    4    -14.78      0.00
   -5   10    4      4.89      0.00
   -4   10    4     -1.59      0.00
   -3   10    4     16.87      0.00
   -2   10    4      7.53      0.00
   -1   10    4     -3.32      0.00
    0   10    4     -2.50      0.00
    1   10    4      0.00      0.00
    2   10    4     22.92      0.00
    3   10    4      6.95      0.00
    4   10    4    -13.35      0.00
    5   10    4     -6.42      0.00
    6   10    4      1.07      0.00
    7   10    4      7.26      0.00
    8   10    4     -1.66      0.00
    9   10    4     -5.92      0.00
   10   10    4      0.80      0.00
   11   10    4      2.95      0.00
   12   10    4      0.42      0.00
   13   10    4      6.15      0.00
   14   10    4      0.99      0.00
   15   10    4     -2.81      0.00
   16   10    4     -0.12      0.00
   17   10    4      0.61      0.00
   18   10    4     -1.49      0.00
  -20   11    4     -4.53      0.00
  -19   11    4      1.15      0.00
  -18   11    4      4.08      0.00
  -17   11    4     -0.66      0.00
  -16   11    4     -3.63      0.00
  -15   11    4     -1.75      0.00
  -14   11    4      6.51      0.00
  -13   11    4      6.69      0.00
  -12   11    4      0.40      0.00
  -11   11    4      1.33      0.00
  -10   11    4     -0.63      0.00
   -9   11    4      7.57      0.00
   -8   11    4      7.30      0.00
   -7   11    4     -5.48      0.00
   -6   11    4      1.96      0.00
   -5   11    4      3.60      0.00
   -4   11    4     27.19      0.00
   -3   11    4    -11.35      0.00
   -2   11    4     -6.17      0.00
   -1   11    4     32.99      0.00
    0   11    4      0.59      0.00
    1   11    4      0.53      0.00
    2   11    4      6.96      0.00
    3   11    4     12.90      0.00
    4   11    4    -14.38      0.00
    5   11    4    -14.92      0.00
    6   11    4      8.55      0.00
    7   11    4      1.12      0.00
    8   11    4     -2.30      0.00
    9   11    4      2.13      0.00
   10   11    4      6.15      0.00
   11   11    4     -0.58      0.00
   12   11    4     -4.24      0.00
   13   11    4      2.34      0.00
   14   11    4      4.22      0.00
   15   11    4     -1.45      0.00
   16   11    4     -0.78      0.00
   17   11    4     -0.78      0.00
  -20   12    4     -3.08      0.00
  -19   12    4     -1.18      0.00
  -18   12    4      1.52      0.00
  -17   12    4     -0.19      0.00
  -16   12    4      0.94      0.00
  -15   12    4     -3.50      0.00
  -14   12    4      2.12      0.00
  -13   12    4      2.93      0.00
  -12   12    4      4.59      0.00
  -11   12    4      3.08      0.00
  -10   12    4      4.29      0.00
   -9   12    4     -3.45      0.00
   -8   12    4     -1.69      0.00
   -7   12    4     -2.97      0.00
   -6   12    4     11.62      0.00
   -5   12    4     16.68      0.00
   -4   12    4    -12.55      0.00
   -3   12    4      7.39      0.00
   -2   12    4     19.60      0.00
   -1   12    4      6.93      0.00
    0   12    4     25.22      0.00
    1   12    4     -6.44      0.00
    2   12    4     -4.22      0.00
    3   12    4      2.54      0.00
    4   12    4      1.39      0.00
    5   12    4     -9.96      0.00
    6   12    4     -3.88      0.00
    7   12    4     10.89      0.00
    8   12    4      5.42      0.00
    9   12    4     -1.22      0.00
   10   12    4     -2.58      0.00
   11   12    4      4.21      0.00
   12   12    4     -2.65      0.00
   13   12    4     -4.29      0.00
   14   12    4      4.88      0.00
   15   12    4      2.99      0.00
   16   12    4     -2.53      0.00
   17   12    4      1.23      0.00
  -20   13    4      0.13      0.00
  -19   13    4     -2.07      0.00
  -18   13    4      2.36      0.00
  -17   13    4     -0.39      0.00
  -16   13    4     -4.68      0.00
  -15   13    4      4.65      0.00
  -14   13    4     -6.68      0.00
  -13   13    4     -0.36      0.00
  -12   13    4      3.22      0.00
  -11   13    4     12.06      0.00
  -10   13    4     -0.46      0.00
   -9   13    4    -15.64      0.00
   -8   13    4     -3.44      0.00
   -7   13    4     17.06      0.00
   -6   13    4      1.51      0.00
   -5   13    4     -0.91      0.00
   -4   13    4      6.19      0.00
   -3   13    4      4.43      0.00
   -2   13    4     12.79      0.00
   -1   13    4     21.30      0.00
    0   13    4     -6.19      0.00
    1   13    4      0.55      0.00
    2   13    4      3.28      0.00
    3   13    4      2.27      0.00
    4   13    4      0.02      0.00
    5   13    4      3.10      0.00
    6   13    4      1.73      0.00
    7   13    4      0.85      0.00
    8   13    4      0.09      0.00
    9   13    4      2.82      0.00
   10   13    4      1.60      0.00
   11   13    4     -5.16      0.00
   12   13    4      0.01      0.00
   13   13    4      2.92      0.00
   14   13    4      0.72      0.00
   15   13    4      0.19      0.00
   16   13    4      2.24      0.00
   17   13    4      0.93      0.00
  -20   14    4     -0.93      0.00
  -19   14    4      0.51      0.00
  -18   14    4     -3.20      0.00
  -17   14    4      1.17      0.00
  -16   14    4      3.38      0.00
  -15   14    4     -8.69      0.00
  -14   14    4     -3.54      0.00
  -13   14    4     -5.43      0.00
  -12   14    4     14.88      0.00
  -11   14    4      3.05      0.00
  -10   14    4     -8.68      0.00
   -9   14    4     -6.74      0.00
   -8   14    4      1.23      0.00
   -7   14    4     10.22      0.00
   -6   14    4      5.16      0.00
   -5   14    4     -5.62      0.00
   -4   14    4      5.53      0.00
   -3   14    4      0.64      0.00
   -2   14    4      8.10      0.00
   -1   14    4      0.51      0.00
    0   14    4     -1.49      0.00
    1   14    4      1.80      0.00
    2   14    4      5.49      0.00
    3   14    4     12.29      0.00
    4   14    4      4.71      0.00
    5   14    4     -4.09      0.00
    6   14    4      1.93      0.00
    7   14    4     -1.11      0.00
    8   14    4     -0.53      0.00
    9   14    4     -1.53      0.00
   10   14    4      2.07      0.00
   11   14    4      4.01      0.00
   12   14    4     -0.09      0.00
   13   14    4     -1.84      0.00
   14   14    4      0.55      0.00
   15   14    4      2.55      0.00
   16   14    4      0.39      0.00
   17   14    4      1.33      0.00
  -19   15    4     -2.03      0.00
  -18   15    4      2.27      0.00
  -17   15    4      1.23      0.00
  -16   15    4     -5.96      0.00
  -15   15    4     -2.84      0.00
  -14   15    4     -3.06      0.00
  -13   15    4      5.63      0.00
  -12   15    4     -2.23      0.00
  -11   15    4      3.34      0.00
  -10   15    4     -7.22      0.00
   -9   15    4      0.34      0.00
   -8   15    4     10.31      0.00
   -7   15    4      2.82      0.00
   -6   15    4     -5.70      0.00
   -5   15    4     -2.44      0.00
   -4   15    4      7.22      0.00
   -3   15    4      3.49      0.00
   -2   15    4    -30.99      0.00
   -1   15    4      2.06      0.00
    0   15    4     22.05      0.00
    1   15    4     -3.42      0.00
    2   15    4      0.05      0.00
    3   15    4     11.01      0.00
    4   15    4     10.33      0.00
    5   15    4     -4.07      0.00
    6   15    4    -11.66      0.00
    7   15    4      4.14      0.00
    8   15    4      0.43      0.00
    9   15    4     -1.02      0.00
   10   15    4      5.15      0.00
   11   15    4      6.39      0.00
   12   15    4     -2.91      0.00
   13   15    4     -2.54      0.00
   14   15    4      2.38      0.00
   15   15    4      0.52      0.00
   16   15    4      1.37      0.00
  -19   16    4     -2.48      0.00
  -18   16    4      0.41      0.00
  -17   16    4     -1.95      0.00
  -16   16    4      1.40      0.00
  -15   16    4     -1.31      0.00
  -14   16    4      0.92      0.00
  -13   16    4     -4.86      0.00
  -12   16    4     -6.34      0.00
  -11   16    4      2.36      0.00
  -10   16    4     13.59      0.00
   -9   16    4     -2.91      0.00
   -8   16    4      2.94      0.00
   -7   16    4     -1.42      0.00
   -6   16    4     -0.25      0.00
   -5   16    4      2.13      0.00
   -4   16    4     -7.40      0.00
   -3   16    4    -14.40      0.00
   -2   16    4     -0.48      0.00
   -1   16    4     -7.53      0.00
    0   16    4      6.70      0.00
    1   16    4     11.27      0.00
    2   16    4     -7.37      0.00
    3   16    4      2.47      0.00
    4   16    4      9.63      0.00
    5   16    4     -5.07      0.00
    6   16    4     -7.98      0.00
    7   16    4     -2.53      0.00
    8   16    4     12.09      0.00
    9   16    4      2.89      0.00
   10   16    4     -2.79      0.00
   11   16    4      1.85      0.00
   12   16    4      3.05      0.00
   13   16    4     -2.58      0.00
   14   16    4     -1.43      0.00
   15   16    4      2.17      0.00
   16   16    4     -1.90      0.00
  -19   17    4     -0.98      0.00
  -18   17    4     -3.08      0.00
  -17   17    4      3.54      0.00
  -16   17    4     -2.55      0.00
  -15   17    4      1.65      0.00
  -14   17    4     -2.74      0.00
  -13   17    4     -5.88      0.00
  -12   17    4     -0.29      0.00
  -11   17    4      3.11      0.00
  -10   17    4     11.65      0.00
   -9   17    4      8.23      0.00
   -8   17    4    -17.10      0.00
   -7   17    4      8.95      0.00
   -6   17    4      1.34      0.00
   -5   17    4     -6.22      0.00
   -4   17    4     -5.04      0.00
   -3   17    4     -0.67      0.00
   -2   17    4     -5.04      0.00
   -1   17    4     -2.92      0.00
    0   17    4     -3.71      0.00
    1   17    4     -2.22      0.00
    2   17    4      0.65      0.00
    3   17    4      0.51      0.00
    4   17    4     -2.08      0.00
    5   17    4      2.25      0.00
    6   17    4      0.04      0.00
    7   17    4      2.91      0.00
    8   17    4      0.92      0.00
    9   17    4      3.99      0.00
   10   17    4     -3.58      0.00
   11   17    4     -0.65      0.00
   12   17    4      1.85      0.00
   13   17    4     -0.80      0.00
   14   17    4     -0.26      0.00
   15   17    4     -1.90      0.00
  -17   18    4     -4.33      0.00
  -16   18    4      4.52      0.00
  -15   18    4      0.72      0.00
  -14   18    4     -1.33      0.00
  -13   18    4     -4.96      0.00
  -12   18    4     -1.10      0.00
  -11   18    4     10.50      0.00
  -10   18    4      3.22      0.00
   -9   18    4     -3.14      0.00
   -8   18    4      3.39      0.00
   -7   18    4    -11.52      0.00
   -6   18    4     11.38      0.00
   -5   18    4      1.47      0.00
   -4   18    4      0.34      0.00
   -3   18    4     -5.24      0.00
   -2   18    4     -0.62      0.00
   -1   18    4     -2.39      0.00
    0   18    4    -14.25      0.00
    1   18    4     -5.72      0.00
    2   18    4      2.39      0.00
    3   18    4     -1.21      0.00
    4   18    4      7.13      0.00
    5   18    4     -0.47      0.00
    6   18    4      0.79      0.00
    7   18    4      2.92      0.00
    8   18    4      0.15      0.00
    9   18    4     -2.90      0.00
   10   18    4     -0.39      0.00
   11   18    4     -3.90      0.00
   12   18    4      3.31      0.00
   13   18    4      2.51      0.00
   14   18    4     -4.31      0.00
   15   18    4     -0.72      0.00
  -18   19    4     -2.08      0.00
  -17   19    4      4.79      0.00
  -16   19    4     -1.66      0.00
  -15   19    4     -0.23      0.00
  -14   19    4     -0.52      0.00
  -13   19    4      0.08      0.00
  -12   19    4     -0.85      0.00
  -11   19    4      2.01      0.00
  -10   19    4      1.39      0.00
   -9   19    4     -5.10      0.00
   -8   19    4     -3.91      0.00
   -7   19    4     13.33      0.00
   -6   19    4      0.02      0.00
   -5   19    4      1.06      0.00
   -4   19    4     -0.92      0.00
   -3   19    4     13.96      0.00
   -2   19    4     -9.96      0.00
   -1   19    4    -19.76      0.00
    0   19    4      1.07      0.00
    1   19    4      1.23      0.00
    2   19    4     -1.94      0.00
    3   19    4      1.04      0.00
    4   19    4      1.19      0.00
    5   19    4     11.26      0.00
    6   19    4     -2.03      0.00
    7   19    4     -6.51      0.00
    8   19    4      1.06      0.00
    9   19    4     -0.12      0.00
   10   19    4     -0.83      0.00
   11   19    4      2.90      0.00
   12   19    4     -2.14      0.00
   13   19    4     -0.60      0.00
   14   19    4      1.32      0.00
  -17   20    4     -3.53      0.00
  -16   20    4      2.05      0.00
  -15   20    4     -0.20      0.00
  -14   20    4      0.60      0.00
  -13   20    4      1.54      0.00
  -12   20    4     -3.93      0.00
  -11   20    4     -9.03      0.00
  -10   20    4      4.09      0.00
   -9   20    4      3.48      0.00
   -8   20    4      0.47      0.00
   -7   20    4      1.25      0.00
   -6   20    4      5.95      0.00
   -5   20    4      4.41      0.00
   -4   20    4      3.12      0.00
   -3   20    4     -8.46      0.00
   -2   20    4      1.56      0.00
   -1   20    4     -3.68      0.00
    0   20    4     -2.23      0.00
    1   20    4      5.92      0.00
    2   20    4     -4.66      0.00
    3   20    4     -3.15      0.00
    4   20    4      9.64      0.00
    5   20    4      5.84      0.00
    6   20    4     -2.84      0.00
    7   20    4     -7.29      0.00
    8   20    4     -0.24      0.00
    9   20    4      7.06      0.00
   10   20    4      2.41      0.00
   11   20    4     -2.12      0.00
   12   20    4     -0.12      0.00
   13   20    4     -0.34      0.00
   14   20    4     -0.10      0.00
  -17   21    4      0.59      0.00
  -16   21    4     -0.59      0.00
  -15   21    4      0.62      0.00
  -14   21    4     -1.02      0.00
  -13   21    4     -2.58      0.00
  -12   21    4     -1.49      0.00
  -11   21    4     -3.34      0.00
  -10   21    4     -2.06      0.00
   -9   21    4     10.58      0.00
   -8   21    4     -1.31      0.00
   -7   21    4     -3.93      0.00
   -6   21    4      8.69      0.00
   -5   21    4      0.55      0.00
   -4   21    4     -7.50      0.00
   -3   21    4      1.31      0.00
   -2   21    4      6.28      0.00
   -1   21    4      5.22      0.00
    0   21    4     -3.59      0.00
    1   21    4     -2.90      0.00
    2   21    4      1.86      0.00
    3   21    4      1.19      0.00
    4   21    4      4.56      0.00
    5   21    4      0.08      0.00
    6   21    4      0.87      0.00
    7   21    4     -0.11      0.00
    8   21    4      0.58      0.00
    9   21    4      2.19      0.00
   10   21    4      2.15      0.00
   11   21    4      1.51      0.00
   12   21    4      0.18      0.00
   13   21    4     -1.57      0.00
  -16   22    4     -1.40      0.00
  -15   22    4     -0.74      0.00
  -14   22    4      0.25      0.00
  -13   22    4      0.57      0.00
  -12   22    4     -3.15      0.00
  -11   22    4     -0.23      0.00
  -10   22    4      0.55      0.00
   -9   22    4     -0.22      0.00
   -8   22    4      5.33      0.00
   -7   22    4     -2.42      0.00
   -6   22    4     -9.61      0.00
   -5   22    4      2.93      0.00
   -4   22    4      5.93      0.00
   -3   22    4      0.33      0.00
   -2   22    4     -0.02      0.00
   -1   22    4      8.71      0.00
    0   22    4     -0.09      0.00
    1   22    4     -5.60      0.00
    2   22    4      3.29      0.00
    3   22    4      2.58      0.00
    4   22    4     -2.34      0.00
    5   22    4      7.98      0.00
    6   22    4     -0.86      0.00
    7   22    4     -1.34      0.00
    8   22    4      0.87      0.00
    9   22    4      2.90      0.00
   10   22    4      2.47      0.00
   11   22    4     -0.07      0.00
   12   22    4     -0.28      0.00
  -15   23    4      0.05      0.00
  -14   23    4      1.81      0.00
  -13   23    4     -1.04      0.00
  -12   23    4     -0.68      0.00
  -11   23    4     -2.73      0.00
  -10   23    4      1.62      0.00
   -9   23    4     -0.39      0.00
   -8   23    4     -3.59      0.00
   -7   23    4     -4.49      0.00
   -6   23    4      2.60      0.00
   -5   23    4      0.60      0.00
   -4   23    4     -1.87      0.00
   -3   23    4      3.74      0.00
   -2   23    4      8.37      0.00
   -1   23    4     -4.20      0.00
    0   23    4      1.25      0.00
    1   23    4      1.36      0.00
    2   23    4      0.02      0.00
    3   23    4      2.21      0.00
    4   23    4      0.61      0.00
    5   23    4     -1.88      0.00
    6   23    4      8.01      0.00
    7   23    4     -0.17      0.00
    8   23    4     -2.44      0.00
    9   23    4     -0.73      0.00
   10   23    4      2.15      0.00
   11   23    4      0.24      0.00
   12   23    4     -0.51      0.00
  -15   24    4      2.12      0.00
  -14   24    4      0.47      0.00
  -13   24    4      0.37      0.00
  -12   24    4     -1.31      0.00
  -11   24    4     -1.58      0.00
  -10   24    4     -3.23      0.00
   -9   24    4      2.03      0.00
   -8   24    4     -2.88      0.00
   -7   24    4      0.42      0.00
   -6   24    4     -2.50      0.00
   -5   24    4      1.47      0.00
   -4   24    4      2.59      0.00
   -3   24    4     -0.95      0.00
   -2   24    4     -1.47      0.00
   -1   24    4      3.31      0.00
    0   24    4     -1.60      0.00
    1   24    4      5.28      0.00
    2   24    4      0.91      0.00
    3   24    4     -5.53      0.00
    4   24    4     -0.07      0.00
    5   24    4      8.09      0.00
    6   24    4      1.36      0.00
    7   24    4     -2.36      0.00
    8   24    4     -3.59      0.00
    9   24    4      0.92      0.00
   10   24    4     -1.45      0.00
   11   24    4      1.31      0.00
  -14   25    4      1.39      0.00
  -13   25    4     -1.08      0.00
  -12   25    4      0.24      0.00
  -11   25    4     -0.42      0.00
  -10   25    4     -1.79      0.00
   -9   25    4     -1.54      0.00
   -8   25    4      5.16      0.00
   -7   25    4     -5.01      0.00
   -6   25    4     -0.50      0.00
   -5   25    4      2.36      0.00
   -4   25    4     -0.80      0.00
   -3   25    4     -6.36      0.00
   -2   25    4     -0.22      0.00
   -1   25    4      3.90      0.00
    0   25    4      2.17      0.00
    1   25    4     -0.04      0.00
    2   25    4     -0.72      0.00
    3   25    4     -2.88      0.00
    4   25    4      1.60      0.00
    5   25    4      2.25      0.00
    6   25    4      0.32      0.00
    7   25    4     -0.99      0.00
    8   25    4      0.13      0.00
    9   25    4     -3.22      0.00
   10   25    4      0.04      0.00
   11   25    4     -1.78      0.00
  -13   26    4      0.48      0.00
  -12   26    4     -0.11      0.00
  -11   26    4      0.13      0.00
  -10   26    4     -0.98      0.00
   -9   26    4      0.60      0.00
   -8   26    4     -0.47      0.00
   -7   26    4      4.06      0.00
   -6   26    4     -4.03      0.00
   -5   26    4     -5.12      0.00
   -4   26    4     -0.70      0.00
   -3   26    4      3.14      0.00
   -2   26    4     -3.96      0.00
   -1   26    4     -0.68      0.00
    0   26    4      4.30      0.00
    1   26    4     -1.56      0.00
    2   26    4      1.12      0.00
    3   26    4     -0.85      0.00
    4   26    4     -5.66      0.00
    5   26    4      2.36      0.00
    6   26    4      5.69      0.00
    7   26    4     -1.10      0.00
    8   26    4     -6.12      0.00
    9   26    4      0.31      0.00
   10   26    4     -0.61      0.00
  -12   27    4     -0.86      0.00
  -11   27    4      0.32      0.00
  -10   27    4      1.21      0.00
   -9   27    4     -0.16      0.00
   -8   27    4      0.97      0.00
   -7   27    4     -3.64      0.00
   -6   27    4     -2.23      0.00
   -5   27    4      1.15      0.00
   -4   27    4      1.95      0.00
   -3   27    4     -3.36      0.00
   -2   27    4      0.66      0.00
   -1   27    4      0.28      0.00
    0   27    4     -0.79      0.00
    1   27    4      1.40      0.00
    2   27    4     -1.48      0.00
    3   27    4      0.90      0.00
    4   27    4     -0.65      0.00
    5   27    4     -3.15      0.00
    6   27    4      0.74      0.00
    7   27    4      0.85      0.00
    8   27    4      0.51      0.00
    9   27    4     -3.14      0.00
  -11   28    4     -1.75      0.00
  -10   28    4      0.73      0.00
   -9   28    4      0.39      0.00
   -8   28    4     -2.76      0.00
   -7   28    4      0.09      0.00
   -6   28    4      0.83      0.00
   -5   28    4      0.40      0.00
   -4   28    4     -0.26      0.00
   -3   28    4      1.16      0.00
   -2   28    4     -1.55      0.00
   -1   28    4      0.02      0.00
    0   28    4     -0.18      0.00
    1   28    4     -0.11      0.00
    2   28    4      2.26      0.00
    3   28    4      1.10      0.00
    4   28    4     -3.36      0.00
    5   28    4     -2.83      0.00
    6   28    4      1.00      0.00
    7   28    4      2.62      0.00
    8   28    4     -1.96      0.00
  -10   29    4     -1.33      0.00
   -9   29    4     -0.17      0.00
   -8   29    4      0.21      0.00
   -7   29    4     -0.67      0.00
   -6   29    4     -0.20      0.00
   -5   29    4     -0.39      0.00
   -4   29    4      1.30      0.00
   -3   29    4     -0.41      0.00
   -2   29    4      0.72      0.00
   -1   29    4     -0.06      0.00
    0   29    4     -1.51      0.00
    1   29    4      0.86      0.00
    2   29    4      4.57      0.00
    3   29    4     -1.67      0.00
    4   29    4     -1.94      0.00
    5   29    4     -0.30      0.00
    6   29    4      0.02      0.00
   -8   30    4      0.90      0.00
   -7   30    4      0.20      0.00
   -6   30    4     -2.33      0.00
   -5   30    4     -0.34      0.00
   -4   30    4      0.80      0.00
   -3   30    4      0.90      0.00
   -2   30    4      0.18      0.00
   -1   30    4     -0.24      0.00
    0   30    4     -1.34      0.00
    1   30    4     -0.19      0.00
    2   30    4      1.55      0.00
    3   30    4      4.83      0.00
    4   30    4     -2.20      0.00
    5   30    4     -2.84      0.00
   -5   31    4     -2.04      0.00
   -4   31    4      1.70      0.00
   -3   31    4      2.05      0.00
   -2   31    4     -2.71      0.00
   -1   31    4     -1.20      0.00
    0   31    4      1.24      0.00
    1   31    4     -0.87      0.00
    2   31    4      1.17      0.00
  -21    0    5      1.10      0.00
  -19    0    5      0.17      0.00
  -17    0    5     -4.31      0.00
  -15    0    5     -7.51      0.00
  -13    0    5     -7.96      0.00
  -11    0    5     22.27      0.00
   -9    0    5    -41.64      0.00
   -7    0    5    -13.09      0.00
   -5    0    5    -39.01      0.00
   -3    0    5     50.99      0.00
   -1    0    5    -72.39      0.00
    1    0    5    -94.59      0.00
    3    0    5      3.93      0.00
    5    0    5    -17.00      0.00
    7    0    5     14.63      0.00
    9    0    5     -9.47      0.00
   11    0    5      0.88      0.00
   13    0    5     -9.21      0.00
   15    0    5      0.38      0.00
   17    0    5      0.86      0.00
  -22    1    5      0.91      0.00
  -21    1    5      3.12      0.00
  -20    1    5     -3.63      0.00
  -19    1    5     -6.05      0.00
  -18    1    5      2.34      0.00
  -17    1    5     -2.55      0.00
  -16    1    5     -5.66      0.00
  -15    1    5      7.48      0.00
  -14    1    5     -3.75      0.00
  -13    1    5      8.52      0.00
  -12    1    5     -1.95      0.00
  -11    1    5     -6.30      0.00
  -10    1    5     -7.23      0.00
   -9    1    5    -24.52      0.00
   -8    1    5    -21.15      0.00
   -7    1    5      0.89      0.00
   -6    1    5    -16.97      0.00
   -5    1    5     -8.64      0.00
   -4    1    5     12.78      0.00
   -3    1    5     62.89      0.00
   -2    1    5    -40.28      0.00
   -1    1    5    -70.51      0.00
    0    1    5    -57.78      0.00
    1    1    5     16.79      0.00
    2    1    5    -40.21      0.00
    3    1    5     -8.38      0.00
    4    1    5      4.23      0.00
    5    1    5      8.68      0.00
    6    1    5    -11.78      0.00
    7    1    5    -16.43      0.00
    8    1    5      4.71      0.00
    9    1    5     -3.11      0.00
   10    1    5      0.19      0.00
   11    1    5      2.89      0.00
   12    1    5     -8.19      0.00
   13    1    5     -1.25      0.00
   14    1    5     -2.90      0.00
   15    1    5     -1.98      0.00
   16    1    5      1.02      0.00
   17    1    5      0.28      0.00
   18    1    5      0.15      0.00
  -22    2    5      0.21      0.00
  -21    2    5     -1.09      0.00
  -20    2    5     -0.39      0.00
  -19    2    5     -4.34      0.00
  -18    2    5     -7.48      0.00
  -17    2    5      4.62      0.00
  -16    2    5      5.90      0.00
  -15    2    5      0.07      0.00
  -14    2    5      9.73      0.00
  -13    2    5     -8.22      0.00
  -12    2    5     -9.40      0.00
  -11    2    5    -14.84      0.00
  -10    2    5     -1.38      0.00
   -9    2    5     -2.43      0.00
   -8    2    5    -27.25      0.00
   -7    2    5      0.31      0.00
   -6    2    5    -14.17      0.00
   -5    2    5     12.96      0.00
   -4    2    5      8.08      0.00
   -3    2    5    -43.04      0.00
   -2    2    5     32.41      0.00
   -1    2    5    -41.74      0.00
    0    2    5    -28.57      0.00
    1    2    5      3.01      0.00
    2    2    5     -9.66      0.00
    3    2    5    -10.69      0.00
    4    2    5      5.76      0.00
    5    2    5    -12.17      0.00
    6    2    5    -16.52      0.00
    7    2    5     -3.74      0.00
    8    2    5     -4.68      0.00
    9    2    5      3.28      0.00
   10    2    5     -4.68      0.00
   11    2    5      0.97      0.00
   12    2    5      2.29      0.00
   13    2    5     -9.35      0.00
   14    2    5     -2.03      0.00
   15    2    5      0.38      0.00
   16    2    5     -1.57      0.00
   17    2    5      1.16      0.00
   18    2    5      1.55      0.00
  -22    3    5     -0.37      0.00
  -21    3    5     -0.61      0.00
  -20    3    5     -1.55      0.00
  -19    3    5     -3.65      0.00
  -18    3    5     -1.00      0.00
  -17    3    5      2.86      0.00
  -16    3    5      7.11      0.00
  -15    3    5      5.53      0.00
  -14    3    5     -8.05      0.00
  -13    3    5    -11.01      0.00
  -12    3    5     -9.84      0.00
  -11    3    5      0.07      0.00
  -10    3    5     -1.07      0.00
   -9    3    5      6.19      0.00
   -8    3    5     -2.82      0.00
   -7    3    5    -38.72      0.00
   -6    3    5      6.78      0.00
   -5    3    5    -32.71      0.00
   -4    3    5     14.34      0.00
   -3    3    5     18.37      0.00
   -2    3    5    -55.02      0.00
   -1    3    5     47.77      0.00
    0    3    5     28.73      0.00
    1    3    5    -20.21      0.00
    2    3    5     -3.17      0.00
    3    3    5    -19.47      0.00
    4    3    5      0.36      0.00
    5    3    5     -0.62      0.00
    6    3    5     -8.06      0.00
    7    3    5    -13.67      0.00
    8    3    5     -3.17      0.00
    9    3    5      0.86      0.00
   10    3    5      3.28      0.00
   11    3    5     -4.00      0.00
   12    3    5     -0.80      0.00
   13    3    5      0.06      0.00
   14    3    5     -4.66      0.00
   15    3    5     -2.19      0.00
   16    3    5      1.30      0.00
   17    3    5      1.32      0.00
   18    3    5     -0.69      0.00
  -22    4    5     -1.11      0.00
  -21    4    5      1.98      0.00
  -20    4    5     -0.80      0.00
  -19    4    5     -0.64      0.00
  -18    4    5      1.87      0.00
  -17    4    5      0.82      0.00
  -16    4    5      3.24      0.00
  -15    4    5     -3.89      0.00
  -14    4    5     -3.94      0.00
  -13    4    5     -8.39      0.00
  -12    4    5     -9.91      0.00
  -11    4    5     15.38      0.00
  -10    4    5     16.23      0.00
   -9    4    5     -9.31      0.00
   -8    4    5    -24.79      0.00
   -7    4    5    -14.21      0.00
   -6    4    5    -24.23      0.00
   -5    4    5     17.68      0.00
   -4    4    5    -28.73      0.00
   -3    4    5      1.01      0.00
   -2    4    5     44.88      0.00
   -1    4    5     24.98      0.00
    0    4    5     27.08      0.00
    1    4    5     -1.05      0.00
    2    4    5    -25.24      0.00
    3    4    5      3.95      0.00
    4    4    5      4.40      0.00
    5    4    5      2.70      0.00
    6    4    5    -19.09      0.00
    7    4    5      2.40      0.00
    8    4    5      3.26      0.00
    9    4    5     -7.02      0.00
   10    4    5     -4.82      0.00
   11    4    5      3.87      0.00
   12    4    5      4.97      0.00
   13    4    5      0.44      0.00
   14    4    5     -7.07      0.00
   15    4    5     -1.55      0.00
   16    4    5     -0.70      0.00
   17    4    5     -0.37      0.00
   18    4    5      2.03      0.00
  -22    5    5      1.03      0.00
  -21    5    5      1.61      0.00
  -20    5    5      4.03      0.00
  -19    5    5     -3.76      0.00
  -18    5    5     -2.15      0.00
  -17    5    5      6.57      0.00
  -16    5    5     -6.17      0.00
  -15    5    5     -4.15      0.00
  -14    5    5     -0.46      0.00
  -13    5    5      5.95      0.00
  -12    5    5      3.42      0.00
  -11    5    5     -0.82      0.00
  -10    5    5     13.02      0.00
   -9    5    5    -11.87      0.00
   -8    5    5    -26.26      0.00
   -7    5    5    -12.79      0.00
   -6    5    5      8.96      0.00
   -5    5    5    -19.11      0.00
   -4    5    5     -6.31      0.00
   -3    5    5     26.60      0.00
   -2    5    5     42.03      0.00
   -1    5    5     -0.99      0.00
    0    5    5      9.95      0.00
    1    5    5     18.45      0.00
    2    5    5      7.42      0.00
    3    5    5     -0.78      0.00
    4    5    5     -9.32      0.00
    5    5    5      3.26      0.00
    6    5    5     18.54      0.00
    7    5    5     -9.32      0.00
    8    5    5     -9.37      0.00
    9    5    5     -5.05      0.00
   10    5    5      4.46      0.00
   11    5    5     11.37      0.00
   12    5    5     -2.37      0.00
   13    5    5     -6.75      0.00
   14    5    5      3.27      0.00
   15    5    5     -3.71      0.00
   16    5    5     -1.71      0.00
   17    5    5      1.00      0.00
   18    5    5      1.72      0.00
  -22    6    5     -0.58      0.00
  -21    6    5      1.70      0.00
  -20    6    5      1.19      0.00
  -19    6    5      3.20      0.00
  -18    6    5     -4.06      0.00
  -17    6    5     -7.93      0.00
  -16    6    5      7.17      0.00
  -15    6    5      0.64      0.00
  -14    6    5      5.13      0.00
  -13    6    5      8.75      0.00
  -12    6    5      3.19      0.00
  -11    6    5    -12.06      0.00
  -10    6    5     -6.01      0.00
   -9    6    5      9.54      0.00
   -8    6    5     -8.52      0.00
   -7    6    5    -14.81      0.00
   -6    6    5     -3.42      0.00
   -5    6    5     10.98      0.00
   -4    6    5     13.71      0.00
   -3    6    5    -13.66      0.00
   -2    6    5      1.27      0.00
   -1    6    5     32.20      0.00
    0    6    5     10.55      0.00
    1    6    5     25.23      0.00
    2    6    5      8.96      0.00
    3    6    5    -19.65      0.00
    4    6    5     17.33      0.00
    5    6    5     14.57      0.00
    6    6    5     -2.79      0.00
    7    6    5     -7.16      0.00
    8    6    5     -3.97      0.00
    9    6    5      8.02      0.00
   10    6    5      0.08      0.00
   11    6    5     -2.84      0.00
   12    6    5      6.14      0.00
   13    6    5     -1.25      0.00
   14    6    5     -4.74      0.00
   15    6    5      4.44      0.00
   16    6    5     -0.76      0.00
   17    6    5     -1.67      0.00
   18    6    5     -0.70      0.00
  -22    7    5      0.31      0.00
  -21    7    5     -0.28      0.00
  -20    7    5      2.37      0.00
  -19    7    5      0.31      0.00
  -18    7    5     -2.23      0.00
  -17    7    5     -1.24      0.00
  -16    7    5      1.70      0.00
  -15    7    5     14.57      0.00
  -14    7    5      4.85      0.00
  -13    7    5     -0.20      0.00
  -12    7    5     -7.27      0.00
  -11    7    5     -0.26      0.00
  -10    7    5     -7.67      0.00
   -9    7    5      8.36      0.00
   -8    7    5      9.20      0.00
   -7    7    5      0.21      0.00
   -6    7    5     -1.01      0.00
   -5    7    5     -2.11      0.00
   -4    7    5    -15.31      0.00
   -3    7    5     20.26      0.00
   -2    7    5      0.58      0.00
   -1    7    5      3.87      0.00
    0    7    5     25.99      0.00
    1    7    5     16.38      0.00
    2    7    5     -0.81      0.00
    3    7    5      3.93      0.00
    4    7    5     -1.26      0.00
    5    7    5     13.93      0.00
    6    7    5     -0.40      0.00
    7    7    5      3.73      0.00
    8    7    5     -2.69      0.00
    9    7    5     -4.15      0.00
   10    7    5      1.81      0.00
   11    7    5     -1.12      0.00
   12    7    5      2.55      0.00
   13    7    5      5.24      0.00
   14    7    5      0.79      0.00
   15    7    5     -1.63      0.00
   16    7    5      0.67      0.00
   17    7    5     -1.10      0.00
   18    7    5     -1.24      0.00
  -22    8    5     -1.66      0.00
  -21    8    5     -1.00      0.00
  -20    8    5      3.10      0.00
  -19    8    5      1.13      0.00
  -18    8    5      1.50      0.00
  -17    8    5      1.33      0.00
  -16    8    5      5.17      0.00
  -15    8    5      4.82      0.00
  -14    8    5      7.00      0.00
  -13    8    5     -4.02      0.00
  -12    8    5     -1.63      0.00
  -11    8    5     -9.49      0.00
  -10    8    5     12.79      0.00
   -9    8    5      4.17      0.00
   -8    8    5     19.10      0.00
   -7    8    5      5.13      0.00
   -6    8    5    -13.40      0.00
   -5    8    5    -14.11      0.00
   -4    8    5     25.00      0.00
   -3    8    5      1.36      0.00
   -2    8    5      4.79      0.00
   -1    8    5     -3.77      0.00
    0    8    5     17.65      0.00
    1    8    5      6.69      0.00
    2    8    5     10.92      0.00
    3    8    5     -3.76      0.00
    4    8    5      0.75      0.00
    5    8    5      7.14      0.00
    6    8    5      9.20      0.00
    7    8    5     -9.37      0.00
    8    8    5      3.32      0.00
    9    8    5     -2.73      0.00
   10    8    5     -3.98      0.00
   11    8    5      0.41      0.00
   12    8    5      5.17      0.00
   13    8    5     10.14      0.00
   14    8    5     -0.13      0.00
   15    8    5     -2.51      0.00
   16    8    5     -0.65      0.00
   17    8    5     -1.66      0.00
  -21    9    5      1.43      0.00
  -20    9    5      1.48      0.00
  -19    9    5      4.35      0.00
  -18    9    5     -2.17      0.00
  -17    9    5      4.04      0.00
  -16    9    5      3.20      0.00
  -15    9    5     -1.42      0.00
  -14    9    5     -0.76      0.00
  -13    9    5     11.37      0.00
  -12    9    5     -4.08      0.00
  -11    9    5     -0.98      0.00
  -10    9    5     -1.76      0.00
   -9    9    5     30.09      0.00
   -8    9    5      2.81      0.00
   -7    9    5     -4.34      0.00
   -6    9    5     -0.51      0.00
   -5    9    5     12.23      0.00
   -4    9    5     -6.72      0.00
   -3    9    5     23.97      0.00
   -2    9    5     -0.06      0.00
   -1    9    5     -1.99      0.00
    0    9    5     -0.51      0.00
    1    9    5     22.99      0.00
    2    9    5     -1.66      0.00
    3    9    5      3.37      0.00
    4    9    5     -0.32      0.00
    5    9    5     -5.18      0.00
    6    9    5      0.38      0.00
    7    9    5     11.27      0.00
    8    9    5     -3.90      0.00
    9    9    5     -6.30      0.00
   10    9    5     -6.10      0.00
   11    9    5     11.11      0.00
   12    9    5      8.97      0.00
   13    9    5     -3.43      0.00
   14    9    5      1.19      0.00
   15    9    5      0.82      0.00
   16    9    5     -1.48      0.00
   17    9    5     -1.19      0.00
  -21   10    5     -2.44      0.00
  -20   10    5      0.88      0.00
  -19   10    5      1.12      0.00
  -18   10    5      6.48      0.00
  -17   10    5     -6.73      0.00
  -16   10    5     -2.70      0.00
  -15   10    5      4.13      0.00
  -14   10    5      5.92      0.00
  -13   10    5      2.26      0.00
  -12   10    5      6.20      0.00
  -11   10    5     -6.28      0.00
  -10   10    5     10.46      0.00
   -9   10    5      5.10      0.00
   -8   10    5     16.14      0.00
   -7   10    5     -4.77      0.00
   -6   10    5      4.87      0.00
   -5   10    5      5.36      0.00
   -4   10    5     18.09      0.00
   -3   10    5     -3.84      0.00
   -2   10    5     15.26      0.00
   -1   10    5     -0.09      0.00
    0   10    5      3.16      0.00
    1   10    5     14.05      0.00
    2   10    5     15.76      0.00
    3   10    5    -16.18      0.00
    4   10    5    -11.74      0.00
    5   10    5      7.21      0.00
    6   10    5      9.54      0.00
    7   10    5     -4.63      0.00
    8   10    5     -3.12      0.00
    9   10    5      2.61      0.00
   10   10    5      5.36      0.00
   11   10    5     -4.31      0.00
   12   10    5      3.77      0.00
   13   10    5      3.87      0.00
   14   10    5     -3.16      0.00
   15   10    5      1.12      0.00
   16   10    5      2.07      0.00
   17   10    5     -1.46      0.00
  -21   11    5     -3.94      0.00
  -20   11    5      0.13      0.00
  -19   11    5      4.08      0.00
  -18   11    5     -2.54      0.00
  -17   11    5      0.71      0.00
  -16   11    5     -4.53      0.00
  -15   11    5      4.61      0.00
  -14   11    5      4.71      0.00
  -13   11    5      0.60      0.00
  -12   11    5      0.96      0.00
  -11   11    5      5.20      0.00
  -10   11    5      0.38      0.00
   -9   11    5      7.88      0.00
   -8   11    5     -3.02      0.00
   -7   11    5     11.24      0.00
   -6   11    5      7.48      0.00
   -5   11    5     17.73      0.00
   -4   11    5    -13.51      0.00
   -3   11    5      6.83      0.00
   -2   11    5     22.85      0.00
   -1   11    5     13.35      0.00
    0   11    5     -2.65      0.00
    1   11    5      3.40      0.00
    2   11    5      9.44      0.00
    3   11    5     -6.18      0.00
    4   11    5    -11.64      0.00
    5   11    5      5.86      0.00
    6   11    5      4.98      0.00
    7   11    5      2.92      0.00
    8   11    5      0.84      0.00
    9   11    5      3.58      0.00
   10   11    5     -1.00      0.00
   11   11    5     -3.87      0.00
   12   11    5     -1.24      0.00
   13   11    5      5.00      0.00
   14   11    5      1.83      0.00
   15   11    5     -1.35      0.00
   16   11    5      0.12      0.00
   17   11    5      2.75      0.00
  -21   12    5      0.51      0.00
  -20   12    5     -1.68      0.00
  -19   12    5      1.83      0.00
  -18   12    5      2.46      0.00
  -17   12    5     -2.87      0.00
  -16   12    5     -0.17      0.00
  -15   12    5     -3.57      0.00
  -14   12    5      0.27      0.00
  -13   12    5      2.73      0.00
  -12   12    5      3.73      0.00
  -11   12    5      3.06      0.00
  -10   12    5     -5.33      0.00
   -9   12    5     -2.42      0.00
   -8   12    5      8.22      0.00
   -7   12    5     11.04      0.00
   -6   12    5     16.25      0.00
   -5   12    5    -16.53      0.00
   -4   12    5      9.82      0.00
   -3   12    5     10.85      0.00
   -2   12    5      8.26      0.00
   -1   12    5     15.83      0.00
    0   12    5     -5.38      0.00
    1   12    5     -4.15      0.00
    2   12    5      5.88      0.00
    3   12    5      8.99      0.00
    4   12    5     -5.28      0.00
    5   12    5     -3.84      0.00
    6   12    5     12.31      0.00
    7   12    5      3.74      0.00
    8   12    5     -1.01      0.00
    9   12    5     -3.94      0.00
   10   12    5      2.36      0.00
   11   12    5     -1.49      0.00
   12   12    5     -3.76      0.00
   13   12    5      4.98      0.00
   14   12    5      3.80      0.00
   15   12    5     -1.90      0.00
   16   12    5      1.84      0.00
   17   12    5      1.29      0.00
  -20   13    5      0.43      0.00
  -19   13    5      0.52      0.00
  -18   13    5     -0.88      0.00
  -17   13    5     -0.64      0.00
  -16   13    5      0.17      0.00
  -15   13    5     -6.15      0.00
  -14   13    5     -5.22      0.00
  -13   13    5      3.54      0.00
  -12   13    5      9.14      0.00
  -11   13    5     -2.95      0.00
  -10   13    5    -11.18      0.00
   -9   13    5     -1.75      0.00
   -8   13    5     20.84      0.00
   -7   13    5      7.09      0.00
   -6   13    5     -8.94      0.00
   -5   13    5     12.15      0.00
   -4   13    5     -7.95      0.00
   -3   13    5      7.50      0.00
   -2   13    5     10.23      0.00
   -1   13    5    -14.41      0.00
    0   13    5      2.77      0.00
    1   13    5      7.31      0.00
    2   13    5      9.22      0.00
    3   13    5      3.63      0.00
    4   13    5      3.83      0.00
    5   13    5      0.91      0.00
    6   13    5     -3.07      0.00
    7   13    5      2.44      0.00
    8   13    5      2.00      0.00
    9   13    5      2.04      0.00
   10   13    5     -4.76      0.00
   11   13    5      1.29      0.00
   12   13    5      4.28      0.00
   13   13    5     -1.13      0.00
   14   13    5      0.19      0.00
   15   13    5      2.44      0.00
   16   13    5     -0.25      0.00
  -20   14    5      0.96      0.00
  -19   14    5     -2.33      0.00
  -18   14    5      2.95      0.00
  -17   14    5      1.84      0.00
  -16   14    5     -7.71      0.00
  -15   14    5     -3.19      0.00
  -14   14    5     -3.48      0.00
  -13   14    5      8.36      0.00
  -12   14    5      0.58      0.00
  -11   14    5     -7.94      0.00
  -10   14    5     -2.80      0.00
   -9   14    5      7.66      0.00
   -8   14    5      7.46      0.00
   -7   14    5      5.17      0.00
   -6   14    5     -2.13      0.00
   -5   14    5     -3.71      0.00
   -4   14    5      5.88      0.00
   -3   14    5    -12.92      0.00
   -2   14    5     -9.96      0.00
   -1   14    5      5.56      0.00
    0   14    5     -1.72      0.00
    1   14    5      5.93      0.00
    2   14    5     11.52      0.00
    3   14    5      8.22      0.00
    4   14    5     -5.23      0.00
    5   14    5     -4.21      0.00
    6   14    5      2.16      0.00
    7   14    5      1.47      0.00
    8   14    5     -0.39      0.00
    9   14    5      2.08      0.00
   10   14    5      6.30      0.00
   11   14    5     -0.49      0.00
   12   14    5     -3.75      0.00
   13   14    5      1.61      0.00
   14   14    5      1.55      0.00
   15   14    5     -1.07      0.00
   16   14    5      0.80      0.00
  -20   15    5     -1.78      0.00
  -19   15    5      4.15      0.00
  -18   15    5     -1.06      0.00
  -17   15    5     -2.75      0.00
  -16   15    5      0.65      0.00
  -15   15    5     -2.22      0.00
  -14   15    5      4.29      0.00
  -13   15    5     -8.49      0.00
  -12   15    5      1.30      0.00
  -11   15    5      0.74      0.00
  -10   15    5      1.23      0.00
   -9   15    5      7.90      0.00
   -8   15    5      1.06      0.00
   -7   15    5     -3.47      0.00
   -6   15    5      0.45      0.00
   -5   15    5      5.30      0.00
   -4   15    5     -7.02      0.00
   -3   15    5    -24.57      0.00
   -2   15    5     -3.37      0.00
   -1   15    5     14.01      0.00
    0   15    5     -2.25      0.00
    1   15    5     -7.38      0.00
    2   15    5      6.97      0.00
    3   15    5      8.75      0.00
    4   15    5     -3.41      0.00
    5   15    5    -10.29      0.00
    6   15    5      3.12      0.00
    7   15    5      6.92      0.00
    8   15    5      1.91      0.00
    9   15    5      1.67      0.00
   10   15    5      4.02      0.00
   11   15    5     -2.32      0.00
   12   15    5     -1.90      0.00
   13   15    5      0.88      0.00
   14   15    5     -0.20      0.00
   15   15    5     -0.30      0.00
   16   15    5     -2.40      0.00
  -19   16    5     -1.52      0.00
  -18   16    5      2.91      0.00
  -17   16    5      1.57      0.00
  -16   16    5      0.11      0.00
  -15   16    5      1.44      0.00
  -14   16    5     -7.96      0.00
  -13   16    5     -3.19      0.00
  -12   16    5      0.36      0.00
  -11   16    5     14.68      0.00
  -10   16    5     -0.50      0.00
   -9   16    5     -7.60      0.00
   -8   16    5      2.74      0.00
   -7   16    5      1.60      0.00
   -6   16    5      3.48      0.00
   -5   16    5     -5.73      0.00
   -4   16    5     -9.75      0.00
   -3   16    5      4.28      0.00
   -2   16    5    -11.58      0.00
   -1   16    5     -3.95      0.00
    0   16    5      5.42      0.00
    1   16    5    -11.33      0.00
    2   16    5     -4.52      0.00
    3   16    5      7.65      0.00
    4   16    5     -0.52      0.00
    5   16    5     -4.31      0.00
    6   16    5     -0.38      0.00
    7   16    5     11.36      0.00
    8   16    5      4.01      0.00
    9   16    5     -5.74      0.00
   10   16    5     -2.76      0.00
   11   16    5      4.66      0.00
   12   16    5     -3.33      0.00
   13   16    5     -1.75      0.00
   14   16    5      2.18      0.00
   15   16    5     -3.43      0.00
  -19   17    5     -0.59      0.00
  -18   17    5      1.27      0.00
  -17   17    5      1.07      0.00
  -16   17    5      1.88      0.00
  -15   17    5     -1.68      0.00
  -14   17    5     -2.76      0.00
  -13   17    5     -1.15      0.00
  -12   17    5      4.40      0.00
  -11   17    5      4.81      0.00
  -10   17    5      5.10      0.00
   -9   17    5    -14.20      0.00
   -8   17    5     -0.19      0.00
   -7   17    5     10.67      0.00
   -6   17    5     -2.57      0.00
   -5   17    5      0.43      0.00
   -4   17    5      4.02      0.00
   -3   17    5     -7.89      0.00
   -2   17    5      0.35      0.00
   -1   17    5    -11.58      0.00
    0   17    5    -11.69      0.00
    1   17    5      0.09      0.00
    2   17    5     -2.74      0.00
    3   17    5     -1.33      0.00
    4   17    5      4.85      0.00
    5   17    5      1.42      0.00
    6   17    5      2.75      0.00
    7   17    5     -2.18      0.00
    8   17    5      2.55      0.00
    9   17    5     -2.83      0.00
   10   17    5     -2.92      0.00
   11   17    5     -0.33      0.00
   12   17    5      2.04      0.00
   13   17    5     -1.45      0.00
   14   17    5     -2.56      0.00
   15   17    5      0.16      0.00
  -19   18    5      0.06      0.00
  -18   18    5     -0.69      0.00
  -17   18    5      4.08      0.00
  -16   18    5      1.60      0.00
  -15   18    5      0.01      0.00
  -14   18    5     -2.31      0.00
  -13   18    5     -1.16      0.00
  -12   18    5      5.99      0.00
  -11   18    5      0.17      0.00
  -10   18    5     -8.15      0.00
   -9   18    5      3.24      0.00
   -8   18    5     -6.20      0.00
   -7   18    5      8.36      0.00
   -6   18    5      7.80      0.00
   -5   18    5     -0.49      0.00
   -4   18    5     -1.43      0.00
   -3   18    5      3.57      0.00
   -2   18    5     -8.57      0.00
   -1   18    5    -11.50      0.00
    0   18    5     -5.69      0.00
    1   18    5      0.24      0.00
    2   18    5     -1.57      0.00
    3   18    5      3.06      0.00
    4   18    5      1.96      0.00
    5   18    5      0.38      0.00
    6   18    5     -2.53      0.00
    7   18    5      1.14      0.00
    8   18    5     -3.20      0.00
    9   18    5      1.30      0.00
   10   18    5     -3.57      0.00
   11   18    5      1.98      0.00
   12   18    5      1.71      0.00
   14   18    5     -0.35      0.00
  -18   19    5      3.82      0.00
  -17   19    5     -1.09      0.00
  -16   19    5      0.49      0.00
  -15   19    5      0.54      0.00
  -14   19    5      1.98      0.00
  -13   19    5     -1.22      0.00
  -12   19    5     -4.39      0.00
  -11   19    5      0.30      0.00
  -10   19    5     -1.50      0.00
   -9   19    5     -4.55      0.00
   -8   19    5     12.11      0.00
   -7   19    5     -2.86      0.00
   -6   19    5      1.02      0.00
   -5   19    5      1.88      0.00
   -4   19    5     10.08      0.00
   -3   19    5     -8.01      0.00
   -2   19    5    -12.59      0.00
   -1   19    5      6.22      0.00
    0   19    5      3.81      0.00
    1   19    5     -6.28      0.00
    2   19    5     -1.92      0.00
    3   19    5     -0.52      0.00
    4   19    5      8.95      0.00
    5   19    5     -2.57      0.00
    6   19    5     -8.26      0.00
    7   19    5     -0.81      0.00
    8   19    5      5.28      0.00
    9   19    5     -0.27      0.00
   10   19    5      3.46      0.00
   11   19    5     -4.05      0.00
   12   19    5     -1.99      0.00
   13   19    5      2.42      0.00
   14   19    5     -1.02      0.00
  -18   20    5     -2.72      0.00
  -17   20    5      3.16      0.00
  -16   20    5      0.15      0.00
  -15   20    5      1.42      0.00
  -14   20    5     -0.08      0.00
  -13   20    5     -2.61      0.00
  -12   20    5     -7.51      0.00
  -11   20    5      2.45      0.00
  -10   20    5      7.68      0.00
   -9   20    5     -0.25      0.00
   -8   20    5     -7.20      0.00
   -7   20    5      6.30      0.00
   -6   20    5      0.25      0.00
   -5   20    5      1.22      0.00
   -4   20    5     -9.10      0.00
   -3   20    5      7.88      0.00
   -2   20    5      6.39      0.00
   -1   20    5     -3.33      0.00
    0   20    5      4.55      0.00
    1   20    5     -4.04      0.00
    2   20    5     -6.84      0.00
    3   20    5      8.25      0.00
    4   20    5      1.64      0.00
    5   20    5     -2.16      0.00
    6   20    5     -5.55      0.00
    7   20    5      0.06      0.00
    8   20    5      6.58      0.00
    9   20    5      4.24      0.00
   10   20    5     -4.26      0.00
   11   20    5      0.32      0.00
   12   20    5     -0.96      0.00
   13   20    5     -0.73      0.00
  -17   21    5     -1.74      0.00
  -16   21    5      1.84      0.00
  -15   21    5     -1.29      0.00
  -14   21    5     -0.05      0.00
  -13   21    5     -0.93      0.00
  -12   21    5      0.26      0.00
  -11   21    5     -2.22      0.00
  -10   21    5      6.58      0.00
   -9   21    5     -0.09      0.00
   -8   21    5     -6.25      0.00
   -7   21    5     -1.75      0.00
   -6   21    5      1.02      0.00
   -5   21    5     -6.29      0.00
   -4   21    5      5.83      0.00
   -3   21    5      4.62      0.00
   -2   21    5      6.65      0.00
   -1   21    5      0.46      0.00
    0   21    5     -6.50      0.00
    1   21    5      2.84      0.00
    2   21    5      1.81      0.00
    3   21    5     -1.88      0.00
    4   21    5      2.24      0.00
    5   21    5      0.74      0.00
    6   21    5      0.31      0.00
    7   21    5     -0.57      0.00
    8   21    5      0.43      0.00
    9   21    5      1.50      0.00
   11   21    5     -0.89      0.00
   12   21    5     -0.47      0.00
   13   21    5     -1.33      0.00
  -16   22    5     -1.74      0.00
  -15   22    5      2.77      0.00
  -14   22    5      0.83      0.00
  -13   22    5     -0.98      0.00
  -12   22    5     -0.96      0.00
  -11   22    5      1.25      0.00
  -10   22    5     -2.54      0.00
   -9   22    5      3.13      0.00
   -8   22    5     -4.24      0.00
   -7   22    5     -9.71      0.00
   -6   22    5      1.95      0.00
   -5   22    5      7.44      0.00
   -4   22    5     -2.28      0.00
   -3   22    5      0.35      0.00
   -2   22    5      6.10      0.00
   -1   22    5      0.56      0.00
    0   22    5     -2.76      0.00
    1   22    5      1.23      0.00
    2   22    5      2.64      0.00
    3   22    5     -2.99      0.00
    4   22    5      3.91      0.00
    5   22    5      2.62      0.00
    6   22    5     -2.01      0.00
    7   22    5     -1.77      0.00
    8   22    5      0.74      0.00
    9   22    5      2.42      0.00
   10   22    5     -1.00      0.00
   11   22    5      0.44      0.00
   12   22    5      0.62      0.00
  -16   23    5      1.96      0.00
  -15   23    5      0.92      0.00
  -14   23    5     -0.05      0.00
  -13   23    5     -0.24      0.00
  -12   23    5     -2.20      0.00
  -11   23    5      0.47      0.00
  -10   23    5      1.04      0.00
   -9   23    5     -4.87      0.00
   -8   23    5     -0.78      0.00
   -7   23    5      2.21      0.00
   -6   23    5     -2.15      0.00
   -5   23    5     -2.76      0.00
   -4   23    5      3.16      0.00
   -3   23    5      4.12      0.00
   -2   23    5     -6.54      0.00
   -1   23    5      1.94      0.00
    0   23    5      4.25      0.00
    1   23    5      0.09      0.00
    2   23    5     -0.74      0.00
    3   23    5     -0.06      0.00
    4   23    5     -2.07      0.00
    5   23    5      7.19      0.00
    6   23    5      0.15      0.00
    7   23    5     -5.32      0.00
    8   23    5     -1.92      0.00
    9   23    5      0.31      0.00
   10   23    5      2.14      0.00
   11   23    5     -0.80      0.00
   12   23    5      0.52      0.00
  -15   24    5      0.87      0.00
  -14   24    5      0.07      0.00
  -13   24    5     -1.02      0.00
  -12   24    5      1.18      0.00
  -11   24    5     -2.53      0.00
  -10   24    5      1.94      0.00
   -9   24    5      2.16      0.00
   -8   24    5     -1.53      0.00
   -7   24    5     -3.44      0.00
   -6   24    5      0.66      0.00
   -5   24    5      1.78      0.00
   -4   24    5     -4.43      0.00
   -3   24    5     -4.87      0.00
   -2   24    5      5.53      0.00
   -1   24    5     -2.58      0.00
    0   24    5      3.83      0.00
    1   24    5      1.79      0.00
    2   24    5     -5.97      0.00
    3   24    5     -1.40      0.00
    4   24    5      7.03      0.00
    5   24    5     -0.80      0.00
    6   24    5     -2.63      0.00
    7   24    5     -2.12      0.00
    8   24    5     -0.80      0.00
    9   24    5     -0.38      0.00
   10   24    5     -0.49      0.00
   11   24    5      0.98      0.00
  -14   25    5     -0.27      0.00
  -13   25    5      1.78      0.00
  -12   25    5     -0.08      0.00
  -11   25    5      0.87      0.00
  -10   25    5     -0.42      0.00
   -9   25    5      3.22      0.00
   -8   25    5     -2.27      0.00
   -7   25    5     -1.14      0.00
   -6   25    5     -0.82      0.00
   -5   25    5     -2.68      0.00
   -4   25    5     -3.28      0.00
   -3   25    5     -0.19      0.00
   -2   25    5     -0.47      0.00
   -1   25    5      3.97      0.00
    0   25    5     -2.30      0.00
    1   25    5     -1.18      0.00
    2   25    5     -0.75      0.00
    3   25    5     -1.02      0.00
    4   25    5     -0.52      0.00
    5   25    5      1.50      0.00
    6   25    5      0.15      0.00
    7   25    5     -1.05      0.00
    8   25    5     -2.27      0.00
    9   25    5     -0.73      0.00
   10   25    5     -0.27      0.00
  -13   26    5      0.01      0.00
  -12   26    5      1.59      0.00
  -11   26    5      0.37      0.00
  -10   26    5      0.23      0.00
   -9   26    5     -0.91      0.00
   -8   26    5      2.91      0.00
   -7   26    5     -4.34      0.00
   -6   26    5     -4.35      0.00
   -5   26    5      1.90      0.00
   -4   26    5      3.66      0.00
   -3   26    5     -4.08      0.00
   -2   26    5     -1.26      0.00
   -1   26    5      1.25      0.00
    0   26    5     -1.08      0.00
    1   26    5      0.53      0.00
    2   26    5      0.27      0.00
    3   26    5     -4.93      0.00
    4   26    5     -0.47      0.00
    5   26    5      4.96      0.00
    6   26    5     -0.80      0.00
    7   26    5     -4.35      0.00
    8   26    5      0.58      0.00
    9   26    5      1.20      0.00
  -12   27    5     -0.05      0.00
  -11   27    5      0.42      0.00
  -10   27    5      0.55      0.00
   -9   27    5     -0.36      0.00
   -8   27    5     -4.16      0.00
   -7   27    5      0.53      0.00
   -6   27    5      3.35      0.00
   -5   27    5      1.07      0.00
   -4   27    5     -3.38      0.00
   -3   27    5      1.75      0.00
   -2   27    5     -0.59      0.00
   -1   27    5     -2.13      0.00
    0   27    5      1.70      0.00
    1   27    5     -1.13      0.00
    2   27    5      2.09      0.00
    3   27    5      0.08      0.00
    4   27    5     -5.04      0.00
    5   27    5     -1.40      0.00
    6   27    5      3.59      0.00
    7   27    5      1.83      0.00
    8   27    5     -1.98      0.00
  -11   28    5      0.71      0.00
  -10   28    5      0.40      0.00
   -9   28    5     -1.97      0.00
   -8   28    5      1.08      0.00
   -7   28    5      1.47      0.00
   -6   28    5     -1.21      0.00
   -5   28    5     -0.84      0.00
   -4   28    5      1.73      0.00
   -3   28    5     -1.92      0.00
   -2   28    5      1.38      0.00
   -1   28    5      0.93      0.00
    0   28    5     -2.00      0.00
    1   28    5      2.96      0.00
    2   28    5      0.94      0.00
    3   28    5     -2.03      0.00
    4   28    5     -2.48      0.00
    5   28    5      1.08      0.00
    6   28    5      2.22      0.00
    7   28    5     -1.06      0.00
  -10   29    5      0.05      0.00
   -9   29    5      1.84      0.00
   -8   29    5     -0.89      0.00
   -7   29    5     -1.97      0.00
   -6   29    5     -0.56      0.00
   -5   29    5      0.62      0.00
   -4   29    5     -1.26      0.00
   -3   29    5      1.72      0.00
   -2   29    5      0.53      0.00
   -1   29    5     -2.08      0.00
    0   29    5      1.16      0.00
    1   29    5      3.02      0.00
    2   29    5     -0.29      0.00
    3   29    5     -0.73      0.00
    4   29    5      0.59      0.00
    5   29    5     -0.78      0.00
   -8   30    5      0.06      0.00
   -7   30    5     -2.84      0.00
   -6   30    5     -1.72      0.00
   -5   30    5      0.59      0.00
   -4   30    5      1.85      0.00
   -3   30    5     -1.83      0.00
   -2   30    5     -1.02      0.00
   -1   30    5      0.81      0.00
    0   30    5     -1.03      0.00
    1   30    5      0.69      0.00
    2   30    5      4.98      0.00
    3   30    5     -1.03      0.00
    4   30    5     -2.99      0.00
   -5   31    5      1.05      0.00
   -4   31    5      0.97      0.00
   -3   31    5     -2.25      0.00
   -2   31    5     -1.63      0.00
   -1   31    5      0.85      0.00
    0   31    5      0.23      0.00
    1   31    5      0.52      0.00
  -22    0    6      2.69      0.00
  -20    0    6     -4.90      0.00
  -18    0    6     -2.67      0.00
  -16    0    6      2.61      0.00
  -14    0    6      3.05      0.00
  -12    0    6     17.53      0.00
  -10    0    6    -45.23      0.00
   -8    0    6    -16.57      0.00
   -6    0    6    -21.70      0.00
   -4    0    6     58.24      0.00
   -2    0    6    -58.69      0.00
    0    0    6    -50.58      0.00
    2    0    6      5.98      0.00
    4    0    6    -13.38      0.00
    6    0    6     -8.53      0.00
    8    0    6     -6.62      0.00
   10    0    6      3.36      0.00
   12    0    6     -9.59      0.00
   14    0    6     -0.93      0.00
   16    0    6     -0.29      0.00
  -22    1    6      1.39      0.00
  -21    1    6     -2.62      0.00
  -20    1    6     -5.00      0.00
  -19    1    6     -0.22      0.00
  -18    1    6      1.74      0.00
  -17    1    6     -0.44      0.00
  -16    1    6      7.85      0.00
  -15    1    6      2.51      0.00
  -14    1    6      1.23      0.00
  -13    1    6      0.93      0.00
  -12    1    6    -12.27      0.00
  -11    1    6      0.69      0.00
  -10    1    6     -0.48      0.00
   -9    1    6    -31.95      0.00
   -8    1    6      8.35      0.00
   -7    1    6    -13.67      0.00
   -6    1    6     -3.92      0.00
   -5    1    6      4.37      0.00
   -4    1    6      3.78      0.00
   -3    1    6      1.44      0.00
   -2    1    6    -30.47      0.00
   -1    1    6    -31.21      0.00
    0    1    6     52.74      0.00
    1    1    6    -29.27      0.00
    2    1    6    -10.12      0.00
    3    1    6      9.42      0.00
    4    1    6      8.45      0.00
    5    1    6    -25.20      0.00
    6    1    6    -20.35      0.00
    7    1    6      2.77      0.00
    8    1    6      1.72      0.00
    9    1    6     -0.79      0.00
   10    1    6      2.67      0.00
   11    1    6     -6.16      0.00
   12    1    6     -2.00      0.00
   13    1    6     -3.13      0.00
   14    1    6     -0.76      0.00
   15    1    6     -0.19      0.00
   16    1    6      0.93      0.00
   17    1    6     -0.56      0.00
  -22    2    6     -1.85      0.00
  -21    2    6      1.03      0.00
  -20    2    6     -1.90      0.00
  -19    2    6     -5.78      0.00
  -18    2    6      6.08      0.00
  -17    2    6      8.60      0.00
  -16    2    6     -1.19      0.00
  -15    2    6      3.23      0.00
  -14    2    6     -8.53      0.00
  -13    2    6    -10.18      0.00
  -12    2    6      0.51      0.00
  -11    2    6      8.99      0.00
  -10    2    6      7.15      0.00
   -9    2    6     -9.84      0.00
   -8    2    6    -17.54      0.00
   -7    2    6     -5.80      0.00
   -6    2    6     -4.96      0.00
   -5    2    6    -11.29      0.00
   -4    2    6    -24.45      0.00
   -3    2    6     12.61      0.00
   -2    2    6     19.16      0.00
   -1    2    6     20.50      0.00
    0    2    6      0.28      0.00
    1    2    6     15.75      0.00
    2    2    6    -14.34      0.00
    3    2    6      4.41      0.00
    4    2    6     -8.70      0.00
    5    2    6    -10.12      0.00
    6    2    6     -6.15      0.00
    7    2    6    -11.33      0.00
    8    2    6      4.10      0.00
    9    2    6     -1.23      0.00
   10    2    6     -1.49      0.00
   11    2    6      3.82      0.00
   12    2    6     -7.08      0.00
   13    2    6     -2.35      0.00
   14    2    6      0.88      0.00
   15    2    6     -0.39      0.00
   16    2    6      0.00      0.00
   17    2    6      1.07      0.00
  -22    3    6      0.52      0.00
  -21    3    6      0.17      0.00
  -20    3    6     -0.78      0.00
  -19    3    6      1.96      0.00
  -18    3    6      0.04      0.00
  -17    3    6      5.11      0.00
  -16    3    6      2.23      0.00
  -15    3    6    -10.05      0.00
  -14    3    6     -6.67      0.00
  -13    3    6     -2.08      0.00
  -12    3    6     11.15      0.00
  -11    3    6      9.53      0.00
  -10    3    6     10.84      0.00
   -9    3    6     -1.60      0.00
   -8    3    6    -38.09      0.00
   -7    3    6     -0.69      0.00
   -6    3    6    -16.70      0.00
   -5    3    6      2.15      0.00
   -4    3    6      5.88      0.00
   -3    3    6    -21.97      0.00
   -2    3    6     57.81      0.00
   -1    3    6     44.24      0.00
    0    3    6     -2.71      0.00
    1    3    6     -4.97      0.00
    2    3    6     -4.27      0.00
    3    3    6      3.90      0.00
    4    3    6     15.08      0.00
    5    3    6     -8.44      0.00
    6    3    6    -18.05      0.00
    7    3    6      1.30      0.00
    8    3    6     -3.03      0.00
    9    3    6      2.32      0.00
   10    3    6     -1.58      0.00
   11    3    6     -0.30      0.00
   12    3    6      3.51      0.00
   13    3    6     -4.64      0.00
   14    3    6     -2.22      0.00
   15    3    6      1.01      0.00
   16    3    6      0.63      0.00
   17    3    6     -1.32      0.00
  -22    4    6      1.34      0.00
  -21    4    6      1.49      0.00
  -20    4    6      0.93      0.00
  -19    4    6     -0.98      0.00
  -18    4    6      1.38      0.00
  -17    4    6     -1.56      0.00
  -16    4    6     -2.69      0.00
  -15    4    6      0.15      0.00
  -14    4    6     -0.42      0.00
  -13    4    6     -0.79      0.00
  -12    4    6     11.25      0.00
  -11    4    6     20.67      0.00
  -10    4    6     -7.85      0.00
   -9    4    6    -21.04      0.00
   -8    4    6      2.78      0.00
   -7    4    6    -23.02      0.00
   -6    4    6     22.56      0.00
   -5    4    6    -22.79      0.00
   -4    4    6      1.77      0.00
   -3    4    6     45.13      0.00
   -2    4    6      5.40      0.00
   -1    4    6     27.08      0.00
    0    4    6     15.55      0.00
    1    4    6    -10.69      0.00
    2    4    6     18.41      0.00
    3    4    6      9.81      0.00
    4    4    6      3.38      0.00
    5    4    6     -3.71      0.00
    6    4    6      4.10      0.00
    7    4    6     -5.27      0.00
    8    4    6     -6.99      0.00
    9    4    6     -3.89      0.00
   10    4    6      8.68      0.00
   11    4    6      5.14      0.00
   12    4    6     -1.97      0.00
   13    4    6     -3.66      0.00
   14    4    6     -2.60      0.00
   15    4    6     -0.07      0.00
   16    4    6      0.15      0.00
   17    4    6      2.46      0.00
  -22    5    6      1.17      0.00
  -21    5    6      3.03      0.00
  -20    5    6     -2.35      0.00
  -19    5    6     -1.92      0.00
  -18    5    6      1.80      0.00
  -17    5    6     -1.54      0.00
  -16    5    6     -0.91      0.00
  -15    5    6      4.65      0.00
  -14    5    6      9.08      0.00
  -13    5    6      3.79      0.00
  -12    5    6     -6.07      0.00
  -11    5    6      3.34      0.00
  -10    5    6      4.84      0.00
   -9    5    6     -6.06      0.00
   -8    5    6    -11.25      0.00
   -7    5    6     22.11      0.00
   -6    5    6    -16.64      0.00
   -5    5    6     12.84      0.00
   -4    5    6      7.46      0.00
   -3    5    6      8.67      0.00
   -2    5    6      4.01      0.00
   -1    5    6      4.35      0.00
    0    5    6     31.20      0.00
    1    5    6     25.73      0.00
    2    5    6     -5.92      0.00
    3    5    6      0.59      0.00
    4    5    6     12.38      0.00
    5    5    6     22.77      0.00
    6    5    6    -12.17      0.00
    7    5    6    -10.24      0.00
    8    5    6     -0.96      0.00
    9    5    6      5.73      0.00
   10    5    6      6.83      0.00
   11    5    6     -0.49      0.00
   12    5    6     -5.56      0.00
   13    5    6      2.68      0.00
   14    5    6      0.60      0.00
   15    5    6     -1.43      0.00
   16    5    6      1.04      0.00
   17    5    6      0.63      0.00
  -22    6    6      0.52      0.00
  -21    6    6      0.20      0.00
  -20    6    6      3.62      0.00
  -19    6    6     -2.65      0.00
  -18    6    6     -6.45      0.00
  -17    6    6      7.77      0.00
  -16    6    6      6.98      0.00
  -15    6    6      5.03      0.00
  -14    6    6      4.30      0.00
  -13    6    6     -1.54      0.00
  -12    6    6    -11.01      0.00
  -11    6    6     -4.11      0.00
  -10    6    6     19.11      0.00
   -9    6    6      8.85      0.00
   -8    6    6     -0.07      0.00
   -7    6    6     -6.96      0.00
   -6    6    6     21.15      0.00
   -5    6    6      2.28      0.00
   -4    6    6     -9.62      0.00
   -3    6    6     -8.37      0.00
   -2    6    6     19.22      0.00
   -1    6    6     15.08      0.00
    0    6    6     23.52      0.00
    1    6    6      9.80      0.00
    2    6    6    -11.66      0.00
    3    6    6     16.21      0.00
    4    6    6     19.65      0.00
    5    6    6     -5.05      0.00
    6    6    6      2.41      0.00
    7    6    6     -2.67      0.00
    8    6    6      3.50      0.00
    9    6    6     -1.25      0.00
   10    6    6     -4.48      0.00
   11    6    6      6.83      0.00
   12    6    6      3.19      0.00
   13    6    6     -3.52      0.00
   14    6    6      4.76      0.00
   15    6    6      0.73      0.00
   16    6    6     -2.47      0.00
   17    6    6     -1.08      0.00
  -22    7    6     -0.72      0.00
  -21    7    6      2.80      0.00
  -20    7    6      0.84      0.00
  -19    7    6      0.42      0.00
  -18    7    6      1.05      0.00
  -17    7    6      0.43      0.00
  -16    7    6     12.76      0.00
  -15    7    6      3.12      0.00
  -14    7    6     -4.22      0.00
  -13    7    6     -6.61      0.00
  -12    7    6      1.71      0.00
  -11    7    6      1.03      0.00
  -10    7    6     10.84      0.00
   -9    7    6     21.42      0.00
   -8    7    6      5.36      0.00
   -7    7    6     -0.92      0.00
   -6    7    6     -6.22      0.00
   -5    7    6      2.82      0.00
   -4    7    6     17.90      0.00
   -3    7    6     -0.72      0.00
   -2    7    6     -6.44      0.00
   -1    7    6     22.80      0.00
    0    7    6      7.96      0.00
    1    7    6      0.02      0.00
    2    7    6     10.10      0.00
    3    7    6     -7.33      0.00
    4    7    6     14.02      0.00
    5    7    6     11.20      0.00
    6    7    6     -1.25      0.00
    7    7    6     -1.10      0.00
    8    7    6     -6.03      0.00
    9    7    6     -0.07      0.00
   10    7    6      1.05      0.00
   11    7    6      1.87      0.00
   12    7    6      9.03      0.00
   13    7    6      2.01      0.00
   14    7    6     -3.45      0.00
   15    7    6      2.51      0.00
   16    7    6     -0.88      0.00
   17    7    6     -2.01      0.00
  -22    8    6      0.52      0.00
  -21    8    6      2.13      0.00
  -20    8    6      3.10      0.00
  -19    8    6      0.65      0.00
  -18    8    6      1.03      0.00
  -17    8    6      3.58      0.00
  -16    8    6     -1.25      0.00
  -15    8    6      5.32      0.00
  -14    8    6     -1.27      0.00
  -13    8    6      0.92      0.00
  -12    8    6     -5.21      0.00
  -11    8    6     11.99      0.00
  -10    8    6      9.63      0.00
   -9    8    6     15.76      0.00
   -8    8    6      8.59      0.00
   -7    8    6     -7.21      0.00
   -6    8    6     -3.22      0.00
   -5    8    6     21.50      0.00
   -4    8    6      9.81      0.00
   -3    8    6      4.91      0.00
   -2    8    6     -6.99      0.00
   -1    8    6      4.74      0.00
    0    8    6     10.21      0.00
    1    8    6      8.38      0.00
    2    8    6     -8.11      0.00
    3    8    6      7.00      0.00
    4    8    6      1.48      0.00
    5    8    6      7.78      0.00
    6    8    6     -2.26      0.00
    7    8    6      2.15      0.00
    8    8    6     -2.34      0.00
    9    8    6     -5.84      0.00
   10    8    6      2.98      0.00
   11    8    6      8.00      0.00
   12    8    6      5.34      0.00
   13    8    6      0.16      0.00
   14    8    6     -1.64      0.00
   15    8    6     -1.36      0.00
   16    8    6      0.54      0.00
   17    8    6     -0.19      0.00
  -22    9    6      1.41      0.00
  -21    9    6      1.05      0.00
  -20    9    6      2.31      0.00
  -19    9    6      0.47      0.00
  -18    9    6      0.06      0.00
  -17    9    6     -0.62      0.00
  -16    9    6     -0.36      0.00
  -15    9    6     -1.89      0.00
  -14    9    6     12.08      0.00
  -13    9    6     -0.74      0.00
  -12    9    6      0.46      0.00
  -11    9    6     -3.84      0.00
  -10    9    6     23.32      0.00
   -9    9    6      5.68      0.00
   -8    9    6     -0.04      0.00
   -7    9    6      6.09      0.00
   -6    9    6     13.64      0.00
   -5    9    6     -1.01      0.00
   -4    9    6     17.92      0.00
   -3    9    6      5.22      0.00
   -2    9    6      0.25      0.00
   -1    9    6     -6.44      0.00
    0    9    6     20.12      0.00
    1    9    6     -0.52      0.00
    2    9    6      2.98      0.00
    3    9    6     -8.38      0.00
    4    9    6     -2.29      0.00
    5    9    6      4.11      0.00
    6    9    6     12.44      0.00
    7    9    6     -5.05      0.00
    8    9    6     -3.84      0.00
    9    9    6     -2.00      0.00
   10    9    6      7.70      0.00
   11    9    6      5.35      0.00
   12    9    6     -4.20      0.00
   13    9    6     -0.42      0.00
   14    9    6      1.47      0.00
   15    9    6      0.96      0.00
   16    9    6     -0.26      0.00
   17    9    6      0.06      0.00
  -21   10    6      1.49      0.00
  -20   10    6      1.54      0.00
  -19   10    6      3.69      0.00
  -18   10    6     -4.69      0.00
  -17   10    6     -4.22      0.00
  -16   10    6      3.15      0.00
  -15   10    6      7.13      0.00
  -14   10    6     -2.23      0.00
  -13   10    6      7.04      0.00
  -12   10    6     -6.49      0.00
  -11   10    6      7.82      0.00
  -10   10    6     -1.37      0.00
   -9   10    6     15.43      0.00
   -8   10    6      4.35      0.00
   -7   10    6      6.13      0.00
   -6   10    6      7.34      0.00
   -5   10    6     12.01      0.00
   -4   10    6     -5.97      0.00
   -3   10    6     18.39      0.00
   -2   10    6      2.81      0.00
   -1   10    6      2.81      0.00
    0   10    6      1.42      0.00
    1   10    6     20.63      0.00
    2   10    6    -17.59      0.00
    3   10    6    -12.25      0.00
    4   10    6      9.55      0.00
    5   10    6     10.88      0.00
    6   10    6     -4.17      0.00
    7   10    6      0.72      0.00
    8   10    6      3.61      0.00
    9   10    6      5.37      0.00
   10   10    6     -8.70      0.00
   11   10    6     -0.03      0.00
   12   10    6      4.98      0.00
   13   10    6     -2.85      0.00
   14   10    6      0.95      0.00
   15   10    6      2.21      0.00
   16   10    6      0.00      0.00
  -21   11    6      0.04      0.00
  -20   11    6      4.17      0.00
  -19   11    6     -1.38      0.00
  -18   11    6      1.17      0.00
  -17   11    6     -4.11      0.00
  -16   11    6      1.30      0.00
  -15   11    6      1.15      0.00
  -14   11    6      0.26      0.00
  -13   11    6     -3.72      0.00
  -12   11    6      8.06      0.00
  -11   11    6     -7.72      0.00
  -10   11    6      6.67      0.00
   -9   11    6     -0.90      0.00
   -8   11    6     14.68      0.00
   -7   11    6     11.31      0.00
   -6   11    6      6.14      0.00
   -5   11    6    -11.51      0.00
   -4   11    6      9.16      0.00
   -3   11    6      9.98      0.00
   -2   11    6     15.17      0.00
   -1   11    6     -9.00      0.00
    0   11    6      1.83      0.00
    1   11    6      2.18      0.00
    2   11    6      5.16      0.00
    3   11    6     -7.80      0.00
    4   11    6      0.79      0.00
    5   11    6      8.40      0.00
    6   11    6      6.30      0.00
    7   11    6     -0.07      0.00
    8   11    6      1.38      0.00
    9   11    6     -2.56      0.00
   10   11    6     -2.11      0.00
   11   11    6     -4.29      0.00
   12   11    6      4.58      0.00
   13   11    6      4.20      0.00
   14   11    6     -3.46      0.00
   15   11    6     -0.17      0.00
   16   11    6      3.84      0.00
  -21   12    6     -0.15      0.00
  -20   12    6      1.57      0.00
  -19   12    6      2.50      0.00
  -18   12    6     -4.12      0.00
  -17   12    6      1.66      0.00
  -16   12    6     -6.24      0.00
  -15   12    6     -2.54      0.00
  -14   12    6      0.37      0.00
  -13   12    6      4.58      0.00
  -12   12    6     -2.97      0.00
  -11   12    6     -3.24      0.00
  -10   12    6     -6.98      0.00
   -9   12    6     13.70      0.00
   -8   12    6     10.38      0.00
   -7   12    6     10.21      0.00
   -6   12    6    -11.21      0.00
   -5   12    6      3.95      0.00
   -4   12    6      1.77      0.00
   -3   12    6      6.10      0.00
   -2   12    6     -2.35      0.00
   -1   12    6     -3.09      0.00
    0   12    6     -6.46      0.00
    1   12    6     10.47      0.00
    2   12    6     10.97      0.00
    3   12    6     -3.11      0.00
    4   12    6     -4.11      0.00
    5   12    6      8.70      0.00
    6   12    6      3.77      0.00
    7   12    6      0.26      0.00
    8   12    6     -3.73      0.00
    9   12    6      1.15      0.00
   10   12    6     -0.72      0.00
   11   12    6     -1.19      0.00
   12   12    6      3.24      0.00
   13   12    6      2.31      0.00
   14   12    6     -2.07      0.00
   15   12    6     -0.22      0.00
   16   12    6      0.28      0.00
  -21   13    6      2.11      0.00
  -20   13    6     -1.54      0.00
  -19   13    6     -0.52      0.00
  -18   13    6      2.84      0.00
  -17   13    6     -3.14      0.00
  -16   13    6     -3.21      0.00
  -15   13    6     -6.96      0.00
  -14   13    6      3.88      0.00
  -13   13    6      4.74      0.00
  -12   13    6     -3.45      0.00
  -11   13    6    -10.57      0.00
  -10   13    6      0.08      0.00
   -9   13    6     15.31      0.00
   -8   13    6      8.54      0.00
   -7   13    6    -11.32      0.00
   -6   13    6     10.61      0.00
   -5   13    6     -8.62      0.00
   -4   13    6     -0.64      0.00
   -3   13    6     -4.75      0.00
   -2   13    6    -13.86      0.00
   -1   13    6     -2.03      0.00
    0   13    6      9.72      0.00
    1   13    6      7.32      0.00
    2   13    6      2.17      0.00
    3   13    6      2.88      0.00
    4   13    6     -3.38      0.00
    5   13    6     -4.30      0.00
    6   13    6      5.97      0.00
    7   13    6      2.91      0.00
    8   13    6      3.11      0.00
    9   13    6     -4.08      0.00
   10   13    6      1.69      0.00
   11   13    6      3.63      0.00
   12   13    6     -2.68      0.00
   13   13    6     -0.58      0.00
   14   13    6      1.01      0.00
   15   13    6     -1.94      0.00
   16   13    6     -0.70      0.00
  -20   14    6      0.60      0.00
  -19   14    6      2.04      0.00
  -18   14    6      0.29      0.00
  -17   14    6     -3.21      0.00
  -16   14    6     -3.02      0.00
  -15   14    6      1.58      0.00
  -14   14    6      1.40      0.00
  -13   14    6     -0.57      0.00
  -12   14    6     -6.44      0.00
  -11   14    6     -1.70      0.00
  -10   14    6      7.59      0.00
   -9   14    6     -0.20      0.00
   -8   14    6      0.85      0.00
   -7   14    6      3.19      0.00
   -6   14    6     -7.44      0.00
   -5   14    6      8.47      0.00
   -4   14    6    -22.30      0.00
   -3   14    6    -12.21      0.00
   -2   14    6      7.92      0.00
   -1   14    6     -4.89      0.00
    0   14    6     -2.63      0.00
    1   14    6      5.14      0.00
    2   14    6      6.89      0.00
    3   14    6     -8.10      0.00
    4   14    6     -6.38      0.00
    5   14    6      4.37      0.00
    6   14    6      4.45      0.00
    7   14    6      2.76      0.00
    8   14    6      0.36      0.00
    9   14    6      6.89      0.00
   10   14    6     -2.78      0.00
   11   14    6     -5.74      0.00
   12   14    6      2.24      0.00
   13   14    6      0.60      0.00
   14   14    6     -2.07      0.00
   15   14    6     -0.34      0.00
  -20   15    6      2.85      0.00
  -19   15    6     -0.70      0.00
  -18   15    6     -0.54      0.00
  -17   15    6      2.24      0.00
  -16   15    6      0.81      0.00
  -15   15    6      0.91      0.00
  -14   15    6     -7.35      0.00
  -13   15    6     -1.26      0.00
  -12   15    6      5.90      0.00
  -11   15    6      1.13      0.00
  -10   15    6     -2.72      0.00
   -9   15    6     -1.03      0.00
   -8   15    6     -4.15      0.00
   -7   15    6      1.67      0.00
   -6   15    6      8.37      0.00
   -5   15    6    -13.60      0.00
   -4   15    6     -8.61      0.00
   -3   15    6     -5.77      0.00
   -2   15    6      4.51      0.00
   -1   15    6     -2.19      0.00
    0   15    6    -16.44      0.00
    1   15    6     -0.59      0.00
    2   15    6      4.11      0.00
    3   15    6     -1.14      0.00
    4   15    6     -8.36      0.00
    5   15    6      1.62      0.00
    6   15    6     10.49      0.00
    7   15    6      3.59      0.00
    8   15    6     -0.92      0.00
    9   15    6     -1.70      0.00
   10   15    6     -1.23      0.00
   11   15    6     -2.47      0.00
   12   15    6     -1.33      0.00
   13   15    6      0.96      0.00
   14   15    6     -0.92      0.00
   15   15    6     -2.93      0.00
  -20   16    6     -1.70      0.00
  -19   16    6      4.67      0.00
  -18   16    6      0.94      0.00
  -17   16    6      0.49      0.00
  -16   16    6      1.30      0.00
  -15   16    6     -5.66      0.00
  -14   16    6     -0.30      0.00
  -13   16    6      0.98      0.00
  -12   16    6     10.67      0.00
  -11   16    6     -1.36      0.00
  -10   16    6    -13.49      0.00
   -9   16    6     -1.63      0.00
   -8   16    6      4.17      0.00
   -7   16    6      3.21      0.00
   -6   16    6     -4.26      0.00
   -5   16    6      1.24      0.00
   -4   16    6      1.90      0.00
   -3   16    6     -7.00      0.00
   -2   16    6     -8.87      0.00
   -1   16    6     -2.22      0.00
    0   16    6    -10.16      0.00
    1   16    6    -11.45      0.00
    2   16    6      5.78      0.00
    3   16    6      1.63      0.00
    4   16    6     -3.32      0.00
    5   16    6     -0.65      0.00
    6   16    6      6.49      0.00
    7   16    6      4.31      0.00
    8   16    6     -6.44      0.00
    9   16    6     -5.45      0.00
   10   16    6      3.29      0.00
   11   16    6     -3.13      0.00
   12   16    6     -2.09      0.00
   13   16    6      2.01      0.00
   14   16    6     -2.30      0.00
   15   16    6     -1.51      0.00
  -19   17    6     -1.11      0.00
  -18   17    6      3.33      0.00
  -17   17    6      0.80      0.00
  -16   17    6      0.36      0.00
  -15   17    6      0.63      0.00
  -14   17    6     -1.15      0.00
  -13   17    6      4.66      0.00
  -12   17    6     -1.08      0.00
  -11   17    6      1.44      0.00
  -10   17    6    -10.32      0.00
   -9   17    6     -7.41      0.00
   -8   17    6     11.42      0.00
   -7   17    6     -0.40      0.00
   -6   17    6      1.40      0.00
   -5   17    6      3.31      0.00
   -4   17    6     -4.15      0.00
   -3   17    6      2.56      0.00
   -2   17    6    -11.20      0.00
   -1   17    6    -12.96      0.00
    0   17    6      1.28      0.00
    1   17    6     -1.46      0.00
    2   17    6     -4.74      0.00
    3   17    6      4.13      0.00
    4   17    6      0.08      0.00
    5   17    6     -2.44      0.00
    6   17    6     -3.76      0.00
    7   17    6      1.12      0.00
    8   17    6      0.91      0.00
    9   17    6     -3.34      0.00
   10   17    6     -3.62      0.00
   11   17    6      3.71      0.00
   12   17    6     -2.91      0.00
   13   17    6     -3.13      0.00
   14   17    6      1.77      0.00
  -19   18    6      2.10      0.00
  -18   18    6      0.83      0.00
  -17   18    6      2.65      0.00
  -16   18    6     -0.51      0.00
  -15   18    6      0.48      0.00
  -14   18    6      0.50      0.00
  -13   18    6      0.61      0.00
  -12   18    6      0.49      0.00
  -11   18    6     -9.17      0.00
  -10   18    6      2.64      0.00
   -9   18    6     -0.93      0.00
   -8   18    6     -2.35      0.00
   -7   18    6      7.15      0.00
   -6   18    6     -3.56      0.00
   -5   18    6      0.20      0.00
   -4   18    6      6.75      0.00
   -3   18    6    -10.76      0.00
   -2   18    6     -1.73      0.00
   -1   18    6      0.45      0.00
    0   18    6     -0.96      0.00
    1   18    6     -1.56      0.00
    2   18    6     -0.96      0.00
    3   18    6      0.46      0.00
    4   18    6     -1.39      0.00
    5   18    6     -7.12      0.00
    6   18    6     -0.15      0.00
    7   18    6      0.03      0.00
    8   18    6      2.57      0.00
    9   18    6     -1.80      0.00
   10   18    6      0.41      0.00
   11   18    6     -1.99      0.00
   12   18    6     -2.32      0.00
   13   18    6     -0.50      0.00
   14   18    6     -0.29      0.00
  -18   19    6      0.90      0.00
  -17   19    6     -1.62      0.00
  -16   19    6      2.32      0.00
  -15   19    6      1.78      0.00
  -14   19    6     -0.75      0.00
  -13   19    6     -4.86      0.00
  -12   19    6     -0.80      0.00
  -11   19    6      5.03      0.00
  -10   19    6     -4.38      0.00
   -9   19    6      4.38      0.00
   -8   19    6     -4.52      0.00
   -7   19    6     -6.65      0.00
   -6   19    6      3.59      0.00
   -5   19    6      4.61      0.00
   -4   19    6     -6.77      0.00
   -3   19    6      0.07      0.00
   -2   19    6      7.64      0.00
   -1   19    6      7.43      0.00
    0   19    6     -7.11      0.00
    1   19    6     -4.87      0.00
    2   19    6      0.90      0.00
    3   19    6      4.97      0.00
    4   19    6     -3.12      0.00
    5   19    6     -8.62      0.00
    6   19    6     -3.18      0.00
    7   19    6      8.32      0.00
    8   19    6      1.52      0.00
    9   19    6      2.29      0.00
   10   19    6     -5.71      0.00
   11   19    6     -2.98      0.00
   12   19    6      2.17      0.00
   13   19    6     -1.01      0.00
  -18   20    6      1.36      0.00
  -17   20    6      2.00      0.00
  -16   20    6     -0.67      0.00
  -15   20    6     -0.30      0.00
  -14   20    6     -0.33      0.00
  -13   20    6     -3.88      0.00
  -12   20    6      2.62      0.00
  -11   20    6      7.24      0.00
  -10   20    6      0.46      0.00
   -9   20    6    -12.19      0.00
   -8   20    6      1.80      0.00
   -7   20    6     -1.61      0.00
   -6   20    6     -3.95      0.00
   -5   20    6     -6.55      0.00
   -4   20    6     11.31      0.00
   -3   20    6      8.08      0.00
   -2   20    6     -2.42      0.00
   -1   20    6      1.42      0.00
    0   20    6     -0.22      0.00
    1   20    6     -5.69      0.00
    2   20    6      5.75      0.00
    3   20    6      1.22      0.00
    4   20    6     -2.60      0.00
    5   20    6     -4.30      0.00
    6   20    6     -0.07      0.00
    7   20    6      2.99      0.00
    8   20    6      4.91      0.00
    9   20    6     -4.79      0.00
   10   20    6      0.89      0.00
   11   20    6     -0.61      0.00
   12   20    6     -1.82      0.00
   13   20    6      0.96      0.00
  -17   21    6      0.25      0.00
  -16   21    6     -0.50      0.00
  -15   21    6      1.40      0.00
  -14   21    6     -0.51      0.00
  -13   21    6      2.67      0.00
  -12   21    6     -2.56      0.00
  -11   21    6      2.55      0.00
  -10   21    6      1.48      0.00
   -9   21    6     -4.97      0.00
   -8   21    6     -8.21      0.00
   -7   21    6      1.13      0.00
   -6   21    6     -3.70      0.00
   -5   21    6      5.89      0.00
   -4   21    6     -0.67      0.00
   -3   21    6      5.23      0.00
   -2   21    6      2.17      0.00
   -1   21    6     -6.92      0.00
    0   21    6      3.89      0.00
    1   21    6      4.99      0.00
    2   21    6     -5.02      0.00
    3   21    6      2.43      0.00
    4   21    6      2.34      0.00
    5   21    6     -0.32      0.00
    6   21    6     -3.63      0.00
    7   21    6     -1.15      0.00
    8   21    6      1.23      0.00
    9   21    6      4.41      0.00
   10   21    6     -1.47      0.00
   11   21    6      0.09      0.00
   12   21    6     -0.59      0.00
  -16   22    6      2.80      0.00
  -15   22    6     -0.46      0.00
  -14   22    6      0.98      0.00
  -13   22    6     -2.45      0.00
  -12   22    6      2.12      0.00
  -11   22    6     -2.30      0.00
  -10   22    6      1.23      0.00
   -9   22    6     -1.05      0.00
   -8   22    6     -5.49      0.00
   -7   22    6     -0.74      0.00
   -6   22    6      6.59      0.00
   -5   22    6     -6.04      0.00
   -4   22    6      0.30      0.00
   -3   22    6      0.76      0.00
   -2   22    6      0.44      0.00
   -1   22    6      1.60      0.00
    0   22    6     -0.17      0.00
    1   22    6      2.06      0.00
    2   22    6     -1.20      0.00
    3   22    6      0.45      0.00
    4   22    6      4.46      0.00
    5   22    6     -2.07      0.00
    6   22    6     -4.13      0.00
    7   22    6     -0.93      0.00
    8   22    6      2.75      0.00
    9   22    6     -0.16      0.00
   10   22    6      0.99      0.00
   11   22    6      0.45      0.00
  -16   23    6     -0.68      0.00
  -15   23    6      0.62      0.00
  -14   23    6     -1.58      0.00
  -13   23    6      0.67      0.00
  -12   23    6     -0.11      0.00
  -11   23    6      2.48      0.00
  -10   23    6     -2.23      0.00
   -9   23    6      1.67      0.00
   -8   23    6      2.66      0.00
   -7   23    6     -3.28      0.00
   -6   23    6     -4.62      0.00
   -5   23    6      3.46      0.00
   -4   23    6     -1.80      0.00
   -3   23    6     -5.87      0.00
   -2   23    6      1.66      0.00
   -1   23    6      4.71      0.00
    0   23    6      0.66      0.00
    1   23    6     -3.17      0.00
    2   23    6     -0.56      0.00
    3   23    6     -1.19      0.00
    4   23    6      4.66      0.00
    5   23    6      0.93      0.00
    6   23    6     -5.83      0.00
    7   23    6     -2.47      0.00
    8   23    6      0.56      0.00
    9   23    6      3.52      0.00
   10   23    6     -0.52      0.00
  -15   24    6     -0.95      0.00
  -14   24    6      0.64      0.00
  -13   24    6      1.92      0.00
  -12   24    6     -0.78      0.00
  -11   24    6      1.99      0.00
  -10   24    6      4.25      0.00
   -9   24    6     -2.56      0.00
   -8   24    6     -2.30      0.00
   -7   24    6      1.51      0.00
   -6   24    6      1.25      0.00
   -5   24    6     -6.61      0.00
   -4   24    6     -3.72      0.00
   -3   24    6      5.05      0.00
   -2   24    6     -2.84      0.00
   -1   24    6      0.93      0.00
    0   24    6      0.96      0.00
    1   24    6     -5.04      0.00
    2   24    6     -2.33      0.00
    3   24    6      5.57      0.00
    4   24    6     -1.56      0.00
    5   24    6     -2.40      0.00
    6   24    6      0.13      0.00
    7   24    6     -0.86      0.00
    8   24    6      0.40      0.00
    9   24    6     -1.11      0.00
   10   24    6      1.64      0.00
  -14   25    6      1.71      0.00
  -13   25    6     -0.38      0.00
  -12   25    6      2.21      0.00
  -11   25    6     -0.94      0.00
  -10   25    6      0.76      0.00
   -9   25    6      1.41      0.00
   -8   25    6     -0.63      0.00
   -7   25    6     -1.48      0.00
   -6   25    6     -2.22      0.00
   -5   25    6      1.69      0.00
   -4   25    6     -0.18      0.00
   -3   25    6     -3.35      0.00
   -2   25    6      4.01      0.00
   -1   25    6     -4.05      0.00
    0   25    6     -2.77      0.00
    1   25    6      1.16      0.00
    2   25    6     -1.27      0.00
    3   25    6     -2.87      0.00
    4   25    6      2.60      0.00
    5   25    6      1.56      0.00
    6   25    6     -1.92      0.00
    7   25    6     -0.71      0.00
    8   25    6     -0.58      0.00
    9   25    6      1.89      0.00
  -13   26    6      1.70      0.00
  -12   26    6     -1.59      0.00
  -11   26    6      0.12      0.00
  -10   26    6     -0.31      0.00
   -9   26    6      1.33      0.00
   -8   26    6     -1.46      0.00
   -7   26    6     -1.08      0.00
   -6   26    6      4.57      0.00
   -5   26    6      1.89      0.00
   -4   26    6     -2.37      0.00
   -3   26    6     -0.87      0.00
   -2   26    6     -1.92      0.00
   -1   26    6      0.43      0.00
    0   26    6      0.07      0.00
    1   26    6      0.11      0.00
    2   26    6     -3.29      0.00
    3   26    6     -1.78      0.00
    4   26    6      3.54      0.00
    5   26    6      0.42      0.00
    6   26    6     -1.97      0.00
    7   26    6      0.13      0.00
    8   26    6      2.90      0.00
  -12   27    6     -0.19      0.00
  -11   27    6      0.81      0.00
  -10   27    6     -0.56      0.00
   -9   27    6     -2.17      0.00
   -8   27    6      3.09      0.00
   -7   27    6      4.35      0.00
   -6   27    6     -1.35      0.00
   -5   27    6     -2.02      0.00
   -4   27    6      1.71      0.00
   -3   27    6      0.25      0.00
   -2   27    6     -0.60      0.00
   -1   27    6      1.11      0.00
    0   27    6     -1.20      0.00
    1   27    6      1.07      0.00
    2   27    6      0.77      0.00
    3   27    6     -4.56      0.00
    4   27    6     -2.43      0.00
    5   27    6      5.84      0.00
    6   27    6      1.96      0.00
    7   27    6     -1.34      0.00
  -11   28    6     -0.28      0.00
  -10   28    6      0.34      0.00
   -9   28    6      1.65      0.00
   -8   28    6      0.93      0.00
   -7   28    6     -2.47      0.00
   -6   28    6     -0.09      0.00
   -5   28    6      1.04      0.00
   -4   28    6     -0.86      0.00
   -3   28    6      2.91      0.00
   -2   28    6      1.22      0.00
   -1   28    6     -3.13      0.00
    0   28    6      2.58      0.00
    1   28    6     -0.42      0.00
    2   28    6     -1.55      0.00
    3   28    6     -0.74      0.00
    4   28    6      1.88      0.00
    5   28    6      0.57      0.00
    6   28    6      0.16      0.00
   -9   29    6     -0.34      0.00
   -8   29    6     -2.66      0.00
   -7   29    6      0.56      0.00
   -6   29    6     -0.15      0.00
   -5   29    6     -0.57      0.00
   -4   29    6      1.40      0.00
   -3   29    6     -0.48      0.00
   -2   29    6     -1.62      0.00
   -1   29    6      1.68      0.00
    0   29    6      0.77      0.00
    1   29    6      0.09      0.00
    2   29    6     -1.33      0.00
    3   29    6      1.15      0.00
    4   29    6     -1.46      0.00
   -8   30    6     -1.15      0.00
   -7   30    6     -2.35      0.00
   -6   30    6      1.70      0.00
   -5   30    6      2.03      0.00
   -4   30    6     -3.33      0.00
   -3   30    6     -1.95      0.00
   -2   30    6      1.94      0.00
   -1   30    6     -1.49      0.00
    0   30    6      0.31      0.00
    1   30    6      2.64      0.00
    2   30    6     -1.05      0.00
    3   30    6     -3.76      0.00
   -4   31    6     -0.91      0.00
   -3   31    6     -2.20      0.00
   -2   31    6     -0.59      0.00
   -1   31    6      1.75      0.00
  -21    0    7     -6.47      0.00
  -19    0    7      1.49      0.00
  -17    0    7      6.92      0.00
  -15    0    7      2.96      0.00
  -13    0    7     11.63      0.00
  -11    0    7    -22.65      0.00
   -9    0    7     -6.60      0.00
   -7    0    7    -18.63      0.00
   -5    0    7     13.29      0.00
   -3    0    7    -32.47      0.00
   -1    0    7      9.40      0.00
    1    0    7     13.96      0.00
    3    0    7     -3.87      0.00
    5    0    7    -28.82      0.00
    7    0    7     -0.74      0.00
    9    0    7      2.89      0.00
   11    0    7     -9.97      0.00
   13    0    7      0.23      0.00
   15    0    7      0.37      0.00
   17    0    7     -0.92      0.00
  -22    1    7     -1.32      0.00
  -21    1    7     -1.54      0.00
  -20    1    7     -1.10      0.00
  -19    1    7      4.09      0.00
  -18    1    7      3.14      0.00
  -17    1    7      3.47      0.00
  -16    1    7      2.77      0.00
  -15    1    7     -6.40      0.00
  -14    1    7      1.62      0.00
  -13    1    7    -10.93      0.00
  -12    1    7     12.77      0.00
  -11    1    7     17.09      0.00
  -10    1    7    -23.65      0.00
   -9    1    7      8.59      0.00
   -8    1    7     -9.21      0.00
   -7    1    7     -4.41      0.00
   -6    1    7    -15.11      0.00
   -5    1    7    -19.03      0.00
   -4    1    7      6.18      0.00
   -3    1    7     -0.46      0.00
   -2    1    7      0.55      0.00
   -1    1    7     51.83      0.00
    0    1    7     -3.05      0.00
    1    1    7    -15.63      0.00
    2    1    7     18.76      0.00
    3    1    7     12.94      0.00
    4    1    7    -28.37      0.00
    5    1    7    -13.15      0.00
    6    1    7     -3.08      0.00
    7    1    7      3.80      0.00
    8    1    7     -0.87      0.00
    9    1    7      0.46      0.00
   10    1    7     -4.88      0.00
   11    1    7     -1.66      0.00
   12    1    7     -2.36      0.00
   13    1    7      1.15      0.00
   14    1    7     -0.01      0.00
   15    1    7      0.94      0.00
   16    1    7     -0.46      0.00
   17    1    7     -0.05      0.00
  -22    2    7      2.28      0.00
  -21    2    7      0.22      0.00
  -20    2    7     -2.62      0.00
  -19    2    7      3.99      0.00
  -18    2    7      7.91      0.00
  -17    2    7     -2.85      0.00
  -16    2    7     -4.56      0.00
  -15    2    7     -4.16      0.00
  -14    2    7     -9.77      0.00
  -13    2    7     13.99      0.00
  -12    2    7     10.88      0.00
  -11    2    7     12.59      0.00
  -10    2    7      6.39      0.00
   -9    2    7    -27.75      0.00
   -8    2    7      1.82      0.00
   -7    2    7     -6.63      0.00
   -6    2    7    -10.16      0.00
   -5    2    7    -13.92      0.00
   -4    2    7     -6.62      0.00
   -3    2    7     40.52      0.00
   -2    2    7     33.79      0.00
   -1    2    7     -5.69      0.00
    0    2    7     19.75      0.00
    1    2    7     -1.94      0.00
    2    2    7      4.05      0.00
    3    2    7      4.84      0.00
    4    2    7      5.95      0.00
    5    2    7    -10.90      0.00
    6    2    7    -13.28      0.00
    7    2    7      2.32      0.00
    8    2    7      1.57      0.00
    9    2    7     -2.96      0.00
   10    2    7      3.57      0.00
   11    2    7     -3.45      0.00
   12    2    7     -2.47      0.00
   13    2    7      0.92      0.00
   14    2    7      0.97      0.00
   15    2    7     -0.63      0.00
   16    2    7      0.84      0.00
   17    2    7     -1.36      0.00
  -21    3    7      1.45      0.00
  -20    3    7      1.70      0.00
  -19    3    7     -1.53      0.00
  -18    3    7      1.52      0.00
  -17    3    7      1.59      0.00
  -16    3    7     -6.51      0.00
  -15    3    7     -4.26      0.00
  -14    3    7      6.13      0.00
  -13    3    7      6.82      0.00
  -12    3    7     14.48      0.00
  -11    3    7      7.42      0.00
  -10    3    7     -2.69      0.00
   -9    3    7    -17.63      0.00
   -8    3    7     -5.76      0.00
   -7    3    7      7.94      0.00
   -6    3    7      4.76      0.00
   -5    3    7     -4.23      0.00
   -4    3    7     -2.52      0.00
   -3    3    7     26.72      0.00
   -2    3    7     34.81      0.00
   -1    3    7      2.46      0.00
    0    3    7     -7.74      0.00
    1    3    7     11.35      0.00
    2    3    7     12.46      0.00
    3    3    7     25.24      0.00
    4    3    7     -3.66      0.00
    5    3    7    -13.75      0.00
    6    3    7      3.52      0.00
    7    3    7     -5.53      0.00
    8    3    7      0.14      0.00
    9    3    7      2.50      0.00
   10    3    7      0.57      0.00
   11    3    7      3.12      0.00
   12    3    7     -3.12      0.00
   13    3    7     -2.89      0.00
   14    3    7      1.13      0.00
   15    3    7      1.60      0.00
   16    3    7     -0.70      0.00
   17    3    7      1.13      0.00
  -22    4    7      1.77      0.00
  -21    4    7      0.56      0.00
  -20    4    7     -2.16      0.00
  -19    4    7      1.09      0.00
  -18    4    7     -1.86      0.00
  -17    4    7      0.50      0.00
  -16    4    7      3.82      0.00
  -15    4    7      4.43      0.00
  -14    4    7     -1.88      0.00
  -13    4    7      4.62      0.00
  -12    4    7     10.25      0.00
  -11    4    7     -2.93      0.00
  -10    4    7    -10.19      0.00
   -9    4    7     13.42      0.00
   -8    4    7     -6.88      0.00
   -7    4    7     20.59      0.00
   -6    4    7     -4.38      0.00
   -5    4    7      5.58      0.00
   -4    4    7     17.81      0.00
   -3    4    7     -9.20      0.00
   -2    4    7      8.10      0.00
   -1    4    7     22.19      0.00
    0    4    7      0.33      0.00
    1    4    7     17.90      0.00
    2    4    7     13.81      0.00
    3    4    7      1.54      0.00
    4    4    7     13.42      0.00
    5    4    7      9.20      0.00
    6    4    7    -12.43      0.00
    7    4    7     -4.57      0.00
    8    4    7     -0.91      0.00
    9    4    7      9.94      0.00
   10    4    7      4.42      0.00
   11    4    7     -4.17      0.00
   12    4    7     -2.35      0.00
   13    4    7     -0.65      0.00
   14    4    7      1.27      0.00
   15    4    7      1.38      0.00
   16    4    7      2.78      0.00
   17    4    7     -0.06      0.00
  -22    5    7      1.32      0.00
  -21    5    7     -1.40      0.00
  -20    5    7     -0.15      0.00
  -19    5    7     -0.53      0.00
  -18    5    7      2.64      0.00
  -17    5    7      1.34      0.00
  -16    5    7      6.98      0.00
  -15    5    7      5.81      0.00
  -14    5    7      0.38      0.00
  -13    5    7    -12.93      0.00
  -12    5    7     -2.74      0.00
  -11    5    7     14.38      0.00
  -10    5    7      9.67      0.00
   -9    5    7     -7.64      0.00
   -8    5    7     26.88      0.00
   -7    5    7     -9.09      0.00
   -6    5    7     21.52      0.00
   -5    5    7     -1.02      0.00
   -4    5    7     -6.12      0.00
   -3    5    7      0.31      0.00
   -2    5    7     -0.04      0.00
   -1    5    7     24.11      0.00
    0    5    7     27.26      0.00
    1    5    7    -16.50      0.00
    2    5    7      0.85      0.00
    3    5    7     22.08      0.00
    4    5    7     20.84      0.00
    5    5    7     -8.51      0.00
    6    5    7     -4.72      0.00
    7    5    7      0.54      0.00
    8    5    7      5.55      0.00
    9    5    7      1.51      0.00
   10    5    7      1.39      0.00
   11    5    7     -3.42      0.00
   12    5    7      2.16      0.00
   13    5    7      4.22      0.00
   14    5    7     -0.54      0.00
   15    5    7      0.88      0.00
   16    5    7      0.28      0.00
   17    5    7      0.31      0.00
  -22    6    7      0.40      0.00
  -21    6    7      4.06      0.00
  -20    6    7     -1.28      0.00
  -19    6    7     -3.42      0.00
  -18    6    7      4.45      0.00
  -17    6    7     10.37      0.00
  -16    6    7      1.25      0.00
  -15    6    7     -0.34      0.00
  -14    6    7     -5.16      0.00
  -13    6    7     -6.82      0.00
  -12    6    7     -2.19      0.00
  -11    6    7     18.23      0.00
  -10    6    7     15.65      0.00
   -9    6    7      9.34      0.00
   -8    6    7    -14.13      0.00
   -7    6    7     25.98      0.00
   -6    6    7      0.08      0.00
   -5    6    7      4.53      0.00
   -4    6    7     -7.24      0.00
   -3    6    7      9.06      0.00
   -2    6    7     11.89      0.00
   -1    6    7     10.14      0.00
    0    6    7     -3.82      0.00
    1    6    7     -5.87      0.00
    2    6    7      7.86      0.00
    3    6    7     17.90      0.00
    4    6    7     -1.37      0.00
    5    6    7      9.64      0.00
    6    6    7     -0.56      0.00
    7    6    7     -0.11      0.00
    8    6    7     -2.79      0.00
    9    6    7     -2.65      0.00
   10    6    7      5.33      0.00
   11    6    7      7.74      0.00
   12    6    7     -2.61      0.00
   13    6    7      1.81      0.00
   14    6    7      3.23      0.00
   15    6    7     -2.02      0.00
   16    6    7     -0.81      0.00
  -21    7    7      1.52      0.00
  -20    7    7      1.32      0.00
  -19    7    7      0.68      0.00
  -18    7    7     -0.29      0.00
  -17    7    7      5.70      0.00
  -16    7    7      3.42      0.00
  -15    7    7     -5.89      0.00
  -14    7    7     -2.95      0.00
  -13    7    7      3.01      0.00
  -12    7    7      3.71      0.00
  -11    7    7      5.78      0.00
  -10    7    7     20.39      0.00
   -9    7    7      4.13      0.00
   -8    7    7      3.66      0.00
   -7    7    7    -10.54      0.00
   -6    7    7     18.08      0.00
   -5    7    7     18.95      0.00
   -4    7    7      5.53      0.00
   -3    7    7    -12.00      0.00
   -2    7    7     13.25      0.00
   -1    7    7     -2.51      0.00
    0    7    7     -3.31      0.00
    1    7    7      5.98      0.00
    2    7    7     -9.72      0.00
    3    7    7      7.69      0.00
    4    7    7     17.65      0.00
    5    7    7     -4.34      0.00
    6    7    7      1.31      0.00
    7    7    7     -3.82      0.00
    8    7    7     -0.63      0.00
    9    7    7      2.37      0.00
   10    7    7      3.08      0.00
   11    7    7      7.27      0.00
   12    7    7      2.07      0.00
   13    7    7     -4.70      0.00
   14    7    7      1.95      0.00
   15    7    7      1.62      0.00
   16    7    7     -1.17      0.00
  -22    8    7      1.21      0.00
  -21    8    7      2.91      0.00
  -20    8    7      0.41      0.00
  -19    8    7     -0.27      0.00
  -18    8    7      0.68      0.00
  -17    8    7     -3.39      0.00
  -16    8    7      2.84      0.00
  -15    8    7      3.59      0.00
  -14    8    7      1.78      0.00
  -13    8    7     -3.23      0.00
  -12    8    7      5.36      0.00
  -11    8    7      7.20      0.00
  -10    8    7      7.12      0.00
   -9    8    7     11.38      0.00
   -8    8    7     -3.84      0.00
   -7    8    7      4.30      0.00
   -6    8    7     14.48      0.00
   -5    8    7     16.04      0.00
   -4    8    7      6.36      0.00
   -3    8    7     -4.20      0.00
   -2    8    7     -8.49      0.00
   -1    8    7     12.83      0.00
    0    8    7      2.92      0.00
    1    8    7    -13.31      0.00
    2    8    7      7.13      0.00
    3    8    7     -4.19      0.00
    4    8    7      2.46      0.00
    5    8    7      6.51      0.00
    6    8    7      1.67      0.00
    7    8    7      0.03      0.00
    8    8    7     -4.90      0.00
    9    8    7      4.18      0.00
   10    8    7      7.22      0.00
   11    8    7     -0.04      0.00
   12    8    7     -1.22      0.00
   13    8    7     -1.09      0.00
   14    8    7     -1.67      0.00
   15    8    7      2.52      0.00
   16    8    7      2.14      0.00
  -22    9    7      1.57      0.00
  -21    9    7      0.83      0.00
  -20    9    7      1.63      0.00
  -19    9    7     -1.48      0.00
  -18    9    7     -2.53      0.00
  -17    9    7      0.19      0.00
  -16    9    7     -1.28      0.00
  -15    9    7      9.08      0.00
  -14    9    7      1.05      0.00
  -13    9    7     -2.32      0.00
  -12    9    7     -6.97      0.00
  -11    9    7     12.58      0.00
  -10    9    7      6.08      0.00
   -9    9    7      0.92      0.00
   -8    9    7      8.88      0.00
   -7    9    7     10.98      0.00
   -6    9    7      0.43      0.00
   -5    9    7      8.39      0.00
   -4    9    7     10.84      0.00
   -3    9    7      1.03      0.00
   -2    9    7     -5.84      0.00
   -1    9    7      8.30      0.00
    0    9    7      2.97      0.00
    1    9    7      1.63      0.00
    2    9    7    -18.24      0.00
    3    9    7      0.64      0.00
    4    9    7      6.70      0.00
    5    9    7     10.24      0.00
    6    9    7     -2.94      0.00
    7    9    7     -1.35      0.00
    8    9    7      2.55      0.00
    9    9    7      2.34      0.00
   10    9    7      0.98      0.00
   11    9    7     -3.31      0.00
   12    9    7     -2.15      0.00
   13    9    7      1.43      0.00
   14    9    7      2.32      0.00
   15    9    7     -0.27      0.00
   16    9    7      0.98      0.00
  -22   10    7      1.41      0.00
  -21   10    7      2.31      0.00
  -20   10    7      1.29      0.00
  -19   10    7     -1.62      0.00
  -18   10    7     -4.85      0.00
  -17   10    7      1.47      0.00
  -16   10    7      6.27      0.00
  -15   10    7     -6.03      0.00
  -14   10    7      3.21      0.00
  -13   10    7     -5.28      0.00
  -12   10    7      2.96      0.00
  -11   10    7     -6.32      0.00
  -10   10    7     10.60      0.00
   -9   10    7      7.70      0.00
   -8   10    7      6.19      0.00
   -7   10    7      2.64      0.00
   -6   10    7      4.88      0.00
   -5   10    7     -3.41      0.00
   -4   10    7     10.80      0.00
   -3   10    7      6.32      0.00
   -2   10    7     -1.95      0.00
   -1   10    7     -6.25      0.00
    0   10    7     18.06      0.00
    1   10    7    -16.29      0.00
    2   10    7     -8.76      0.00
    3   10    7      6.24      0.00
    4   10    7     11.02      0.00
    5   10    7     -3.30      0.00
    6   10    7      2.90      0.00
    7   10    7      4.21      0.00
    8   10    7      3.51      0.00
    9   10    7     -9.30      0.00
   10   10    7     -2.45      0.00
   11   10    7      5.92      0.00
   12   10    7     -0.85      0.00
   13   10    7     -0.61      0.00
   14   10    7      0.17      0.00
   15   10    7      0.84      0.00
   16   10    7      1.52      0.00
  -21   11    7      3.41      0.00
  -20   11    7      0.00      0.00
  -19   11    7     -1.09      0.00
  -18   11    7     -1.52      0.00
  -17   11    7     -2.10      0.00
  -16   11    7     -2.35      0.00
  -15   11    7      0.45      0.00
  -14   11    7     -6.69      0.00
  -13   11    7      8.05      0.00
  -12   11    7    -11.07      0.00
  -11   11    7      2.49      0.00
  -10   11    7     -1.96      0.00
   -9   11    7     11.97      0.00
   -8   11    7      8.97      0.00
   -7   11    7      0.17      0.00
   -6   11    7    -10.08      0.00
   -5   11    7      4.52      0.00
   -4   11    7      3.78      0.00
   -3   11    7      6.00      0.00
   -2   11    7    -11.04      0.00
   -1   11    7     -0.62      0.00
    0   11    7     -5.26      0.00
    1   11    7     14.51      0.00
    2   11    7     -6.68      0.00
    3   11    7     -3.98      0.00
    4   11    7      7.70      0.00
    5   11    7      7.61      0.00
    6   11    7     -1.24      0.00
    7   11    7     -0.28      0.00
    8   11    7     -2.71      0.00
    9   11    7      1.18      0.00
   10   11    7     -4.20      0.00
   11   11    7      4.20      0.00
   12   11    7      5.62      0.00
   13   11    7     -5.44      0.00
   14   11    7     -1.56      0.00
   15   11    7      2.81      0.00
  -21   12    7     -0.39      0.00
  -20   12    7      0.94      0.00
  -19   12    7     -2.32      0.00
  -18   12    7      0.55      0.00
  -17   12    7     -4.73      0.00
  -16   12    7     -4.27      0.00
  -15   12    7     -0.47      0.00
  -14   12    7      6.83      0.00
  -13   12    7     -8.44      0.00
  -12   12    7     -0.29      0.00
  -11   12    7    -11.61      0.00
  -10   12    7     10.64      0.00
   -9   12    7      6.14      0.00
   -8   12    7      3.02      0.00
   -7   12    7     -6.25      0.00
   -6   12    7     -1.73      0.00
   -5   12    7     -2.45      0.00
   -4   12    7      0.55      0.00
   -3   12    7    -12.47      0.00
   -2   12    7     -2.90      0.00
   -1   12    7     -8.13      0.00
    0   12    7     12.45      0.00
    1   12    7      4.43      0.00
    2   12    7     -1.84      0.00
    3   12    7     -6.37      0.00
    4   12    7      3.07      0.00
    5   12    7      4.80      0.00
    6   12    7      1.41      0.00
    7   12    7     -2.25      0.00
    8   12    7      1.14      0.00
    9   12    7      0.19      0.00
   10   12    7      2.46      0.00
   11   12    7      0.55      0.00
   12   12    7      0.11      0.00
   13   12    7     -1.08      0.00
   14   12    7     -2.20      0.00
   15   12    7     -1.03      0.00
  -21   13    7     -1.53      0.00
  -20   13    7     -0.24      0.00
  -19   13    7      3.26      0.00
  -18   13    7     -3.04      0.00
  -17   13    7     -1.94      0.00
  -16   13    7     -4.29      0.00
  -15   13    7      4.00      0.00
  -14   13    7      0.80      0.00
  -13   13    7     -0.24      0.00
  -12   13    7    -12.52      0.00
  -11   13    7      1.93      0.00
  -10   13    7      3.93      0.00
   -9   13    7      3.83      0.00
   -8   13    7    -10.82      0.00
   -7   13    7      4.76      0.00
   -6   13    7     -1.94      0.00
   -5   13    7     -8.50      0.00
   -4   13    7    -12.11      0.00
   -3   13    7     -6.00      0.00
   -2   13    7     -6.63      0.00
   -1   13    7      8.72      0.00
    0   13    7     -1.98      0.00
    1   13    7     -1.16      0.00
    2   13    7     -0.78      0.00
    3   13    7     -6.72      0.00
    4   13    7     -3.89      0.00
    5   13    7      7.56      0.00
    6   13    7      4.48      0.00
    7   13    7      2.49      0.00
    8   13    7     -2.80      0.00
    9   13    7      1.39      0.00
   10   13    7      1.22      0.00
   11   13    7     -2.92      0.00
   12   13    7     -0.77      0.00
   13   13    7      0.95      0.00
   14   13    7     -1.49      0.00
   15   13    7     -1.03      0.00
  -20   14    7      0.12      0.00
  -19   14    7     -0.73      0.00
  -18   14    7     -0.34      0.00
  -17   14    7     -1.72      0.00
  -16   14    7      4.41      0.00
  -15   14    7     -2.56      0.00
  -14   14    7      0.17      0.00
  -13   14    7     -4.95      0.00
  -12   14    7      1.41      0.00
  -11   14    7      2.01      0.00
  -10   14    7     -6.66      0.00
   -9   14    7     -6.77      0.00
   -8   14    7      5.06      0.00
   -7   14    7     -5.16      0.00
   -6   14    7      3.16      0.00
   -5   14    7    -17.15      0.00
   -4   14    7     -8.43      0.00
   -3   14    7      7.17      0.00
   -2   14    7     -2.37      0.00
   -1   14    7    -14.88      0.00
    0   14    7     -0.40      0.00
    1   14    7      2.93      0.00
    2   14    7     -9.72      0.00
    3   14    7     -5.90      0.00
    4   14    7      3.33      0.00
    5   14    7      5.11      0.00
    6   14    7      3.93      0.00
    7   14    7     -1.89      0.00
    8   14    7      5.23      0.00
    9   14    7     -4.30      0.00
   10   14    7     -6.66      0.00
   11   14    7      2.14      0.00
   12   14    7      0.96      0.00
   13   14    7     -1.39      0.00
   14   14    7      0.48      0.00
   15   14    7     -1.23      0.00
  -20   15    7      1.29      0.00
  -19   15    7     -1.09      0.00
  -18   15    7      1.83      0.00
  -17   15    7      2.09      0.00
  -16   15    7     -2.14      0.00
  -15   15    7     -2.23      0.00
  -14   15    7     -2.92      0.00
  -13   15    7      9.61      0.00
  -12   15    7      1.06      0.00
  -11   15    7    -10.84      0.00
  -10   15    7     -3.55      0.00
   -9   15    7     -4.91      0.00
   -8   15    7     -1.16      0.00
   -7   15    7      8.00      0.00
   -6   15    7    -12.19      0.00
   -5   15    7      1.64      0.00
   -4   15    7     -4.60      0.00
   -3   15    7     -0.43      0.00
   -2   15    7     -2.69      0.00
   -1   15    7    -16.06      0.00
    0   15    7     -7.74      0.00
    1   15    7      1.55      0.00
    2   15    7      2.18      0.00
    3   15    7     -8.88      0.00
    4   15    7     -1.45      0.00
    5   15    7      8.00      0.00
    6   15    7      2.56      0.00
    7   15    7     -2.08      0.00
    8   15    7     -6.86      0.00
    9   15    7      0.74      0.00
   10   15    7     -2.31      0.00
   11   15    7     -3.19      0.00
   12   15    7      2.27      0.00
   13   15    7      0.09      0.00
   14   15    7     -2.37      0.00
  -20   16    7      2.37      0.00
  -19   16    7      1.34      0.00
  -18   16    7     -1.94      0.00
  -17   16    7      0.72      0.00
  -16   16    7     -1.05      0.00
  -15   16    7      0.00      0.00
  -14   16    7      4.43      0.00
  -13   16    7      4.61      0.00
  -12   16    7     -1.56      0.00
  -11   16    7    -10.98      0.00
  -10   16    7     -7.60      0.00
   -9   16    7      5.10      0.00
   -8   16    7      0.04      0.00
   -7   16    7     -6.06      0.00
   -6   16    7      7.57      0.00
   -5   16    7     -3.69      0.00
   -4   16    7     -0.07      0.00
   -3   16    7     -8.79      0.00
   -2   16    7     -4.59      0.00
   -1   16    7     -3.55      0.00
    0   16    7    -10.86      0.00
    1   16    7      4.47      0.00
    2   16    7      1.15      0.00
    3   16    7     -3.51      0.00
    4   16    7     -5.38      0.00
    5   16    7     -0.30      0.00
    6   16    7      3.18      0.00
    7   16    7     -4.85      0.00
    8   16    7     -4.36      0.00
    9   16    7     -0.03      0.00
   10   16    7     -0.77      0.00
   11   16    7     -2.35      0.00
   12   16    7      0.30      0.00
   13   16    7     -0.79      0.00
   14   16    7     -0.96      0.00
  -19   17    7      1.66      0.00
  -18   17    7      0.78      0.00
  -17   17    7      0.00      0.00
  -16   17    7      1.51      0.00
  -15   17    7      0.88      0.00
  -14   17    7      2.15      0.00
  -13   17    7     -2.01      0.00
  -12   17    7      0.40      0.00
  -11   17    7     -5.38      0.00
  -10   17    7     -6.90      0.00
   -9   17    7      4.42      0.00
   -8   17    7     -0.64      0.00
   -7   17    7     -2.97      0.00
   -6   17    7     -2.42      0.00
   -5   17    7      3.83      0.00
   -4   17    7     -1.44      0.00
   -3   17    7     -4.96      0.00
   -2   17    7     -7.11      0.00
   -1   17    7      4.48      0.00
    0   17    7      4.65      0.00
    1   17    7     -8.42      0.00
    2   17    7      3.02      0.00
    3   17    7     -2.01      0.00
    4   17    7     -8.03      0.00
    5   17    7     -5.23      0.00
    6   17    7      0.01      0.00
    7   17    7      4.54      0.00
    8   17    7     -2.55      0.00
    9   17    7     -5.05      0.00
   10   17    7      2.69      0.00
   11   17    7     -3.00      0.00
   12   17    7     -4.05      0.00
   13   17    7      1.91      0.00
  -19   18    7     -0.63      0.00
  -18   18    7      0.67      0.00
  -17   18    7     -1.65      0.00
  -16   18    7      1.73      0.00
  -15   18    7      0.86      0.00
  -14   18    7     -1.31      0.00
  -13   18    7      1.53      0.00
  -12   18    7     -5.80      0.00
  -11   18    7      3.80      0.00
  -10   18    7      2.63      0.00
   -9   18    7     -9.96      0.00
   -8   18    7     -0.19      0.00
   -7   18    7     -4.99      0.00
   -6   18    7      0.71      0.00
   -5   18    7      2.87      0.00
   -4   18    7     -6.54      0.00
   -3   18    7      3.68      0.00
   -2   18    7      7.86      0.00
   -1   18    7     -0.24      0.00
    0   18    7     -2.03      0.00
    1   18    7      1.30      0.00
    2   18    7     -2.00      0.00
    3   18    7     -1.05      0.00
    4   18    7     -8.26      0.00
    5   18    7     -4.33      0.00
    6   18    7      3.08      0.00
    7   18    7      2.67      0.00
    8   18    7     -0.06      0.00
    9   18    7     -0.92      0.00
   10   18    7     -5.51      0.00
   11   18    7     -0.62      0.00
   12   18    7     -0.27      0.00
   13   18    7     -1.45      0.00
  -18   19    7     -2.78      0.00
  -17   19    7      2.13      0.00
  -16   19    7     -1.16      0.00
  -15   19    7      0.61      0.00
  -14   19    7     -2.43      0.00
  -13   19    7     -1.21      0.00
  -12   19    7      9.48      0.00
  -11   19    7     -2.84      0.00
  -10   19    7     -2.63      0.00
   -9   19    7     -2.76      0.00
   -8   19    7    -11.23      0.00
   -7   19    7      2.89      0.00
   -6   19    7     -0.74      0.00
   -5   19    7     -4.38      0.00
   -4   19    7      6.50      0.00
   -3   19    7      5.38      0.00
   -2   19    7      6.86      0.00
   -1   19    7     -4.83      0.00
    0   19    7     -3.87      0.00
    1   19    7      3.77      0.00
    2   19    7      5.45      0.00
    3   19    7     -3.38      0.00
    4   19    7     -7.85      0.00
    5   19    7     -3.96      0.00
    6   19    7      5.80      0.00
    7   19    7      2.95      0.00
    8   19    7      0.73      0.00
    9   19    7     -5.87      0.00
   10   19    7     -1.79      0.00
   11   19    7      0.90      0.00
   12   19    7      0.15      0.00
   13   19    7     -0.92      0.00
  -18   20    7      2.84      0.00
  -17   20    7     -4.41      0.00
  -16   20    7      0.42      0.00
  -15   20    7     -0.07      0.00
  -14   20    7     -0.34      0.00
  -13   20    7      2.92      0.00
  -12   20    7      2.99      0.00
  -11   20    7      1.95      0.00
  -10   20    7    -10.34      0.00
   -9   20    7     -1.56      0.00
   -8   20    7      1.67      0.00
   -7   20    7     -8.15      0.00
   -6   20    7     -2.53      0.00
   -5   20    7      8.96      0.00
   -4   20    7      3.76      0.00
   -3   20    7     -1.91      0.00
   -2   20    7     -2.91      0.00
   -1   20    7      4.56      0.00
    0   20    7     -1.10      0.00
    1   20    7      4.20      0.00
    2   20    7      2.37      0.00
    3   20    7     -1.50      0.00
    4   20    7     -2.39      0.00
    5   20    7     -1.81      0.00
    6   20    7     -1.39      0.00
    7   20    7      3.96      0.00
    8   20    7     -2.57      0.00
    9   20    7      2.58      0.00
   10   20    7     -0.43      0.00
   11   20    7     -2.07      0.00
   12   20    7      1.46      0.00
  -17   21    7      1.16      0.00
  -16   21    7     -0.82      0.00
  -15   21    7      0.15      0.00
  -14   21    7      2.55      0.00
  -13   21    7     -2.79      0.00
  -12   21    7      0.50      0.00
  -11   21    7      1.74      0.00
  -10   21    7     -0.72      0.00
   -9   21    7     -7.26      0.00
   -8   21    7      1.36      0.00
   -7   21    7      1.71      0.00
   -6   21    7      1.06      0.00
   -5   21    7     -4.96      0.00
   -4   21    7      2.45      0.00
   -3   21    7      1.08      0.00
   -2   21    7     -4.05      0.00
   -1   21    7      2.45      0.00
    0   21    7      8.06      0.00
    1   21    7     -5.18      0.00
    2   21    7      1.49      0.00
    3   21    7      5.34      0.00
    4   21    7     -1.17      0.00
    5   21    7     -5.96      0.00
    6   21    7     -2.24      0.00
    7   21    7      0.94      0.00
    8   21    7      6.72      0.00
    9   21    7     -1.71      0.00
   10   21    7      0.09      0.00
   11   21    7     -0.16      0.00
  -17   22    7     -0.08      0.00
  -16   22    7     -0.85      0.00
  -15   22    7      0.42      0.00
  -14   22    7     -2.52      0.00
  -13   22    7      3.04      0.00
  -12   22    7     -1.46      0.00
  -11   22    7      0.29      0.00
  -10   22    7      2.45      0.00
   -9   22    7      0.17      0.00
   -8   22    7     -1.65      0.00
   -7   22    7      3.89      0.00
   -6   22    7     -5.73      0.00
   -5   22    7     -0.71      0.00
   -4   22    7     -3.46      0.00
   -3   22    7      0.82      0.00
   -2   22    7      3.55      0.00
   -1   22    7     -0.72      0.00
    0   22    7     -0.87      0.00
    1   22    7      1.77      0.00
    2   22    7     -1.18      0.00
    3   22    7      3.59      0.00
    4   22    7      0.06      0.00
    5   22    7     -5.21      0.00
    6   22    7     -2.77      0.00
    7   22    7      3.07      0.00
    8   22    7      0.46      0.00
    9   22    7      2.07      0.00
   10   22    7     -0.81      0.00
   11   22    7     -0.42      0.00
  -16   23    7     -0.08      0.00
  -15   23    7     -2.34      0.00
  -14   23    7      3.02      0.00
  -13   23    7     -0.53      0.00
  -12   23    7      3.07      0.00
  -11   23    7      0.03      0.00
  -10   23    7      0.63      0.00
   -9   23    7      3.19      0.00
   -8   23    7     -1.43      0.00
   -7   23    7     -4.17      0.00
   -6   23    7      4.00      0.00
   -5   23    7     -4.45      0.00
   -4   23    7     -3.32      0.00
   -3   23    7      0.17      0.00
   -2   23    7      3.69      0.00
   -1   23    7     -0.35      0.00
    0   23    7     -4.47      0.00
    1   23    7     -1.65      0.00
    2   23    7      0.59      0.00
    3   23    7      3.06      0.00
    4   23    7      0.87      0.00
    5   23    7     -4.23      0.00
    6   23    7     -2.75      0.00
    7   23    7     -0.10      0.00
    8   23    7      3.66      0.00
    9   23    7     -0.35      0.00
   10   23    7     -0.80      0.00
  -15   24    7      1.86      0.00
  -14   24    7      0.28      0.00
  -13   24    7      0.75      0.00
  -12   24    7      0.39      0.00
  -11   24    7      2.46      0.00
  -10   24    7     -1.74      0.00
   -9   24    7     -1.31      0.00
   -8   24    7      3.59      0.00
   -7   24    7      2.11      0.00
   -6   24    7     -5.71      0.00
   -5   24    7      0.11      0.00
   -4   24    7      3.01      0.00
   -3   24    7     -2.06      0.00
   -2   24    7     -2.68      0.00
   -1   24    7     -0.09      0.00
    0   24    7     -3.71      0.00
    1   24    7     -1.78      0.00
    2   24    7      4.44      0.00
    3   24    7     -1.83      0.00
    4   24    7     -1.30      0.00
    5   24    7      1.11      0.00
    6   24    7     -1.05      0.00
    7   24    7     -0.56      0.00
    8   24    7     -1.69      0.00
    9   24    7      2.30      0.00
  -14   25    7     -0.35      0.00
  -13   25    7      0.35      0.00
  -12   25    7     -2.14      0.00
  -11   25    7     -0.38      0.00
  -10   25    7      2.73      0.00
   -9   25    7      0.73      0.00
   -8   25    7     -1.09      0.00
   -7   25    7      0.16      0.00
   -6   25    7      5.73      0.00
   -5   25    7      0.10      0.00
   -4   25    7     -3.51      0.00
   -3   25    7      1.89      0.00
   -2   25    7     -2.72      0.00
   -1   25    7     -3.37      0.00
    0   25    7      2.53      0.00
    1   25    7     -0.72      0.00
    2   25    7     -4.71      0.00
    3   25    7      3.75      0.00
    4   25    7      2.26      0.00
    5   25    7     -2.56      0.00
    6   25    7     -0.87      0.00
    7   25    7     -0.70      0.00
    8   25    7      2.49      0.00
  -13   26    7     -3.39      0.00
  -12   26    7      0.20      0.00
  -11   26    7     -0.49      0.00
  -10   26    7      0.39      0.00
   -9   26    7      1.07      0.00
   -8   26    7      1.63      0.00
   -7   26    7      4.87      0.00
   -6   26    7     -0.01      0.00
   -5   26    7     -0.16      0.00
   -4   26    7      0.10      0.00
   -3   26    7     -1.89      0.00
   -2   26    7      2.07      0.00
   -1   26    7      1.04      0.00
    0   26    7     -1.47      0.00
    1   26    7     -2.51      0.00
    2   26    7     -1.11      0.00
    3   26    7      1.22      0.00
    4   26    7      2.35      0.00
    5   26    7     -0.50      0.00
    6   26    7     -1.53      0.00
  -12   27    7     -0.39      0.00
  -11   27    7     -0.07      0.00
  -10   27    7     -1.21      0.00
   -9   27    7      3.05      0.00
   -8   27    7      3.43      0.00
   -7   27    7     -3.13      0.00
   -6   27    7     -0.19      0.00
   -5   27    7      1.59      0.00
   -4   27    7      2.52      0.00
   -3   27    7      1.11      0.00
   -2   27    7      0.09      0.00
   -1   27    7     -0.76      0.00
    0   27    7     -0.49      0.00
    1   27    7      0.71      0.00
    2   27    7     -3.44      0.00
    3   27    7     -1.86      0.00
    4   27    7      5.67      0.00
    5   27    7      2.16      0.00
    6   27    7     -1.64      0.00
  -11   28    7      0.26      0.00
  -10   28    7      0.84      0.00
   -9   28    7     -0.57      0.00
   -8   28    7     -2.18      0.00
   -7   28    7      1.19      0.00
   -6   28    7      0.33      0.00
   -5   28    7      0.88      0.00
   -4   28    7      2.26      0.00
   -3   28    7      0.59      0.00
   -2   28    7     -3.01      0.00
   -1   28    7      1.96      0.00
    0   28    7     -0.24      0.00
    1   28    7     -2.62      0.00
    2   28    7      0.81      0.00
    3   28    7      1.84      0.00
    4   28    7     -0.80      0.00
    5   28    7      0.88      0.00
   -9   29    7     -2.17      0.00
   -8   29    7      1.33      0.00
   -7   29    7      0.10      0.00
   -6   29    7      0.63      0.00
   -5   29    7     -0.35      0.00
   -4   29    7     -1.65      0.00
   -3   29    7     -0.69      0.00
   -2   29    7      1.57      0.00
   -1   29    7     -0.14      0.00
    0   29    7      0.16      0.00
    1   29    7     -1.82      0.00
    2   29    7     -0.12      0.00
    3   29    7     -1.76      0.00
   -7   30    7      2.51      0.00
   -6   30    7      1.29      0.00
   -5   30    7     -2.99      0.00
   -4   30    7     -2.28      0.00
   -3   30    7      1.20      0.00
   -2   30    7     -0.84      0.00
   -1   30    7     -0.07      0.00
    0   30    7      0.93      0.00
    1   30    7     -0.85      0.00
  -20    0    8      5.26      0.00
  -18    0    8      5.48      0.00
  -16    0    8     -4.90      0.00
  -14    0    8      5.44      0.00
  -12    0    8      0.90      0.00
  -10    0    8      5.44      0.00
   -8    0    8    -12.86      0.00
   -6    0    8    -21.51      0.00
   -4    0    8    -15.60      0.00
   -2    0    8     33.32      0.00
    0    0    8     14.18      0.00
    2    0    8     12.00      0.00
    4    0    8    -33.85      0.00
    6    0    8      5.81      0.00
    8    0    8     -0.52      0.00
   10    0    8    -10.69      0.00
   12    0    8      4.09      0.00
   14    0    8      0.90      0.00
   16    0    8     -0.88      0.00
  -21    1    8     -0.89      0.00
  -20    1    8      3.03      0.00
  -19    1    8      5.05      0.00
  -18    1    8     -0.34      0.00
  -17    1    8     -1.54      0.00
  -16    1    8     -8.07      0.00
  -15    1    8     -0.80      0.00
  -14    1    8     -5.71      0.00
  -13    1    8     16.35      0.00
  -12    1    8     19.19      0.00
  -11    1    8    -10.53      0.00
  -10    1    8     -0.32      0.00
   -9    1    8      0.74      0.00
   -8    1    8      0.56      0.00
   -7    1    8    -20.20      0.00
   -6    1    8     -8.48      0.00
   -5    1    8     -5.91      0.00
   -4    1    8     13.66      0.00
   -3    1    8      9.35      0.00
   -2    1    8     24.95      0.00
   -1    1    8      9.98      0.00
    0    1    8    -21.41      0.00
    1    1    8     26.23      0.00
    2    1    8     17.85      0.00
    3    1    8    -18.32      0.00
    4    1    8     -1.76      0.00
    5    1    8     -7.92      0.00
    6    1    8      2.25      0.00
    7    1    8      1.19      0.00
    8    1    8     -0.16      0.00
    9    1    8     -5.71      0.00
   10    1    8     -0.01      0.00
   11    1    8     -1.13      0.00
   12    1    8      1.88      0.00
   13    1    8      1.29      0.00
   14    1    8     -0.02      0.00
   15    1    8      0.02      0.00
   16    1    8     -0.18      0.00
  -22    2    8      1.10      0.00
  -21    2    8     -1.21      0.00
  -20    2    8      1.15      0.00
  -19    2    8      5.37      0.00
  -18    2    8     -2.39      0.00
  -17    2    8     -6.65      0.00
  -16    2    8     -0.59      0.00
  -15    2    8     -7.39      0.00
  -14    2    8     15.32      0.00
  -13    2    8      4.93      0.00
  -12    2    8      8.30      0.00
  -11    2    8      9.05      0.00
  -10    2    8    -24.07      0.00
   -9    2    8      3.93      0.00
   -8    2    8      5.74      0.00
   -7    2    8      8.86      0.00
   -6    2    8    -11.24      0.00
   -5    2    8     -7.11      0.00
   -4    2    8     26.70      0.00
   -3    2    8     24.23      0.00
   -2    2    8    -15.35      0.00
   -1    2    8      2.24      0.00
    0    2    8     14.14      0.00
    1    2    8      0.17      0.00
    2    2    8     16.61      0.00
    3    2    8     21.22      0.00
    4    2    8    -14.29      0.00
    5    2    8    -10.51      0.00
    6    2    8      1.85      0.00
    7    2    8      3.97      0.00
    8    2    8     -2.55      0.00
    9    2    8      4.30      0.00
   10    2    8     -1.66      0.00
   11    2    8     -2.90      0.00
   12    2    8      0.56      0.00
   13    2    8      1.95      0.00
   14    2    8      0.11      0.00
   15    2    8      0.80      0.00
   16    2    8     -0.21      0.00
  -22    3    8      1.58      0.00
  -21    3    8      0.15      0.00
  -20    3    8     -2.17      0.00
  -19    3    8     -0.52      0.00
  -18    3    8      3.98      0.00
  -17    3    8     -1.27      0.00
  -16    3    8     -3.76      0.00
  -15    3    8      8.49      0.00
  -14    3    8     -3.94      0.00
  -13    3    8      9.90      0.00
  -12    3    8     -0.89      0.00
  -11    3    8     -4.66      0.00
  -10    3    8      0.30      0.00
   -9    3    8     -5.10      0.00
   -8    3    8     23.70      0.00
   -7    3    8     11.01      0.00
   -6    3    8      1.32      0.00
   -5    3    8     -0.23      0.00
   -4    3    8      0.32      0.00
   -3    3    8     15.56      0.00
   -2    3    8     -0.24      0.00
   -1    3    8     -9.53      0.00
    0    3    8      8.17      0.00
    1    3    8     18.12      0.00
    2    3    8     21.40      0.00
    3    3    8      0.08      0.00
    4    3    8     -1.40      0.00
    5    3    8      3.88      0.00
    6    3    8     -5.73      0.00
    7    3    8     -0.62      0.00
    8    3    8      8.02      0.00
    9    3    8      1.10      0.00
   10    3    8      0.39      0.00
   11    3    8     -1.92      0.00
   12    3    8     -2.69      0.00
   13    3    8      1.96      0.00
   14    3    8      3.37      0.00
   15    3    8      0.41      0.00
   16    3    8      1.37      0.00
  -22    4    8     -0.52      0.00
  -21    4    8     -1.38      0.00
  -20    4    8      0.50      0.00
  -19    4    8      0.40      0.00
  -18    4    8      2.00      0.00
  -17    4    8      5.92      0.00
  -16    4    8      5.80      0.00
  -15    4    8     -8.29      0.00
  -14    4    8     -0.76      0.00
  -13    4    8     -3.38      0.00
  -12    4    8      2.13      0.00
  -11    4    8     -2.14      0.00
  -10    4    8     12.60      0.00
   -9    4    8      6.47      0.00
   -8    4    8      9.91      0.00
   -7    4    8     12.31      0.00
   -6    4    8      9.10      0.00
   -5    4    8      0.96      0.00
   -4    4    8    -10.51      0.00
   -3    4    8     -5.11      0.00
   -2    4    8     21.41      0.00
   -1    4    8     -1.19      0.00
    0    4    8      3.75      0.00
    1    4    8      5.45      0.00
    2    4    8     -1.43      0.00
    3    4    8     23.23      0.00
    4    4    8     13.31      0.00
    5    4    8    -14.32      0.00
    6    4    8     -1.31      0.00
    7    4    8      3.77      0.00
    8    4    8      7.82      0.00
    9    4    8      4.23      0.00
   10    4    8     -4.67      0.00
   11    4    8     -2.65      0.00
   12    4    8      2.84      0.00
   13    4    8      2.59      0.00
   14    4    8      1.85      0.00
   15    4    8      2.70      0.00
   16    4    8     -0.15      0.00
  -22    5    8     -0.10      0.00
  -21    5    8      1.04      0.00
  -20    5    8     -0.52      0.00
  -19    5    8      2.48      0.00
  -18    5    8      3.14      0.00
  -17    5    8      5.85      0.00
  -16    5    8      0.53      0.00
  -15    5    8     -0.97      0.00
  -14    5    8    -16.27      0.00
  -13    5    8     -2.29      0.00
  -12    5    8     13.83      0.00
  -11    5    8     15.08      0.00
  -10    5    8     -7.28      0.00
   -9    5    8     16.31      0.00
   -8    5    8     -2.06      0.00
   -7    5    8     17.39      0.00
   -6    5    8      3.57      0.00
   -5    5    8     -1.32      0.00
   -4    5    8      0.01      0.00
   -3    5    8      3.15      0.00
   -2    5    8      7.32      0.00
   -1    5    8     16.55      0.00
    0    5    8    -28.34      0.00
    1    5    8     -7.09      0.00
    2    5    8     25.41      0.00
    3    5    8     13.18      0.00
    4    5    8     -4.75      0.00
    5    5    8      3.63      0.00
    6    5    8      0.21      0.00
    7    5    8      3.59      0.00
    8    5    8     -0.45      0.00
    9    5    8      3.01      0.00
   10    5    8     -0.14      0.00
   11    5    8      2.09      0.00
   12    5    8      4.03      0.00
   13    5    8      0.45      0.00
   14    5    8      0.55      0.00
   15    5    8      0.26      0.00
   16    5    8      0.89      0.00
  -22    6    8      4.13      0.00
  -21    6    8     -0.66      0.00
  -20    6    8     -1.80      0.00
  -19    6    8      1.48      0.00
  -18    6    8      8.76      0.00
  -17    6    8     -1.36      0.00
  -16    6    8     -2.13      0.00
  -15    6    8     -5.45      0.00
  -14    6    8      0.57      0.00
  -13    6    8     -2.45      0.00
  -12    6    8     11.34      0.00
  -11    6    8     11.43      0.00
  -10    6    8      9.83      0.00
   -9    6    8    -19.61      0.00
   -8    6    8     19.65      0.00
   -7    6    8      2.72      0.00
   -6    6    8     15.89      0.00
   -5    6    8     -0.01      0.00
   -4    6    8      7.53      0.00
   -3    6    8      6.16      0.00
   -2    6    8      0.36      0.00
   -1    6    8    -18.84      0.00
    0    6    8     -1.58      0.00
    1    6    8     -1.69      0.00
    2    6    8      6.78      0.00
    3    6    8      1.98      0.00
    4    6    8     11.04      0.00
    5    6    8     -0.79      0.00
    6    6    8     -0.65      0.00
    7    6    8     -2.41      0.00
    8    6    8      0.72      0.00
    9    6    8      4.17      0.00
   10    6    8     10.18      0.00
   11    6    8     -2.59      0.00
   12    6    8     -2.43      0.00
   13    6    8      3.79      0.00
   14    6    8     -0.65      0.00
   15    6    8     -0.05      0.00
   16    6    8      2.10      0.00
  -22    7    8      0.96      0.00
  -21    7    8      1.73      0.00
  -20    7    8     -0.41      0.00
  -19    7    8     -0.57      0.00
  -18    7    8     -0.13      0.00
  -17    7    8      4.59      0.00
  -16    7    8     -4.70      0.00
  -15    7    8      1.28      0.00
  -14    7    8      2.60      0.00
  -13    7    8      3.26      0.00
  -12    7    8     -2.46      0.00
  -11    7    8     12.57      0.00
  -10    7    8      0.60      0.00
   -9    7    8      7.42      0.00
   -8    7    8    -15.98      0.00
   -7    7    8     20.80      0.00
   -6    7    8     17.47      0.00
   -5    7    8     12.41      0.00
   -4    7    8    -12.84      0.00
   -3    7    8      6.39      0.00
   -2    7    8     -6.03      0.00
   -1    7    8     -1.60      0.00
    0    7    8     -2.94      0.00
    1    7    8     -9.78      0.00
    2    7    8     -2.11      0.00
    3    7    8     14.43      0.00
    4    7    8     -6.40      0.00
    5    7    8      3.27      0.00
    6    7    8      0.36      0.00
    7    7    8     -0.10      0.00
    8    7    8      2.67      0.00
    9    7    8      5.07      0.00
   10    7    8      2.51      0.00
   11    7    8      1.55      0.00
   12    7    8     -4.84      0.00
   13    7    8     -0.96      0.00
   14    7    8      3.79      0.00
   15    7    8      0.47      0.00
   16    7    8      0.51      0.00
  -22    8    8      1.25      0.00
  -21    8    8      0.61      0.00
  -20    8    8     -0.38      0.00
  -19    8    8     -0.92      0.00
  -18    8    8     -2.37      0.00
  -17    8    8      0.04      0.00
  -16    8    8      7.47      0.00
  -15    8    8      0.42      0.00
  -14    8    8     -3.20      0.00
  -13    8    8     -1.57      0.00
  -12    8    8      3.73      0.00
  -11    8    8     -0.99      0.00
  -10    8    8     12.35      0.00
   -9    8    8     -5.20      0.00
   -8    8    8      6.84      0.00
   -7    8    8      3.35      0.00
   -6    8    8     14.53      0.00
   -5    8    8      5.89      0.00
   -4    8    8      1.30      0.00
   -3    8    8    -14.84      0.00
   -2    8    8     15.60      0.00
   -1    8    8     -0.10      0.00
    0    8    8    -13.70      0.00
    1    8    8      0.98      0.00
    2    8    8     -7.50      0.00
    3    8    8     -4.75      0.00
    4    8    8     12.40      0.00
    5    8    8      1.08      0.00
    6    8    8      0.83      0.00
    7    8    8     -2.34      0.00
    8    8    8      3.85      0.00
    9    8    8      4.02      0.00
   10    8    8     -1.99      0.00
   11    8    8     -2.50      0.00
   12    8    8     -0.33      0.00
   13    8    8     -0.95      0.00
   14    8    8      1.50      0.00
   15    8    8      3.42      0.00
  -22    9    8     -0.27      0.00
  -21    9    8      0.90      0.00
  -20    9    8     -0.06      0.00
  -19    9    8     -3.12      0.00
  -18    9    8      0.00      0.00
  -17    9    8      0.50      0.00
  -16    9    8      2.99      0.00
  -15    9    8      1.41      0.00
  -14    9    8     -5.52      0.00
  -13    9    8     -7.26      0.00
  -12    9    8      4.27      0.00
  -11    9    8      6.03      0.00
  -10    9    8     -3.16      0.00
   -9    9    8     10.02      0.00
   -8    9    8      3.75      0.00
   -7    9    8     -2.58      0.00
   -6    9    8     -0.69      0.00
   -5    9    8     11.27      0.00
   -4    9    8      1.51      0.00
   -3    9    8     -1.31      0.00
   -2    9    8     -5.06      0.00
   -1    9    8      8.66      0.00
    0    9    8     -0.07      0.00
    1    9    8    -23.30      0.00
    2    9    8      1.41      0.00
    3    9    8      9.28      0.00
    4    9    8      4.50      0.00
    5    9    8     -1.41      0.00
    6    9    8     -0.15      0.00
    7    9    8      4.69      0.00
    8    9    8     -2.43      0.00
    9    9    8     -0.90      0.00
   10    9    8     -0.40      0.00
   11    9    8     -1.49      0.00
   12    9    8      1.95      0.00
   13    9    8      1.76      0.00
   14    9    8     -1.13      0.00
   15    9    8     -0.04      0.00
  -22   10    8      1.77      0.00
  -21   10    8     -0.12      0.00
  -20   10    8     -1.03      0.00
  -19   10    8     -2.80      0.00
  -18   10    8     -0.49      0.00
  -17   10    8      3.63      0.00
  -16   10    8     -6.54      0.00
  -15   10    8     -2.39      0.00
  -14   10    8     -1.20      0.00
  -13   10    8      0.22      0.00
  -12   10    8     -8.02      0.00
  -11   10    8      3.11      0.00
  -10   10    8      7.51      0.00
   -9   10    8      2.08      0.00
   -8   10    8     -2.34      0.00
   -7   10    8     -0.77      0.00
   -6   10    8     -2.38      0.00
   -5   10    8      1.88      0.00
   -4   10    8      7.03      0.00
   -3   10    8     -6.93      0.00
   -2   10    8     -6.06      0.00
   -1   10    8      8.29      0.00
    0   10    8    -10.62      0.00
    1   10    8     -3.59      0.00
    2   10    8      0.87      0.00
    3   10    8      8.96      0.00
    4   10    8     -2.80      0.00
    5   10    8      2.33      0.00
    6   10    8      3.01      0.00
    7   10    8      0.49      0.00
    8   10    8     -5.93      0.00
    9   10    8     -2.93      0.00
   10   10    8      7.34      0.00
   11   10    8      2.78      0.00
   12   10    8     -2.31      0.00
   13   10    8     -1.30      0.00
   14   10    8      0.61      0.00
   15   10    8      1.07      0.00
  -21   11    8     -0.40      0.00
  -20   11    8     -2.25      0.00
  -19   11    8      0.01      0.00
  -18   11    8     -2.70      0.00
  -17   11    8     -4.21      0.00
  -16   11    8      0.77      0.00
  -15   11    8     -4.48      0.00
  -14   11    8      5.21      0.00
  -13   11    8     -9.01      0.00
  -12   11    8     -1.98      0.00
  -11   11    8     -4.11      0.00
  -10   11    8      5.03      0.00
   -9   11    8      3.84      0.00
   -8   11    8     -0.67      0.00
   -7   11    8    -10.86      0.00
   -6   11    8     -1.65      0.00
   -5   11    8      2.40      0.00
   -4   11    8     -4.40      0.00
   -3   11    8     -7.11      0.00
   -2   11    8     -4.36      0.00
   -1   11    8     -7.97      0.00
    0   11    8     16.90      0.00
    1   11    8     -6.96      0.00
    2   11    8     -7.24      0.00
    3   11    8      3.24      0.00
    4   11    8      8.35      0.00
    5   11    8     -3.33      0.00
    6   11    8     -1.74      0.00
    7   11    8     -1.70      0.00
    8   11    8      3.62      0.00
    9   11    8     -1.27      0.00
   10   11    8      2.83      0.00
   11   11    8      5.30      0.00
   12   11    8     -4.84      0.00
   13   11    8     -1.71      0.00
   14   11    8      2.17      0.00
   15   11    8     -0.54      0.00
  -21   12    8     -0.31      0.00
  -20   12    8     -0.59      0.00
  -19   12    8     -0.67      0.00
  -18   12    8     -1.97      0.00
  -17   12    8     -4.18      0.00
  -16   12    8      0.53      0.00
  -15   12    8      7.66      0.00
  -14   12    8     -9.64      0.00
  -13   12    8      0.72      0.00
  -12   12    8    -11.56      0.00
  -11   12    8      3.80      0.00
  -10   12    8      0.83      0.00
   -9   12    8     -1.83      0.00
   -8   12    8     -6.59      0.00
   -7   12    8     -2.58      0.00
   -6   12    8     -4.49      0.00
   -5   12    8     -5.88      0.00
   -4   12    8     -9.46      0.00
   -3   12    8     -4.61      0.00
   -2   12    8     -5.00      0.00
   -1   12    8     10.02      0.00
    0   12    8     -6.11      0.00
    1   12    8     -0.68      0.00
    2   12    8     -9.17      0.00
    3   12    8     -1.10      0.00
    4   12    8      4.55      0.00
    5   12    8      2.69      0.00
    6   12    8     -2.10      0.00
    7   12    8      0.81      0.00
    8   12    8      0.46      0.00
    9   12    8      4.40      0.00
   10   12    8     -2.32      0.00
   11   12    8     -1.87      0.00
   12   12    8      1.85      0.00
   13   12    8     -1.23      0.00
   14   12    8     -0.13      0.00
   15   12    8      1.36      0.00
  -21   13    8     -0.93      0.00
  -20   13    8      2.10      0.00
  -19   13    8     -1.50      0.00
  -18   13    8     -2.67      0.00
  -17   13    8      0.18      0.00
  -16   13    8      2.44      0.00
  -15   13    8     -1.46      0.00
  -14   13    8      3.59      0.00
  -13   13    8    -12.80      0.00
  -12   13    8      3.97      0.00
  -11   13    8     -3.61      0.00
  -10   13    8     -2.77      0.00
   -9   13    8    -10.34      0.00
   -8   13    8      1.09      0.00
   -7   13    8      1.61      0.00
   -6   13    8    -12.74      0.00
   -5   13    8    -11.28      0.00
   -4   13    8      0.97      0.00
   -3   13    8     -3.52      0.00
   -2   13    8      3.74      0.00
   -1   13    8    -10.50      0.00
    0   13    8     -1.83      0.00
    1   13    8     -6.05      0.00
    2   13    8     -5.89      0.00
    3   13    8     -4.20      0.00
    4   13    8      6.17      0.00
    5   13    8      4.39      0.00
    6   13    8     -0.26      0.00
    7   13    8     -2.59      0.00
    8   13    8      0.19      0.00
    9   13    8     -1.86      0.00
   10   13    8     -1.33      0.00
   11   13    8     -0.29      0.00
   12   13    8      1.60      0.00
   13   13    8      1.41      0.00
   14   13    8      0.31      0.00
  -21   14    8     -0.02      0.00
  -20   14    8     -1.95      0.00
  -19   14    8      0.02      0.00
  -18   14    8      0.55      0.00
  -17   14    8      2.18      0.00
  -16   14    8     -2.44      0.00
  -15   14    8      0.43      0.00
  -14   14    8     -3.81      0.00
  -13   14    8      7.18      0.00
  -12   14    8     -3.38      0.00
  -11   14    8     -7.34      0.00
  -10   14    8    -11.53      0.00
   -9   14    8      3.84      0.00
   -8   14    8     -2.44      0.00
   -7   14    8     -4.94      0.00
   -6   14    8     -6.66      0.00
   -5   14    8     -5.30      0.00
   -4   14    8      5.00      0.00
   -3   14    8      1.68      0.00
   -2   14    8    -20.10      0.00
   -1   14    8     -1.09      0.00
    0   14    8     -0.39      0.00
    1   14    8     -6.52      0.00
    2   14    8     -6.28      0.00
    3   14    8      0.50      0.00
    4   14    8      2.32      0.00
    5   14    8      1.74      0.00
    6   14    8     -3.60      0.00
    7   14    8      1.23      0.00
    8   14    8     -4.32      0.00
    9   14    8     -5.66      0.00
   10   14    8      1.55      0.00
   11   14    8      2.11      0.00
   12   14    8     -0.79      0.00
   13   14    8      1.26      0.00
   14   14    8     -0.02      0.00
  -20   15    8     -1.35      0.00
  -19   15    8      0.14      0.00
  -18   15    8      0.54      0.00
  -17   15    8     -2.05      0.00
  -16   15    8      0.31      0.00
  -15   15    8     -2.61      0.00
  -14   15    8     11.02      0.00
  -13   15    8      0.06      0.00
  -12   15    8    -10.02      0.00
  -11   15    8     -4.59      0.00
  -10   15    8     -1.80      0.00
   -9   15    8     -5.83      0.00
   -8   15    8      2.98      0.00
   -7   15    8     -5.22      0.00
   -6   15    8      0.07      0.00
   -5   15    8     -1.62      0.00
   -4   15    8     -3.39      0.00
   -3   15    8     -3.32      0.00
   -2   15    8     -5.39      0.00
   -1   15    8    -10.71      0.00
    0   15    8      4.19      0.00
    1   15    8      4.25      0.00
    2   15    8     -9.46      0.00
    3   15    8     -5.40      0.00
    4   15    8      1.93      0.00
    5   15    8      0.01      0.00
    6   15    8     -2.41      0.00
    7   15    8     -9.16      0.00
    8   15    8      1.16      0.00
    9   15    8     -0.55      0.00
   10   15    8     -3.57      0.00
   11   15    8      1.99      0.00
   12   15    8      0.66      0.00
   13   15    8     -2.90      0.00
   14   15    8      1.44      0.00
  -20   16    8      1.81      0.00
  -19   16    8     -3.88      0.00
  -18   16    8      0.66      0.00
  -17   16    8      0.90      0.00
  -16   16    8     -0.61      0.00
  -15   16    8      6.29      0.00
  -14   16    8     -1.44      0.00
  -13   16    8      0.13      0.00
  -12   16    8     -4.09      0.00
  -11   16    8     -7.45      0.00
  -10   16    8      4.25      0.00
   -9   16    8     -1.48      0.00
   -8   16    8     -9.29      0.00
   -7   16    8      4.44      0.00
   -6   16    8     -3.92      0.00
   -5   16    8      0.56      0.00
   -4   16    8     -6.49      0.00
   -3   16    8     -2.45      0.00
   -2   16    8      2.57      0.00
   -1   16    8     -0.65      0.00
    0   16    8      1.85      0.00
    1   16    8      0.92      0.00
    2   16    8     -2.44      0.00
    3   16    8    -10.63      0.00
    4   16    8     -4.54      0.00
    5   16    8      1.53      0.00
    6   16    8     -2.98      0.00
    7   16    8     -1.96      0.00
    8   16    8     -3.81      0.00
    9   16    8      1.24      0.00
   10   16    8     -1.69      0.00
   11   16    8     -2.07      0.00
   12   16    8     -0.78      0.00
   13   16    8     -0.43      0.00
  -19   17    8      2.11      0.00
  -18   17    8     -2.59      0.00
  -17   17    8      1.10      0.00
  -16   17    8      1.89      0.00
  -15   17    8     -2.18      0.00
  -14   17    8      0.50      0.00
  -13   17    8      0.18      0.00
  -12   17    8     -0.47      0.00
  -11   17    8     -0.60      0.00
  -10   17    8     -1.29      0.00
   -9   17    8     -1.72      0.00
   -8   17    8     -7.10      0.00
   -7   17    8     -6.16      0.00
   -6   17    8      7.92      0.00
   -5   17    8     -5.64      0.00
   -4   17    8     -0.74      0.00
   -3   17    8     -0.91      0.00
   -2   17    8      8.18      0.00
   -1   17    8      8.35      0.00
    0   17    8     -7.18      0.00
    1   17    8      2.23      0.00
    2   17    8     -1.97      0.00
    3   17    8     -7.46      0.00
    4   17    8     -7.02      0.00
    5   17    8     -0.54      0.00
    6   17    8      5.75      0.00
    7   17    8     -2.45      0.00
    8   17    8     -4.60      0.00
    9   17    8     -0.96      0.00
   10   17    8     -1.39      0.00
   11   17    8     -3.70      0.00
   12   17    8      1.06      0.00
   13   17    8     -0.26      0.00
  -19   18    8     -2.52      0.00
  -18   18    8     -0.65      0.00
  -17   18    8     -0.08      0.00
  -16   18    8     -0.26      0.00
  -15   18    8     -0.13      0.00
  -14   18    8      0.10      0.00
  -13   18    8     -1.23      0.00
  -12   18    8      5.08      0.00
  -11   18    8      4.09      0.00
  -10   18    8     -9.16      0.00
   -9   18    8     -5.73      0.00
   -8   18    8     -1.55      0.00
   -7   18    8      0.33      0.00
   -6   18    8     -3.44      0.00
   -5   18    8      0.45      0.00
   -4   18    8      2.27      0.00
   -3   18    8     10.86      0.00
   -2   18    8     -1.19      0.00
   -1   18    8     -2.27      0.00
    0   18    8      7.04      0.00
    1   18    8     -2.09      0.00
    2   18    8      2.23      0.00
    3   18    8     -6.47      0.00
    4   18    8     -6.41      0.00
    5   18    8      3.45      0.00
    6   18    8      1.46      0.00
    7   18    8      0.86      0.00
    8   18    8     -2.43      0.00
    9   18    8     -6.01      0.00
   10   18    8      0.12      0.00
   11   18    8      1.40      0.00
   12   18    8     -1.68      0.00
  -18   19    8     -0.83      0.00
  -17   19    8     -3.04      0.00
  -16   19    8      1.17      0.00
  -15   19    8     -0.98      0.00
  -14   19    8     -0.77      0.00
  -13   19    8      8.35      0.00
  -12   19    8     -1.44      0.00
  -11   19    8     -5.47      0.00
  -10   19    8      1.81      0.00
   -9   19    8     -6.32      0.00
   -8   19    8      0.83      0.00
   -7   19    8     -1.84      0.00
   -6   19    8     -1.07      0.00
   -5   19    8      4.59      0.00
   -4   19    8      3.74      0.00
   -3   19    8     -0.05      0.00
   -2   19    8     -1.33      0.00
   -1   19    8     -0.93      0.00
    0   19    8      5.02      0.00
    1   19    8      9.87      0.00
    2   19    8     -4.23      0.00
    3   19    8     -4.28      0.00
    4   19    8     -2.08      0.00
    5   19    8      0.55      0.00
    6   19    8      3.06      0.00
    7   19    8     -0.33      0.00
    8   19    8     -3.51      0.00
    9   19    8     -0.01      0.00
   10   19    8     -0.32      0.00
   11   19    8      1.25      0.00
   12   19    8      0.55      0.00
  -18   20    8     -4.61      0.00
  -17   20    8      0.29      0.00
  -16   20    8     -1.30      0.00
  -15   20    8      1.55      0.00
  -14   20    8      1.73      0.00
  -13   20    8     -1.58      0.00
  -12   20    8      2.27      0.00
  -11   20    8     -4.29      0.00
  -10   20    8     -1.77      0.00
   -9   20    8      6.99      0.00
   -8   20    8     -5.51      0.00
   -7   20    8     -0.06      0.00
   -6   20    8      4.35      0.00
   -5   20    8      0.39      0.00
   -4   20    8     -3.51      0.00
   -3   20    8     -4.02      0.00
   -2   20    8      4.99      0.00
   -1   20    8      2.97      0.00
    0   20    8      3.31      0.00
    1   20    8      1.18      0.00
    2   20    8      3.09      0.00
    3   20    8     -0.61      0.00
    4   20    8     -2.94      0.00
    5   20    8     -2.80      0.00
    6   20    8      1.30      0.00
    7   20    8      1.01      0.00
    8   20    8      3.79      0.00
    9   20    8     -0.85      0.00
   10   20    8     -1.74      0.00
   11   20    8      0.17      0.00
  -17   21    8     -2.97      0.00
  -16   21    8      0.76      0.00
  -15   21    8      0.50      0.00
  -14   21    8     -2.30      0.00
  -13   21    8      0.15      0.00
  -12   21    8      0.97      0.00
  -11   21    8      2.54      0.00
  -10   21    8     -2.48      0.00
   -9   21    8      1.90      0.00
   -8   21    8      7.07      0.00
   -7   21    8     -2.37      0.00
   -6   21    8     -5.54      0.00
   -5   21    8      0.20      0.00
   -4   21    8      1.24      0.00
   -3   21    8     -1.88      0.00
   -2   21    8     -0.59      0.00
   -1   21    8      7.23      0.00
    0   21    8     -4.40      0.00
    1   21    8      1.36      0.00
    2   21    8      6.20      0.00
    3   21    8      0.13      0.00
    4   21    8     -5.39      0.00
    5   21    8     -3.07      0.00
    6   21    8      1.03      0.00
    7   21    8      6.32      0.00
    8   21    8     -1.94      0.00
    9   21    8     -0.07      0.00
   10   21    8     -0.60      0.00
   11   21    8     -1.27      0.00
  -17   22    8      0.09      0.00
  -16   22    8     -1.57      0.00
  -15   22    8     -1.13      0.00
  -14   22    8      3.07      0.00
  -13   22    8     -0.91      0.00
  -12   22    8      0.22      0.00
  -11   22    8      2.96      0.00
  -10   22    8      3.45      0.00
   -9   22    8     -1.21      0.00
   -8   22    8      1.42      0.00
   -7   22    8     -0.63      0.00
   -6   22    8     -0.70      0.00
   -5   22    8     -3.45      0.00
   -4   22    8      0.35      0.00
   -3   22    8      3.78      0.00
   -2   22    8     -1.66      0.00
   -1   22    8     -5.65      0.00
    0   22    8      4.00      0.00
    1   22    8     -1.59      0.00
    2   22    8      2.42      0.00
    3   22    8      2.84      0.00
    4   22    8     -4.47      0.00
    5   22    8     -3.30      0.00
    6   22    8      1.81      0.00
    7   22    8     -0.45      0.00
    8   22    8      2.62      0.00
   10   22    8     -0.38      0.00
  -16   23    8     -1.48      0.00
  -15   23    8      2.70      0.00
  -14   23    8     -0.64      0.00
  -13   23    8      2.61      0.00
  -12   23    8     -0.18      0.00
  -11   23    8     -1.17      0.00
  -10   23    8      2.32      0.00
   -9   23    8      1.21      0.00
   -8   23    8     -1.61      0.00
   -7   23    8      4.39      0.00
   -6   23    8     -1.69      0.00
   -5   23    8     -1.17      0.00
   -4   23    8     -0.17      0.00
   -3   23    8      1.16      0.00
   -2   23    8     -2.01      0.00
   -1   23    8     -4.29      0.00
    0   23    8     -3.42      0.00
    1   23    8      3.53      0.00
    2   23    8      2.20      0.00
    3   23    8      0.23      0.00
    4   23    8     -1.23      0.00
    5   23    8     -2.89      0.00
    6   23    8     -1.99      0.00
    7   23    8      2.00      0.00
    8   23    8     -1.06      0.00
    9   23    8      0.54      0.00
  -15   24    8     -1.25      0.00
  -14   24    8      0.91      0.00
  -13   24    8     -1.95      0.00
  -12   24    8      0.66      0.00
  -11   24    8     -0.26      0.00
  -10   24    8     -1.04      0.00
   -9   24    8      4.20      0.00
   -8   24    8      2.69      0.00
   -7   24    8     -2.73      0.00
   -6   24    8      3.62      0.00
   -5   24    8      3.03      0.00
   -4   24    8     -2.27      0.00
   -3   24    8     -4.36      0.00
   -2   24    8      0.41      0.00
   -1   24    8     -2.09      0.00
    0   24    8     -0.35      0.00
    1   24    8      2.31      0.00
    2   24    8     -1.41      0.00
    3   24    8      0.08      0.00
    4   24    8      0.88      0.00
    5   24    8     -1.03      0.00
    6   24    8     -2.05      0.00
    7   24    8     -2.85      0.00
    8   24    8      2.43      0.00
  -14   25    8     -1.93      0.00
  -13   25    8     -1.62      0.00
  -12   25    8     -0.73      0.00
  -11   25    8      1.98      0.00
  -10   25    8      1.88      0.00
   -9   25    8     -2.17      0.00
   -8   25    8      1.58      0.00
   -7   25    8      6.96      0.00
   -6   25    8      1.25      0.00
   -5   25    8     -2.69      0.00
   -4   25    8      1.09      0.00
   -3   25    8      0.48      0.00
   -2   25    8     -2.39      0.00
   -1   25    8      3.16      0.00
    0   25    8     -1.31      0.00
    1   25    8     -5.48      0.00
    2   25    8      4.05      0.00
    3   25    8      2.74      0.00
    4   25    8     -2.11      0.00
    5   25    8     -1.90      0.00
    7   25    8      1.48      0.00
    8   25    8     -2.12      0.00
  -13   26    8      0.01      0.00
  -12   26    8     -0.63      0.00
  -11   26    8     -0.24      0.00
  -10   26    8      0.32      0.00
   -9   26    8      2.55      0.00
   -8   26    8      2.22      0.00
   -7   26    8     -1.34      0.00
   -6   26    8      0.70      0.00
   -5   26    8      2.81      0.00
   -4   26    8      0.13      0.00
   -3   26    8      1.94      0.00
   -2   26    8      2.52      0.00
   -1   26    8     -3.20      0.00
    0   26    8     -2.02      0.00
    1   26    8      0.36      0.00
    2   26    8     -0.86      0.00
    3   26    8      3.52      0.00
    4   26    8      0.78      0.00
    5   26    8     -2.32      0.00
    6   26    8      0.73      0.00
    7   26    8     -2.29      0.00
  -12   27    8      0.03      0.00
  -11   27    8     -2.61      0.00
  -10   27    8      1.43      0.00
   -9   27    8      1.21      0.00
   -8   27    8     -3.69      0.00
   -7   27    8      0.13      0.00
   -6   27    8      2.48      0.00
   -5   27    8      3.33      0.00
   -4   27    8      1.34      0.00
   -3   27    8     -0.83      0.00
   -2   27    8     -0.77      0.00
   -1   27    8     -0.06      0.00
    0   27    8      0.52      0.00
    1   27    8     -2.09      0.00
    2   27    8     -0.78      0.00
    3   27    8      3.48      0.00
    4   27    8      2.70      0.00
    5   27    8     -1.74      0.00
  -11   28    8      0.34      0.00
  -10   28    8     -2.49      0.00
   -9   28    8     -1.47      0.00
   -8   28    8      1.72      0.00
   -7   28    8     -0.32      0.00
   -6   28    8      0.53      0.00
   -5   28    8      0.62      0.00
   -4   28    8      0.52      0.00
   -3   28    8     -2.69      0.00
   -2   28    8      1.33      0.00
   -1   28    8      1.61      0.00
    0   28    8     -3.05      0.00
    1   28    8      1.41      0.00
    2   28    8      1.20      0.00
    3   28    8     -1.99      0.00
    4   28    8      0.49      0.00
   -9   29    8      0.64      0.00
   -8   29    8      0.33      0.00
   -7   29    8      0.30      0.00
   -6   29    8     -1.89      0.00
   -5   29    8     -1.42      0.00
   -4   29    8     -0.08      0.00
   -3   29    8      1.59      0.00
   -2   29    8     -0.48      0.00
   -1   29    8     -0.31      0.00
    0   29    8     -0.22      0.00
    1   29    8     -1.62      0.00
    2   29    8     -1.92      0.00
   -6   30    8     -1.68      0.00
   -5   30    8     -2.18      0.00
   -4   30    8      0.68      0.00
   -3   30    8      0.09      0.00
   -2   30    8     -0.82      0.00
   -1   30    8      0.80      0.00
  -21    0    9      5.86      0.00
  -19    0    9      3.48      0.00
  -17    0    9    -11.13      0.00
  -15    0    9      0.64      0.00
  -13    0    9      9.60      0.00
  -11    0    9      3.41      0.00
   -9    0    9     -0.61      0.00
   -7    0    9    -21.60      0.00
   -5    0    9     -4.76      0.00
   -3    0    9     17.80      0.00
   -1    0    9     -0.03      0.00
    1    0    9     25.91      0.00
    3    0    9    -25.68      0.00
    5    0    9      9.23      0.00
    7    0    9     -1.40      0.00
    9    0    9    -11.28      0.00
   11    0    9      7.59      0.00
   13    0    9     -0.09      0.00
   15    0    9     -1.07      0.00
  -22    1    9     -1.20      0.00
  -21    1    9     -0.09      0.00
  -20    1    9      5.61      0.00
  -19    1    9     -1.77      0.00
  -18    1    9     -3.94      0.00
  -17    1    9     -3.93      0.00
  -16    1    9     -4.38      0.00
  -15    1    9     -1.25      0.00
  -14    1    9     10.67      0.00
  -13    1    9     10.83      0.00
  -12    1    9     -6.62      0.00
  -11    1    9    -11.04      0.00
  -10    1    9      6.85      0.00
   -9    1    9      5.83      0.00
   -8    1    9     -7.01      0.00
   -7    1    9      8.93      0.00
   -6    1    9    -10.94      0.00
   -5    1    9     16.03      0.00
   -4    1    9      2.91      0.00
   -3    1    9      1.82      0.00
   -2    1    9     -0.44      0.00
   -1    1    9    -21.87      0.00
    0    1    9     24.46      0.00
    1    1    9     16.83      0.00
    2    1    9     -3.07      0.00
    3    1    9      5.09      0.00
    4    1    9    -10.29      0.00
    5    1    9     -1.18      0.00
    6    1    9      6.09      0.00
    7    1    9      2.26      0.00
    8    1    9     -6.27      0.00
    9    1    9      2.57      0.00
   10    1    9     -1.42      0.00
   11    1    9      0.34      0.00
   12    1    9      2.94      0.00
   13    1    9     -0.51      0.00
   14    1    9     -0.09      0.00
   15    1    9      0.44      0.00
  -22    2    9     -1.49      0.00
  -21    2    9     -0.89      0.00
  -20    2    9      1.89      0.00
  -19    2    9      0.81      0.00
  -18    2    9     -3.38      0.00
  -17    2    9     -0.15      0.00
  -16    2    9     -3.31      0.00
  -15    2    9      7.28      0.00
  -14    2    9     -2.44      0.00
  -13    2    9     -1.61      0.00
  -12    2    9      3.90      0.00
  -11    2    9    -16.03      0.00
  -10    2    9     -2.63      0.00
   -9    2    9     18.18      0.00
   -8    2    9     24.20      0.00
   -7    2    9     -9.21      0.00
   -6    2    9      2.34      0.00
   -5    2    9      6.51      0.00
   -4    2    9     17.32      0.00
   -3    2    9    -22.95      0.00
   -2    2    9    -14.05      0.00
   -1    2    9     18.61      0.00
    0    2    9     -7.38      0.00
    1    2    9     17.48      0.00
    2    2    9     24.94      0.00
    3    2    9    -14.09      0.00
    4    2    9     -6.18      0.00
    5    2    9      3.49      0.00
    6    2    9      5.11      0.00
    7    2    9      0.41      0.00
    8    2    9      7.61      0.00
    9    2    9     -3.02      0.00
   10    2    9     -3.85      0.00
   11    2    9      0.09      0.00
   12    2    9      2.55      0.00
   13    2    9      2.09      0.00
   14    2    9      0.97      0.00
   15    2    9      0.29      0.00
  -22    3    9     -0.37      0.00
  -21    3    9     -2.74      0.00
  -20    3    9     -0.39      0.00
  -19    3    9      5.27      0.00
  -18    3    9      2.32      0.00
  -17    3    9     -2.36      0.00
  -16    3    9      4.64      0.00
  -15    3    9    -10.53      0.00
  -14    3    9      1.77      0.00
  -13    3    9     -4.91      0.00
  -12    3    9     -6.55      0.00
  -11    3    9      6.06      0.00
  -10    3    9     -2.70      0.00
   -9    3    9     18.73      0.00
   -8    3    9     12.24      0.00
   -7    3    9     13.14      0.00
   -6    3    9     -5.18      0.00
   -5    3    9     -2.69      0.00
   -4    3    9      1.50      0.00
   -3    3    9      4.58      0.00
   -2    3    9    -10.07      0.00
   -1    3    9     -8.82      0.00
    0    3    9     15.77      0.00
    1    3    9      6.84      0.00
    2    3    9     -0.55      0.00
    3    3    9     11.13      0.00
    4    3    9      2.20      0.00
    5    3    9     -6.18      0.00
    6    3    9      0.90      0.00
    7    3    9     13.28      0.00
    8    3    9      0.62      0.00
    9    3    9     -1.21      0.00
   10    3    9     -1.97      0.00
   11    3    9     -1.70      0.00
   12    3    9      3.08      0.00
   13    3    9      4.62      0.00
   14    3    9      1.11      0.00
   15    3    9      0.51      0.00
  -22    4    9     -0.21      0.00
  -21    4    9      0.66      0.00
  -20    4    9      0.51      0.00
  -19    4    9      1.57      0.00
  -18    4    9      6.46      0.00
  -17    4    9      4.19      0.00
  -16    4    9    -11.70      0.00
  -15    4    9     -2.59      0.00
  -14    4    9     -8.64      0.00
  -13    4    9      5.11      0.00
  -12    4    9      2.35      0.00
  -11    4    9      4.79      0.00
  -10    4    9      5.79      0.00
   -9    4    9     -3.62      0.00
   -8    4    9     16.10      0.00
   -7    4    9      8.77      0.00
   -6    4    9      3.72      0.00
   -5    4    9     -6.66      0.00
   -4    4    9     -0.71      0.00
   -3    4    9     17.06      0.00
   -2    4    9     -6.09      0.00
   -1    4    9    -10.20      0.00
    0    4    9    -10.76      0.00
    1    4    9     -2.11      0.00
    2    4    9     22.29      0.00
    3    4    9     10.60      0.00
    4    4    9    -12.39      0.00
    5    4    9      0.39      0.00
    6    4    9      6.85      0.00
    7    4    9      3.85      0.00
    8    4    9      6.30      0.00
    9    4    9     -3.31      0.00
   10    4    9     -3.19      0.00
   11    4    9      4.78      0.00
   12    4    9      3.10      0.00
   13    4    9      1.17      0.00
   14    4    9      1.93      0.00
   15    4    9     -0.10      0.00
  -23    5    9      0.92      0.00
  -22    5    9      0.96      0.00
  -21    5    9     -0.30      0.00
  -20    5    9      0.35      0.00
  -19    5    9      3.22      0.00
  -18    5    9      2.91      0.00
  -17    5    9     -2.03      0.00
  -16    5    9      0.73      0.00
  -15    5    9    -13.65      0.00
  -14    5    9      1.73      0.00
  -13    5    9      9.31      0.00
  -12    5    9     12.08      0.00
  -11    5    9     -9.44      0.00
  -10    5    9      0.39      0.00
   -9    5    9     -0.31      0.00
   -8    5    9      5.67      0.00
   -7    5    9     11.45      0.00
   -6    5    9      5.90      0.00
   -5    5    9      5.73      0.00
   -4    5    9      5.95      0.00
   -3    5    9     -3.23      0.00
   -2    5    9      7.84      0.00
   -1    5    9    -31.30      0.00
    0    5    9    -11.82      0.00
    1    5    9     19.72      0.00
    2    5    9      2.90      0.00
    3    5    9     -5.18      0.00
    4    5    9      8.21      0.00
    5    5    9     -1.87      0.00
    6    5    9      0.10      0.00
    7    5    9      1.85      0.00
    8    5    9      3.79      0.00
    9    5    9      3.63      0.00
   10    5    9      2.04      0.00
   11    5    9      0.44      0.00
   12    5    9      0.43      0.00
   13    5    9      0.25      0.00
   14    5    9      0.40      0.00
   15    5    9      1.58      0.00
  -22    6    9     -0.26      0.00
  -21    6    9     -1.64      0.00
  -20    6    9      0.28      0.00
  -19    6    9      4.51      0.00
  -18    6    9     -0.93      0.00
  -17    6    9     -1.66      0.00
  -16    6    9     -3.88      0.00
  -15    6    9      7.62      0.00
  -14    6    9     -3.77      0.00
  -13    6    9      3.70      0.00
  -12    6    9      3.83      0.00
  -11    6    9      7.00      0.00
  -10    6    9    -19.40      0.00
   -9    6    9      6.89      0.00
   -8    6    9      4.16      0.00
   -7    6    9     15.13      0.00
   -6    6    9      5.98      0.00
   -5    6    9      5.88      0.00
   -4    6    9      2.31      0.00
   -3    6    9     -0.18      0.00
   -2    6    9    -22.11      0.00
   -1    6    9      6.00      0.00
    0    6    9     -6.53      0.00
    1    6    9     -6.76      0.00
    2    6    9      1.46      0.00
    3    6    9      7.29      0.00
    4    6    9     -4.60      0.00
    5    6    9      0.78      0.00
    6    6    9     -1.01      0.00
    7    6    9      1.94      0.00
    8    6    9      4.47      0.00
    9    6    9      9.91      0.00
   10    6    9     -3.04      0.00
   11    6    9     -5.42      0.00
   12    6    9      1.83      0.00
   13    6    9      0.90      0.00
   14    6    9      0.64      0.00
   15    6    9      1.77      0.00
  -22    7    9      1.60      0.00
  -21    7    9     -0.75      0.00
  -20    7    9     -0.60      0.00
  -19    7    9     -1.90      0.00
  -18    7    9      3.98      0.00
  -17    7    9     -1.82      0.00
  -16    7    9      3.57      0.00
  -15    7    9     -0.51      0.00
  -14    7    9      2.82      0.00
  -13    7    9     -7.86      0.00
  -12    7    9      5.76      0.00
  -11    7    9     -0.85      0.00
  -10    7    9      8.88      0.00
   -9    7    9    -19.12      0.00
   -8    7    9     12.03      0.00
   -7    7    9     11.53      0.00
   -6    7    9     12.14      0.00
   -5    7    9    -12.07      0.00
   -4    7    9      2.39      0.00
   -3    7    9     -2.12      0.00
   -2    7    9      6.56      0.00
   -1    7    9     -8.91      0.00
    0    7    9     -6.48      0.00
    1    7    9     -8.61      0.00
    2    7    9      5.50      0.00
    3    7    9     -7.08      0.00
    4    7    9      4.85      0.00
    5    7    9      1.65      0.00
    6    7    9     -0.85      0.00
    7    7    9      1.69      0.00
    8    7    9      5.62      0.00
    9    7    9     -1.69      0.00
   10    7    9      1.44      0.00
   11    7    9     -3.60      0.00
   12    7    9     -3.00      0.00
   13    7    9      3.69      0.00
   14    7    9      1.34      0.00
   15    7    9     -0.10      0.00
  -22    8    9     -0.24      0.00
  -21    8    9      1.02      0.00
  -20    8    9     -1.64      0.00
  -19    8    9     -1.16      0.00
  -18    8    9     -1.23      0.00
  -17    8    9      7.94      0.00
  -16    8    9     -2.11      0.00
  -15    8    9     -3.73      0.00
  -14    8    9     -5.90      0.00
  -13    8    9      4.18      0.00
  -12    8    9     -4.61      0.00
  -11    8    9     10.66      0.00
  -10    8    9     -7.49      0.00
   -9    8    9      6.84      0.00
   -8    8    9     -7.72      0.00
   -7    8    9      6.55      0.00
   -6    8    9      1.60      0.00
   -5    8    9      5.21      0.00
   -4    8    9    -14.88      0.00
   -3    8    9     14.99      0.00
   -2    8    9      0.53      0.00
   -1    8    9     -7.80      0.00
    0    8    9     -5.76      0.00
    1    8    9     -5.83      0.00
    2    8    9     -8.22      0.00
    3    8    9     14.52      0.00
    4    8    9     -1.07      0.00
    5    8    9     -1.15      0.00
    6    8    9     -0.89      0.00
    7    8    9      1.22      0.00
    8    8    9      0.20      0.00
    9    8    9     -0.04      0.00
   10    8    9     -2.64      0.00
   11    8    9      1.38      0.00
   12    8    9      0.74      0.00
   13    8    9     -1.00      0.00
   14    8    9      2.44      0.00
   15    8    9      0.05      0.00
  -22    9    9     -0.72      0.00
  -21    9    9      0.36      0.00
  -20    9    9     -2.12      0.00
  -19    9    9     -0.82      0.00
  -18    9    9      2.08      0.00
  -17    9    9     -2.34      0.00
  -16    9    9      1.14      0.00
  -15    9    9     -6.89      0.00
  -14    9    9     -3.66      0.00
  -13    9    9      0.02      0.00
  -12    9    9      6.26      0.00
  -11    9    9     -8.65      0.00
  -10    9    9     10.39      0.00
   -9    9    9     -3.91      0.00
   -8    9    9     -5.45      0.00
   -7    9    9     -7.85      0.00
   -6    9    9      7.58      0.00
   -5    9    9      0.60      0.00
   -4    9    9      2.37      0.00
   -3    9    9    -13.84      0.00
   -2    9    9     11.95      0.00
   -1    9    9     -0.84      0.00
    0    9    9    -19.41      0.00
    1    9    9      1.31      0.00
    2    9    9     12.76      0.00
    3    9    9     -2.91      0.00
    4    9    9     -0.92      0.00
    5    9    9     -0.40      0.00
    6    9    9      2.87      0.00
    7    9    9     -5.29      0.00
    8    9    9     -0.78      0.00
    9    9    9      2.28      0.00
   10    9    9      0.92      0.00
   11    9    9      2.05      0.00
   12    9    9      0.73      0.00
   13    9    9     -0.96      0.00
   14    9    9     -2.02      0.00
   15    9    9      1.84      0.00
  -22   10    9     -1.18      0.00
  -21   10    9     -2.04      0.00
  -20   10    9     -0.28      0.00
  -19   10    9     -1.41      0.00
  -18   10    9      0.79      0.00
  -17   10    9     -3.55      0.00
  -16   10    9     -6.04      0.00
  -15   10    9      4.25      0.00
  -14   10    9     -1.02      0.00
  -13   10    9     -7.09      0.00
  -12   10    9     -3.59      0.00
  -11   10    9      7.32      0.00
  -10   10    9     -4.51      0.00
   -9   10    9     -2.29      0.00
   -8   10    9     -4.57      0.00
   -7   10    9     -4.02      0.00
   -6   10    9     -4.34      0.00
   -5   10    9      4.22      0.00
   -4   10    9     -8.33      0.00
   -3   10    9     -1.79      0.00
   -2   10    9     -3.64      0.00
   -1   10    9     -1.87      0.00
    0   10    9      1.12      0.00
    1   10    9     -2.39      0.00
    2   10    9      4.10      0.00
    3   10    9     -0.65      0.00
    4   10    9     -0.32      0.00
    5   10    9      0.74      0.00
    6   10    9     -2.02      0.00
    7   10    9     -1.94      0.00
    8   10    9     -3.32      0.00
    9   10    9      7.35      0.00
   10   10    9      4.78      0.00
   11   10    9     -4.27      0.00
   12   10    9     -0.75      0.00
   13   10    9      0.93      0.00
   14   10    9      1.37      0.00
  -22   11    9     -1.08      0.00
  -21   11    9     -2.15      0.00
  -20   11    9     -0.50      0.00
  -19   11    9     -0.60      0.00
  -18   11    9     -4.34      0.00
  -17   11    9      0.91      0.00
  -16   11    9      1.75      0.00
  -15   11    9     -0.18      0.00
  -14   11    9     -4.63      0.00
  -13   11    9     -4.59      0.00
  -12   11    9     -4.15      0.00
  -11   11    9     -1.46      0.00
  -10   11    9      2.19      0.00
   -9   11    9     -1.33      0.00
   -8   11    9    -11.43      0.00
   -7   11    9     -6.63      0.00
   -6   11    9      0.75      0.00
   -5   11    9     -8.56      0.00
   -4   11    9     -2.26      0.00
   -3   11    9     -6.39      0.00
   -2   11    9     -4.05      0.00
   -1   11    9     11.01      0.00
    0   11    9     -5.57      0.00
    1   11    9     -8.90      0.00
    2   11    9     -1.16      0.00
    3   11    9      8.10      0.00
    4   11    9     -4.48      0.00
    5   11    9     -2.71      0.00
    6   11    9     -0.78      0.00
    7   11    9      3.08      0.00
    8   11    9      1.77      0.00
    9   11    9     -1.12      0.00
   10   11    9      2.32      0.00
   11   11    9     -2.09      0.00
   12   11    9     -1.30      0.00
   13   11    9      3.78      0.00
   14   11    9      0.13      0.00
  -21   12    9     -0.08      0.00
  -20   12    9     -0.54      0.00
  -19   12    9     -1.50      0.00
  -18   12    9     -2.06      0.00
  -17   12    9      1.86      0.00
  -16   12    9      5.13      0.00
  -15   12    9     -5.77      0.00
  -14   12    9     -1.56      0.00
  -13   12    9     -6.61      0.00
  -12   12    9     -0.36      0.00
  -11   12    9     -1.05      0.00
  -10   12    9     -4.04      0.00
   -9   12    9     -8.79      0.00
   -8   12    9     -0.58      0.00
   -7   12    9     -6.39      0.00
   -6   12    9    -10.70      0.00
   -5   12    9     -2.37      0.00
   -4   12    9     -4.90      0.00
   -3   12    9      1.40      0.00
   -2   12    9      4.28      0.00
   -1   12    9    -11.98      0.00
    0   12    9     -0.74      0.00
    1   12    9     -8.60      0.00
    2   12    9     -2.89      0.00
    3   12    9      2.22      0.00
    4   12    9      4.33      0.00
    5   12    9     -3.77      0.00
    6   12    9     -0.36      0.00
    7   12    9     -0.41      0.00
    8   12    9      2.36      0.00
    9   12    9     -3.69      0.00
   10   12    9     -3.19      0.00
   11   12    9      3.61      0.00
   12   12    9      1.28      0.00
   13   12    9      1.08      0.00
   14   12    9      2.58      0.00
  -21   13    9      0.75      0.00
  -20   13    9     -0.99      0.00
  -19   13    9     -2.65      0.00
  -18   13    9      2.07      0.00
  -17   13    9      0.35      0.00
  -16   13    9     -1.44      0.00
  -15   13    9      4.14      0.00
  -14   13    9     -8.53      0.00
  -13   13    9      4.62      0.00
  -12   13    9     -3.10      0.00
  -11   13    9     -6.27      0.00
  -10   13    9     -9.40      0.00
   -9   13    9      2.15      0.00
   -8   13    9     -1.01      0.00
   -7   13    9    -12.12      0.00
   -6   13    9     -8.30      0.00
   -5   13    9      1.86      0.00
   -4   13    9      4.02      0.00
   -3   13    9     -3.54      0.00
   -2   13    9    -11.10      0.00
   -1   13    9      0.58      0.00
    0   13    9     -8.47      0.00
    1   13    9     -2.18      0.00
    2   13    9     -5.05      0.00
    3   13    9      3.32      0.00
    4   13    9      1.78      0.00
    5   13    9     -2.26      0.00
    6   13    9     -3.99      0.00
    7   13    9     -1.62      0.00
    8   13    9     -4.24      0.00
    9   13    9      1.01      0.00
   10   13    9      0.42      0.00
   11   13    9      0.65      0.00
   12   13    9      2.41      0.00
   13   13    9      0.28      0.00
  -21   14    9     -2.58      0.00
  -20   14    9     -0.22      0.00
  -19   14    9      1.77      0.00
  -18   14    9     -1.29      0.00
  -17   14    9     -0.56      0.00
  -16   14    9     -0.71      0.00
  -15   14    9     -1.93      0.00
  -14   14    9     10.91      0.00
  -13   14    9     -4.91      0.00
  -12   14    9     -4.69      0.00
  -11   14    9     -9.35      0.00
  -10   14    9      3.16      0.00
   -9   14    9     -2.65      0.00
   -8   14    9     -7.48      0.00
   -7   14    9     -0.74      0.00
   -6   14    9     -4.54      0.00
   -5   14    9      1.31      0.00
   -4   14    9      0.30      0.00
   -3   14    9    -13.13      0.00
   -2   14    9      0.35      0.00
   -1   14    9      0.10      0.00
    0   14    9      0.51      0.00
    1   14    9     -8.25      0.00
    2   14    9     -0.60      0.00
    3   14    9     -1.90      0.00
    4   14    9     -1.04      0.00
    5   14    9     -3.88      0.00
    6   14    9     -2.38      0.00
    7   14    9     -4.04      0.00
    8   14    9     -3.63      0.00
    9   14    9      0.16      0.00
   10   14    9      3.22      0.00
   11   14    9     -1.66      0.00
   12   14    9     -1.08      0.00
   13   14    9      0.35      0.00
  -20   15    9     -1.59      0.00
  -19   15    9     -0.84      0.00
  -18   15    9      0.39      0.00
  -17   15    9     -0.89      0.00
  -16   15    9     -0.43      0.00
  -15   15    9      8.49      0.00
  -14   15    9     -1.89      0.00
  -13   15    9     -4.25      0.00
  -12   15    9     -3.31      0.00
  -11   15    9      4.08      0.00
  -10   15    9     -7.57      0.00
   -9   15    9     -1.03      0.00
   -8   15    9      0.56      0.00
   -7   15    9     -5.26      0.00
   -6   15    9      0.01      0.00
   -5   15    9     -6.66      0.00
   -4   15    9     -2.60      0.00
   -3   15    9      4.30      0.00
   -2   15    9     -6.63      0.00
   -1   15    9      8.34      0.00
    0   15    9      3.76      0.00
    1   15    9     -6.36      0.00
    2   15    9     -9.14      0.00
    3   15    9     -1.14      0.00
    4   15    9     -1.36      0.00
    5   15    9     -1.84      0.00
    6   15    9     -8.11      0.00
    7   15    9     -0.69      0.00
    8   15    9      0.91      0.00
    9   15    9     -2.62      0.00
   10   15    9     -0.26      0.00
   11   15    9      0.61      0.00
   12   15    9     -3.91      0.00
   13   15    9      0.62      0.00
  -20   16    9     -2.30      0.00
  -19   16    9      0.66      0.00
  -18   16    9      0.42      0.00
  -17   16    9      0.10      0.00
  -16   16    9      3.66      0.00
  -15   16    9     -4.78      0.00
  -14   16    9      1.20      0.00
  -13   16    9      1.18      0.00
  -12   16    9     -2.12      0.00
  -11   16    9      2.75      0.00
  -10   16    9      1.82      0.00
   -9   16    9    -10.27      0.00
   -8   16    9     -1.97      0.00
   -7   16    9      1.82      0.00
   -6   16    9     -3.84      0.00
   -5   16    9     -3.06      0.00
   -4   16    9     -1.45      0.00
   -3   16    9      5.50      0.00
   -2   16    9     10.33      0.00
   -1   16    9     -2.05      0.00
    0   16    9      2.35      0.00
    1   16    9     -1.10      0.00
    2   16    9     -9.72      0.00
    3   16    9     -4.74      0.00
    4   16    9      1.64      0.00
    5   16    9     -1.57      0.00
    6   16    9     -0.29      0.00
    7   16    9     -5.59      0.00
    8   16    9      0.59      0.00
    9   16    9     -0.87      0.00
   10   16    9     -2.96      0.00
   11   16    9     -1.40      0.00
   12   16    9      0.41      0.00
  -19   17    9     -3.24      0.00
  -18   17    9      1.03      0.00
  -17   17    9      0.90      0.00
  -16   17    9     -4.26      0.00
  -15   17    9      1.93      0.00
  -14   17    9     -0.66      0.00
  -13   17    9      1.71      0.00
  -12   17    9      4.75      0.00
  -11   17    9     -1.46      0.00
  -10   17    9     -2.20      0.00
   -9   17    9     -4.55      0.00
   -8   17    9     -4.23      0.00
   -7   17    9      5.38      0.00
   -6   17    9     -3.02      0.00
   -5   17    9     -2.37      0.00
   -4   17    9      3.33      0.00
   -3   17    9      8.19      0.00
   -2   17    9      5.10      0.00
   -1   17    9     -0.91      0.00
    0   17    9      0.14      0.00
    1   17    9      1.75      0.00
    2   17    9     -2.20      0.00
    3   17    9     -6.92      0.00
    4   17    9      0.15      0.00
    5   17    9      5.62      0.00
    6   17    9     -2.39      0.00
    7   17    9     -3.17      0.00
    8   17    9     -4.32      0.00
    9   17    9      0.36      0.00
   10   17    9     -1.72      0.00
   11   17    9      0.96      0.00
   12   17    9     -0.15      0.00
  -19   18    9      1.14      0.00
  -18   18    9     -2.04      0.00
  -17   18    9     -0.08      0.00
  -16   18    9      1.25      0.00
  -15   18    9     -2.57      0.00
  -14   18    9      0.76      0.00
  -13   18    9      4.15      0.00
  -12   18    9      2.53      0.00
  -11   18    9     -4.09      0.00
  -10   18    9     -3.84      0.00
   -9   18    9      4.54      0.00
   -8   18    9      1.33      0.00
   -7   18    9     -5.25      0.00
   -6   18    9      3.65      0.00
   -5   18    9      2.08      0.00
   -4   18    9      6.36      0.00
   -3   18    9     -4.30      0.00
   -2   18    9     -1.71      0.00
   -1   18    9      9.01      0.00
    0   18    9      2.16      0.00
    1   18    9      3.37      0.00
    2   18    9     -3.22      0.00
    3   18    9     -3.29      0.00
    4   18    9      2.40      0.00
    5   18    9      1.02      0.00
    6   18    9      1.60      0.00
    7   18    9     -2.90      0.00
    8   18    9     -3.28      0.00
    9   18    9     -0.45      0.00
   10   18    9      3.51      0.00
   11   18    9     -0.94      0.00
  -18   19    9     -1.55      0.00
  -17   19    9      0.79      0.00
  -16   19    9     -0.07      0.00
  -15   19    9     -0.39      0.00
  -14   19    9      3.07      0.00
  -13   19    9     -1.86      0.00
  -12   19    9     -5.16      0.00
  -11   19    9      5.41      0.00
  -10   19    9      2.58      0.00
   -9   19    9      0.66      0.00
   -8   19    9      1.48      0.00
   -7   19    9      1.83      0.00
   -6   19    9      1.52      0.00
   -5   19    9      2.31      0.00
   -4   19    9     -6.17      0.00
   -3   19    9      0.82      0.00
   -2   19    9     -0.06      0.00
   -1   19    9      4.42      0.00
    0   19    9     11.39      0.00
    1   19    9     -4.00      0.00
    2   19    9     -0.37      0.00
    3   19    9      1.05      0.00
    4   19    9     -1.17      0.00
    5   19    9      2.31      0.00
    6   19    9      0.13      0.00
    7   19    9      0.48      0.00
    8   19    9      0.34      0.00
    9   19    9     -0.24      0.00
   10   19    9      0.64      0.00
   11   19    9      1.88      0.00
  -18   20    9     -0.40      0.00
  -17   20    9     -0.66      0.00
  -16   20    9      1.66      0.00
  -15   20    9      0.04      0.00
  -14   20    9     -4.16      0.00
  -13   20    9      1.08      0.00
  -12   20    9      0.92      0.00
  -11   20    9     -1.39      0.00
  -10   20    9      9.25      0.00
   -9   20    9      1.49      0.00
   -8   20    9      0.58      0.00
   -7   20    9      2.45      0.00
   -6   20    9      0.08      0.00
   -5   20    9     -3.98      0.00
   -4   20    9     -1.43      0.00
   -3   20    9      0.93      0.00
   -2   20    9      4.30      0.00
   -1   20    9      0.69      0.00
    0   20    9     -1.78      0.00
    1   20    9      7.53      0.00
    2   20    9      0.21      0.00
    3   20    9     -1.84      0.00
    4   20    9     -0.97      0.00
    5   20    9      0.14      0.00
    6   20    9      3.48      0.00
    7   20    9      2.82      0.00
    8   20    9     -0.66      0.00
    9   20    9     -1.65      0.00
   10   20    9     -0.71      0.00
  -17   21    9      0.75      0.00
  -16   21    9     -0.50      0.00
  -15   21    9     -1.22      0.00
  -14   21    9      0.33      0.00
  -13   21    9      0.00      0.00
  -12   21    9      2.50      0.00
  -11   21    9      1.43      0.00
  -10   21    9      0.92      0.00
   -9   21    9      8.13      0.00
   -8   21    9     -0.81      0.00
   -7   21    9     -3.24      0.00
   -6   21    9      1.02      0.00
   -5   21    9      3.19      0.00
   -4   21    9     -1.67      0.00
   -3   21    9     -1.97      0.00
   -2   21    9      1.47      0.00
   -1   21    9     -3.61      0.00
    0   21    9      1.27      0.00
    1   21    9      4.05      0.00
    2   21    9      3.01      0.00
    3   21    9     -3.71      0.00
    4   21    9     -2.13      0.00
    5   21    9      2.04      0.00
    6   21    9      3.52      0.00
    7   21    9     -1.60      0.00
    8   21    9     -0.72      0.00
    9   21    9     -0.09      0.00
   10   21    9     -0.12      0.00
  -17   22    9     -1.91      0.00
  -16   22    9      0.32      0.00
  -15   22    9      2.64      0.00
  -14   22    9     -0.70      0.00
  -13   22    9     -0.29      0.00
  -12   22    9      1.83      0.00
  -11   22    9      3.21      0.00
  -10   22    9     -1.24      0.00
   -9   22    9     -0.27      0.00
   -8   22    9      4.61      0.00
   -7   22    9      1.99      0.00
   -6   22    9     -1.06      0.00
   -5   22    9     -0.21      0.00
   -4   22    9      4.44      0.00
   -3   22    9     -3.47      0.00
   -2   22    9     -8.69      0.00
   -1   22    9      3.33      0.00
    0   22    9     -1.04      0.00
    1   22    9      1.49      0.00
    2   22    9      3.36      0.00
    3   22    9     -1.82      0.00
    4   22    9     -2.45      0.00
    5   22    9      0.73      0.00
    6   22    9     -0.91      0.00
    7   22    9      1.77      0.00
    8   22    9     -1.88      0.00
    9   22    9      0.30      0.00
  -16   23    9      1.38      0.00
  -15   23    9     -0.31      0.00
  -14   23    9      1.37      0.00
  -13   23    9     -1.22      0.00
  -12   23    9     -1.80      0.00
  -11   23    9      1.03      0.00
  -10   23    9      3.09      0.00
   -9   23    9     -0.05      0.00
   -8   23    9      3.19      0.00
   -7   23    9      2.38      0.00
   -6   23    9      1.05      0.00
   -5   23    9      1.16      0.00
   -4   23    9     -2.04      0.00
   -3   23    9     -1.14      0.00
   -2   23    9     -2.86      0.00
   -1   23    9     -4.92      0.00
    0   23    9      4.88      0.00
    1   23    9      1.11      0.00
    2   23    9     -0.79      0.00
    3   23    9      0.82      0.00
    4   23    9     -1.46      0.00
    5   23    9     -2.55      0.00
    6   23    9      0.49      0.00
    7   23    9     -1.06      0.00
    8   23    9      1.78      0.00
  -15   24    9      0.37      0.00
  -14   24    9     -2.45      0.00
  -13   24    9      0.24      0.00
  -12   24    9      0.63      0.00
  -11   24    9     -0.05      0.00
  -10   24    9      2.17      0.00
   -9   24    9      1.50      0.00
   -8   24    9     -0.77      0.00
   -7   24    9      4.57      0.00
   -6   24    9      4.32      0.00
   -5   24    9     -3.00      0.00
   -4   24    9     -2.01      0.00
   -3   24    9      1.80      0.00
   -2   24    9      0.08      0.00
   -1   24    9     -0.11      0.00
    0   24    9     -1.22      0.00
    1   24    9     -1.15      0.00
    2   24    9      0.52      0.00
    3   24    9      0.99      0.00
    4   24    9     -0.28      0.00
    5   24    9     -1.21      0.00
    6   24    9     -2.60      0.00
    7   24    9      1.88      0.00
    8   24    9     -0.53      0.00
  -14   25    9     -0.14      0.00
  -13   25    9     -0.67      0.00
  -12   25    9      1.18      0.00
  -11   25    9      1.13      0.00
  -10   25    9     -3.27      0.00
   -9   25    9      1.22      0.00
   -8   25    9      4.80      0.00
   -7   25    9      0.87      0.00
   -6   25    9     -2.36      0.00
   -5   25    9      3.72      0.00
   -4   25    9      2.21      0.00
   -3   25    9     -0.73      0.00
   -2   25    9      2.67      0.00
   -1   25    9     -2.32      0.00
    0   25    9     -5.46      0.00
    1   25    9      3.27      0.00
    2   25    9      3.23      0.00
    3   25    9     -1.50      0.00
    4   25    9     -1.45      0.00
    5   25    9      0.29      0.00
    6   25    9      1.23      0.00
    7   25    9     -3.18      0.00
  -13   26    9      0.02      0.00
  -12   26    9     -1.60      0.00
  -11   26    9     -1.24      0.00
  -10   26    9      2.76      0.00
   -9   26    9     -1.48      0.00
   -8   26    9     -2.91      0.00
   -7   26    9     -0.26      0.00
   -6   26    9      5.34      0.00
   -5   26    9      0.63      0.00
   -4   26    9      1.28      0.00
   -3   26    9      2.72      0.00
   -2   26    9     -3.64      0.00
   -1   26    9     -1.08      0.00
    0   26    9      2.22      0.00
    1   26    9     -2.29      0.00
    2   26    9      2.29      0.00
    3   26    9      2.32      0.00
    4   26    9     -2.01      0.00
    5   26    9     -0.30      0.00
  -12   27    9     -2.87      0.00
  -11   27    9      0.25      0.00
  -10   27    9     -0.84      0.00
   -9   27    9     -2.72      0.00
   -8   27    9     -1.23      0.00
   -7   27    9      2.40      0.00
   -6   27    9      0.67      0.00
   -5   27    9      1.57      0.00
   -4   27    9     -1.17      0.00
   -3   27    9     -1.34      0.00
   -2   27    9      2.05      0.00
   -1   27    9      0.69      0.00
    0   27    9     -1.31      0.00
    1   27    9      0.18      0.00
    2   27    9      0.63      0.00
    3   27    9      1.54      0.00
    4   27    9     -0.51      0.00
  -10   28    9     -0.69      0.00
   -9   28    9      1.30      0.00
   -8   28    9     -1.40      0.00
   -7   28    9     -2.26      0.00
   -6   28    9      0.22      0.00
   -5   28    9      0.69      0.00
   -4   28    9     -1.75      0.00
   -3   28    9      1.04      0.00
   -2   28    9      2.34      0.00
   -1   28    9     -2.26      0.00
    0   28    9      1.08      0.00
    1   28    9      0.42      0.00
    2   28    9     -3.20      0.00
    3   28    9     -0.33      0.00
   -8   29    9     -0.64      0.00
   -7   29    9     -1.94      0.00
   -6   29    9     -1.24      0.00
   -5   29    9      0.28      0.00
   -4   29    9      2.36      0.00
   -3   29    9     -1.13      0.00
   -2   29    9     -1.31      0.00
   -1   29    9      1.70      0.00
    0   29    9     -2.37      0.00
    1   29    9     -1.79      0.00
  -22    0   10      3.27      0.00
  -20    0   10      1.71      0.00
  -18    0   10    -10.10      0.00
  -16    0   10     -1.93      0.00
  -14    0   10      5.44      0.00
  -12    0   10    -11.49      0.00
  -10    0   10      5.25      0.00
   -8    0   10     -1.00      0.00
   -6    0   10      6.54      0.00
   -4    0   10     -1.86      0.00
   -2    0   10    -18.69      0.00
    0    0   10     27.85      0.00
    2    0   10    -15.60      0.00
    4    0   10      6.83      0.00
    6    0   10      3.11      0.00
    8    0   10     -9.74      0.00
   10    0   10      7.44      0.00
   12    0   10     -1.66      0.00
   14    0   10     -1.14      0.00
  -23    1   10     -1.73      0.00
  -22    1   10     -2.33      0.00
  -21    1   10      4.02      0.00
  -20    1   10     -1.59      0.00
  -19    1   10     -2.58      0.00
  -18    1   10      0.82      0.00
  -17    1   10     -5.59      0.00
  -16    1   10      0.82      0.00
  -15    1   10      1.83      0.00
  -14    1   10      1.68      0.00
  -13    1   10     -9.67      0.00
  -12    1   10    -13.79      0.00
  -11    1   10      0.27      0.00
  -10    1   10      6.55      0.00
   -9    1   10      8.56      0.00
   -8    1   10     14.81      0.00
   -7    1   10     -4.15      0.00
   -6    1   10     11.04      0.00
   -5    1   10      2.12      0.00
   -4    1   10     -3.84      0.00
   -3    1   10    -16.11      0.00
   -2    1   10    -13.66      0.00
   -1    1   10     12.57      0.00
    0    1   10      9.63      0.00
    1    1   10      5.67      0.00
    2    1   10      4.74      0.00
    3    1   10    -11.69      0.00
    4    1   10     -3.78      0.00
    5    1   10     10.82      0.00
    6    1   10      5.18      0.00
    7    1   10     -3.73      0.00
    8    1   10      4.62      0.00
    9    1   10     -3.50      0.00
   10    1   10     -2.47      0.00
   11    1   10      3.82      0.00
   12    1   10      0.60      0.00
   13    1   10     -0.67      0.00
   14    1   10      1.20      0.00
   15    1   10     -0.48      0.00
  -23    2   10     -0.87      0.00
  -22    2   10     -1.86      0.00
  -21    2   10     -0.68      0.00
  -20    2   10      3.53      0.00
  -19    2   10     -0.29      0.00
  -18    2   10     -0.48      0.00
  -17    2   10      0.60      0.00
  -16    2   10     -1.70      0.00
  -15    2   10     -5.41      0.00
  -14    2   10     -8.06      0.00
  -13    2   10      1.39      0.00
  -12    2   10    -10.93      0.00
  -11    2   10     -9.72      0.00
  -10    2   10     17.50      0.00
   -9    2   10     22.49      0.00
   -8    2   10     -5.48      0.00
   -7    2   10      7.35      0.00
   -6    2   10     -0.50      0.00
   -5    2   10     17.59      0.00
   -4    2   10    -19.73      0.00
   -3    2   10    -12.54      0.00
   -2    2   10     10.72      0.00
   -1    2   10    -11.77      0.00
    0    2   10      7.38      0.00
    1    2   10     16.94      0.00
    2    2   10    -10.87      0.00
    3    2   10     -3.14      0.00
    4    2   10      3.83      0.00
    5    2   10      3.23      0.00
    6    2   10      4.46      0.00
    7    2   10     11.02      0.00
    8    2   10     -5.53      0.00
    9    2   10     -4.30      0.00
   10    2   10     -0.45      0.00
   11    2   10      2.63      0.00
   12    2   10      3.97      0.00
   13    2   10      1.65      0.00
   14    2   10     -0.87      0.00
   15    2   10      0.72      0.00
  -23    3   10      0.26      0.00
  -22    3   10     -1.97      0.00
  -21    3   10     -0.30      0.00
  -20    3   10      3.28      0.00
  -19    3   10      3.95      0.00
  -18    3   10     -0.59      0.00
  -17    3   10     -0.80      0.00
  -16    3   10     -8.79      0.00
  -15    3   10     -2.90      0.00
  -14    3   10     -1.66      0.00
  -13    3   10     -6.49      0.00
  -12    3   10      6.46      0.00
  -11    3   10     -3.03      0.00
  -10    3   10     -0.18      0.00
   -9    3   10      6.54      0.00
   -8    3   10     17.92      0.00
   -7    3   10     -7.05      0.00
   -6    3   10      4.55      0.00
   -5    3   10     -2.22      0.00
   -4    3   10     17.91      0.00
   -3    3   10     -9.23      0.00
   -2    3   10    -19.28      0.00
   -1    3   10      8.07      0.00
    0    3   10     -5.55      0.00
    1    3   10     -4.02      0.00
    2    3   10     16.45      0.00
    3    3   10     -1.38      0.00
    4    3   10     -9.19      0.00
    5    3   10      2.21      0.00
    6    3   10     14.63      0.00
    7    3   10     -0.36      0.00
    8    3   10      0.21      0.00
    9    3   10     -2.65      0.00
   10    3   10     -0.79      0.00
   11    3   10      3.44      0.00
   12    3   10      4.54      0.00
   13    3   10      0.81      0.00
   14    3   10     -0.70      0.00
   15    3   10     -0.12      0.00
  -23    4   10      0.59      0.00
  -22    4   10      1.22      0.00
  -21    4   10     -1.22      0.00
  -20    4   10      0.35      0.00
  -19    4   10      4.75      0.00
  -18    4   10      2.01      0.00
  -17    4   10     -8.81      0.00
  -16    4   10     -2.26      0.00
  -15    4   10     -4.52      0.00
  -14    4   10      6.06      0.00
  -13    4   10      6.02      0.00
  -12    4   10     -3.59      0.00
  -11    4   10     -1.91      0.00
  -10    4   10    -11.86      0.00
   -9    4   10      7.46      0.00
   -8    4   10      4.99      0.00
   -7    4   10     12.20      0.00
   -6    4   10     -4.49      0.00
   -5    4   10      9.92      0.00
   -4    4   10      9.47      0.00
   -3    4   10     -2.45      0.00
   -2    4   10    -14.23      0.00
   -1    4   10    -19.00      0.00
    0    4   10      0.73      0.00
    1    4   10     14.78      0.00
    2    4   10      1.48      0.00
    3    4   10     -9.64      0.00
    4    4   10     -0.77      0.00
    5    4   10      4.80      0.00
    6    4   10     -0.42      0.00
    7    4   10      9.73      0.00
    8    4   10     -1.18      0.00
    9    4   10     -2.89      0.00
   10    4   10      4.04      0.00
   11    4   10      2.20      0.00
   12    4   10     -0.39      0.00
   13    4   10      0.95      0.00
   14    4   10      0.53      0.00
  -22    5   10     -0.45      0.00
  -21    5   10     -0.53      0.00
  -20    5   10      0.99      0.00
  -19    5   10      0.74      0.00
  -18    5   10     -1.34      0.00
  -17    5   10      2.14      0.00
  -16    5   10     -6.74      0.00
  -15    5   10      4.09      0.00
  -14    5   10      5.80      0.00
  -13    5   10      5.77      0.00
  -12    5   10     -8.45      0.00
  -11    5   10     -8.45      0.00
  -10    5   10     -1.64      0.00
   -9    5   10     -4.73      0.00
   -8    5   10     13.08      0.00
   -7    5   10      5.37      0.00
   -6    5   10     10.17      0.00
   -5    5   10      0.99      0.00
   -4    5   10     -3.12      0.00
   -3    5   10      5.02      0.00
   -2    5   10    -19.68      0.00
   -1    5   10     -7.78      0.00
    0    5   10     10.71      0.00
    1    5   10     -4.83      0.00
    2    5   10     -7.69      0.00
    3    5   10      6.95      0.00
    4    5   10     -4.34      0.00
    5    5   10     -4.28      0.00
    6    5   10      4.68      0.00
    7    5   10      2.53      0.00
    8    5   10      6.92      0.00
    9    5   10      1.81      0.00
   10    5   10     -4.12      0.00
   11    5   10     -0.88      0.00
   12    5   10      0.33      0.00
   13    5   10      1.07      0.00
   14    5   10      0.97      0.00
  -23    6   10      0.35      0.00
  -22    6   10     -1.83      0.00
  -21    6   10     -0.04      0.00
  -20    6   10      1.62      0.00
  -19    6   10     -0.46      0.00
  -18    6   10     -0.86      0.00
  -17    6   10     -1.59      0.00
  -16    6   10      9.44      0.00
  -15    6   10     -4.25      0.00
  -14    6   10     -1.99      0.00
  -13    6   10      0.62      0.00
  -12    6   10      6.41      0.00
  -11    6   10    -13.02      0.00
  -10    6   10     -3.02      0.00
   -9    6   10      3.08      0.00
   -8    6   10      4.89      0.00
   -7    6   10      6.76      0.00
   -6    6   10     -1.57      0.00
   -5    6   10      1.02      0.00
   -4    6   10      1.50      0.00
   -3    6   10    -13.80      0.00
   -2    6   10     13.66      0.00
   -1    6   10     -4.08      0.00
    0    6   10    -13.59      0.00
    1    6   10     -0.66      0.00
    2    6   10      3.52      0.00
    3    6   10     -7.81      0.00
    4    6   10      2.25      0.00
    5    6   10     -0.89      0.00
    6    6   10     -1.58      0.00
    7    6   10      5.28      0.00
    8    6   10      7.38      0.00
    9    6   10     -3.34      0.00
   10    6   10     -6.01      0.00
   11    6   10     -0.71      0.00
   12    6   10      2.05      0.00
   13    6   10      0.68      0.00
   14    6   10      0.88      0.00
  -22    7   10      0.25      0.00
  -21    7   10     -0.83      0.00
  -20    7   10     -2.15      0.00
  -19    7   10      1.94      0.00
  -18    7   10      0.59      0.00
  -17    7   10      3.04      0.00
  -16    7   10     -4.27      0.00
  -15    7   10      2.33      0.00
  -14    7   10     -6.98      0.00
  -13    7   10      3.14      0.00
  -12    7   10      0.82      0.00
  -11    7   10      9.22      0.00
  -10    7   10    -17.02      0.00
   -9    7   10      0.06      0.00
   -8    7   10      4.78      0.00
   -7    7   10      4.49      0.00
   -6    7   10     -9.94      0.00
   -5    7   10     -2.51      0.00
   -4    7   10      3.33      0.00
   -3    7   10     12.43      0.00
   -2    7   10    -10.04      0.00
   -1    7   10     -1.37      0.00
    0    7   10     -7.29      0.00
    1    7   10     -0.49      0.00
    2    7   10     -4.71      0.00
    3    7   10      6.89      0.00
    4    7   10     -0.83      0.00
    5    7   10     -3.43      0.00
    6    7   10     -0.42      0.00
    7    7   10      2.81      0.00
    8    7   10     -3.48      0.00
    9    7   10      2.13      0.00
   10    7   10     -1.83      0.00
   11    7   10     -2.76      0.00
   12    7   10      1.67      0.00
   13    7   10      1.79      0.00
   14    7   10     -0.88      0.00
  -22    8   10      1.66      0.00
  -21    8   10     -1.95      0.00
  -20    8   10     -1.11      0.00
  -19    8   10     -1.21      0.00
  -18    8   10      5.36      0.00
  -17    8   10     -3.39      0.00
  -16    8   10     -3.85      0.00
  -15    8   10     -6.63      0.00
  -14    8   10      7.23      0.00
  -13    8   10     -3.78      0.00
  -12    8   10      7.15      0.00
  -11    8   10     -7.34      0.00
  -10    8   10      6.65      0.00
   -9    8   10    -13.01      0.00
   -8    8   10     -2.63      0.00
   -7    8   10     -2.62      0.00
   -6    8   10      5.49      0.00
   -5    8   10    -11.24      0.00
   -4    8   10      7.84      0.00
   -3    8   10      1.74      0.00
   -2    8   10     -1.62      0.00
   -1    8   10     -8.79      0.00
    0    8   10      0.75      0.00
    1    8   10     -4.84      0.00
    2    8   10     13.62      0.00
    3    8   10     -3.83      0.00
    4    8   10     -2.87      0.00
    5    8   10     -1.11      0.00
    6    8   10     -3.04      0.00
    7    8   10     -2.66      0.00
    8    8   10      3.23      0.00
    9    8   10     -2.51      0.00
   10    8   10      2.65      0.00
   11    8   10      1.34      0.00
   12    8   10     -2.18      0.00
   13    8   10      0.13      0.00
   14    8   10     -0.39      0.00
  -22    9   10     -0.76      0.00
  -21    9   10     -0.06      0.00
  -20    9   10     -2.17      0.00
  -19    9   10      2.24      0.00
  -18    9   10     -4.10      0.00
  -17    9   10      0.42      0.00
  -16    9   10     -4.81      0.00
  -15    9   10      0.78      0.00
  -14    9   10     -2.50      0.00
  -13    9   10      6.37      0.00
  -12    9   10    -11.12      0.00
  -11    9   10      9.95      0.00
  -10    9   10     -6.95      0.00
   -9    9   10     -5.14      0.00
   -8    9   10    -11.37      0.00
   -7    9   10      3.30      0.00
   -6    9   10     -1.45      0.00
   -5    9   10      2.77      0.00
   -4    9   10    -15.71      0.00
   -3    9   10      7.87      0.00
   -2    9   10     -0.08      0.00
   -1    9   10     -9.87      0.00
    0    9   10      1.33      0.00
    1    9   10     15.66      0.00
    2    9   10     -8.68      0.00
    3    9   10     -0.26      0.00
    4    9   10     -0.75      0.00
    5    9   10     -0.03      0.00
    6    9   10     -5.37      0.00
    7    9   10     -1.01      0.00
    8    9   10      2.47      0.00
    9    9   10      3.12      0.00
   10    9   10     -0.80      0.00
   11    9   10     -0.23      0.00
   12    9   10     -0.37      0.00
   13    9   10     -2.34      0.00
   14    9   10      1.39      0.00
  -22   10   10     -2.07      0.00
  -21   10   10      0.01      0.00
  -20   10   10     -0.25      0.00
  -19   10   10     -1.99      0.00
  -18   10   10     -0.25      0.00
  -17   10   10     -5.08      0.00
  -16   10   10      7.18      0.00
  -15   10   10     -1.96      0.00
  -14   10   10     -5.41      0.00
  -13   10   10     -7.76      0.00
  -12   10   10      9.26      0.00
  -11   10   10     -8.26      0.00
  -10   10   10      1.90      0.00
   -9   10   10     -6.24      0.00
   -8   10   10     -6.26      0.00
   -7   10   10     -8.01      0.00
   -6   10   10      0.77      0.00
   -5   10   10     -6.46      0.00
   -4   10   10      1.02      0.00
   -3   10   10    -10.54      0.00
   -2   10   10      4.03      0.00
   -1   10   10      3.88      0.00
    0   10   10     -2.67      0.00
    1   10   10     -2.02      0.00
    2   10   10      3.64      0.00
    3   10   10     -3.77      0.00
    4   10   10     -0.16      0.00
    5   10   10     -2.09      0.00
    6   10   10     -0.03      0.00
    7   10   10     -4.01      0.00
    8   10   10      4.90      0.00
    9   10   10      3.30      0.00
   10   10   10     -5.52      0.00
   11   10   10     -1.16      0.00
   12   10   10      1.78      0.00
   13   10   10      2.51      0.00
   14   10   10     -1.59      0.00
  -22   11   10     -1.38      0.00
  -21   11   10     -0.72      0.00
  -20   11   10      0.50      0.00
  -19   11   10     -3.17      0.00
  -18   11   10      0.33      0.00
  -17   11   10      6.52      0.00
  -16   11   10     -4.38      0.00
  -15   11   10     -1.41      0.00
  -14   11   10     -5.03      0.00
  -13   11   10     -0.96      0.00
  -12   11   10     -4.57      0.00
  -11   11   10      5.68      0.00
  -10   11   10     -3.77      0.00
   -9   11   10     -9.48      0.00
   -8   11   10     -9.06      0.00
   -7   11   10     -2.09      0.00
   -6   11   10     -7.04      0.00
   -5   11   10     -0.89      0.00
   -4   11   10     -4.49      0.00
   -3   11   10      1.86      0.00
   -2   11   10      1.18      0.00
   -1   11   10     -2.96      0.00
    0   11   10     -8.66      0.00
    1   11   10     -2.00      0.00
    2   11   10      5.62      0.00
    3   11   10     -2.66      0.00
    4   11   10     -3.67      0.00
    5   11   10     -0.10      0.00
    6   11   10      1.25      0.00
    7   11   10      2.73      0.00
    8   11   10     -6.02      0.00
    9   11   10     -0.99      0.00
   10   11   10      0.76      0.00
   11   11   10     -1.91      0.00
   12   11   10      4.21      0.00
   13   11   10      0.39      0.00
  -21   12   10     -0.08      0.00
  -20   12   10     -2.38      0.00
  -19   12   10     -0.07      0.00
  -18   12   10      1.81      0.00
  -17   12   10      1.19      0.00
  -16   12   10     -0.16      0.00
  -15   12   10     -4.25      0.00
  -14   12   10     -0.02      0.00
  -13   12   10     -0.69      0.00
  -12   12   10      0.98      0.00
  -11   12   10     -5.49      0.00
  -10   12   10     -6.92      0.00
   -9   12   10      1.15      0.00
   -8   12   10     -6.47      0.00
   -7   12   10    -12.37      0.00
   -6   12   10     -0.06      0.00
   -5   12   10     -1.60      0.00
   -4   12   10      4.32      0.00
   -3   12   10     -1.26      0.00
   -2   12   10    -10.07      0.00
   -1   12   10     -2.87      0.00
    0   12   10     -3.10      0.00
    1   12   10     -2.97      0.00
    2   12   10      0.04      0.00
    3   12   10      4.63      0.00
    4   12   10     -5.08      0.00
    5   12   10     -1.44      0.00
    6   12   10     -1.37      0.00
    7   12   10     -2.19      0.00
    8   12   10     -2.17      0.00
    9   12   10     -3.27      0.00
   10   12   10      2.89      0.00
   11   12   10      2.40      0.00
   12   12   10     -1.52      0.00
   13   12   10      1.63      0.00
  -21   13   10     -0.75      0.00
  -20   13   10     -1.08      0.00
  -19   13   10      0.54      0.00
  -18   13   10     -0.44      0.00
  -17   13   10     -0.67      0.00
  -16   13   10      2.08      0.00
  -15   13   10     -0.98      0.00
  -14   13   10      2.96      0.00
  -13   13   10      1.35      0.00
  -12   13   10     -6.66      0.00
  -11   13   10     -6.18      0.00
  -10   13   10      5.38      0.00
   -9   13   10     -3.52      0.00
   -8   13   10     -8.38      0.00
   -7   13   10     -6.19      0.00
   -6   13   10     -0.64      0.00
   -5   13   10      6.56      0.00
   -4   13   10     -7.86      0.00
   -3   13   10     -5.99      0.00
   -2   13   10      3.13      0.00
   -1   13   10     -5.14      0.00
    0   13   10     -0.29      0.00
    1   13   10     -3.48      0.00
    2   13   10      1.02      0.00
    3   13   10     -1.41      0.00
    4   13   10     -1.71      0.00
    5   13   10     -5.64      0.00
    6   13   10     -2.59      0.00
    7   13   10     -4.29      0.00
    8   13   10      1.66      0.00
    9   13   10      1.72      0.00
   10   13   10     -1.59      0.00
   11   13   10     -0.48      0.00
   12   13   10     -1.58      0.00
   13   13   10     -1.43      0.00
  -21   14   10     -0.16      0.00
  -20   14   10      1.60      0.00
  -19   14   10     -1.61      0.00
  -18   14   10     -0.23      0.00
  -17   14   10     -1.30      0.00
  -16   14   10      0.39      0.00
  -15   14   10      9.64      0.00
  -14   14   10     -2.67      0.00
  -13   14   10     -3.89      0.00
  -12   14   10     -2.52      0.00
  -11   14   10      4.09      0.00
  -10   14   10     -3.33      0.00
   -9   14   10     -2.80      0.00
   -8   14   10      0.06      0.00
   -7   14   10     -3.60      0.00
   -6   14   10     -3.39      0.00
   -5   14   10     -4.33      0.00
   -4   14   10     -1.08      0.00
   -3   14   10      0.86      0.00
   -2   14   10      3.62      0.00
   -1   14   10      5.49      0.00
    0   14   10     -8.61      0.00
    1   14   10     -0.11      0.00
    2   14   10     -3.31      0.00
    3   14   10     -1.42      0.00
    4   14   10     -3.25      0.00
    5   14   10     -2.65      0.00
    6   14   10     -3.87      0.00
    7   14   10     -1.73      0.00
    8   14   10     -1.37      0.00
    9   14   10      2.87      0.00
   10   14   10     -2.42      0.00
   11   14   10     -3.95      0.00
   12   14   10     -0.03      0.00
  -20   15   10     -0.41      0.00
  -19   15   10      2.22      0.00
  -18   15   10     -1.66      0.00
  -17   15   10      1.12      0.00
  -16   15   10      3.98      0.00
  -15   15   10     -3.21      0.00
  -14   15   10     -0.16      0.00
  -13   15   10     -0.12      0.00
  -12   15   10      7.09      0.00
  -11   15   10     -4.82      0.00
  -10   15   10     -0.46      0.00
   -9   15   10      2.64      0.00
   -8   15   10     -4.90      0.00
   -7   15   10     -0.96      0.00
   -6   15   10     -6.79      0.00
   -5   15   10     -0.80      0.00
   -4   15   10      5.63      0.00
   -3   15   10      2.18      0.00
   -2   15   10      7.91      0.00
   -1   15   10      2.24      0.00
    0   15   10     -1.64      0.00
    1   15   10    -10.48      0.00
    2   15   10      1.45      0.00
    3   15   10     -0.21      0.00
    4   15   10     -0.16      0.00
    5   15   10     -5.40      0.00
    6   15   10     -2.15      0.00
    7   15   10      1.34      0.00
    8   15   10     -1.27      0.00
    9   15   10     -3.14      0.00
   10   15   10      0.93      0.00
   11   15   10     -2.82      0.00
   12   15   10     -1.37      0.00
  -20   16   10      0.38      0.00
  -19   16   10      0.20      0.00
  -18   16   10      1.50      0.00
  -17   16   10      0.05      0.00
  -16   16   10     -4.50      0.00
  -15   16   10      0.52      0.00
  -14   16   10      3.25      0.00
  -13   16   10      2.09      0.00
  -12   16   10      0.98      0.00
  -11   16   10      5.88      0.00
  -10   16   10     -7.09      0.00
   -9   16   10     -3.60      0.00
   -8   16   10      7.80      0.00
   -7   16   10     -4.41      0.00
   -6   16   10     -0.84      0.00
   -5   16   10     -2.13      0.00
   -4   16   10      6.62      0.00
   -3   16   10     12.02      0.00
   -2   16   10     -3.91      0.00
   -1   16   10      2.47      0.00
    0   16   10      0.04      0.00
    1   16   10     -2.43      0.00
    2   16   10     -3.64      0.00
    3   16   10      4.64      0.00
    4   16   10     -0.54      0.00
    5   16   10      0.82      0.00
    6   16   10     -3.82      0.00
    7   16   10     -1.32      0.00
    8   16   10     -0.33      0.00
    9   16   10     -1.71      0.00
   10   16   10     -1.70      0.00
   11   16   10      1.72      0.00
   12   16   10     -0.71      0.00
  -19   17   10      0.92      0.00
  -18   17   10      0.55      0.00
  -17   17   10     -2.47      0.00
  -16   17   10      1.34      0.00
  -15   17   10     -0.85      0.00
  -14   17   10      0.14      0.00
  -13   17   10      5.40      0.00
  -12   17   10      0.12      0.00
  -11   17   10     -2.70      0.00
  -10   17   10      2.74      0.00
   -9   17   10      2.05      0.00
   -8   17   10      1.94      0.00
   -7   17   10      3.31      0.00
   -6   17   10     -4.39      0.00
   -5   17   10      5.50      0.00
   -4   17   10      3.23      0.00
   -3   17   10     -0.67      0.00
   -2   17   10      4.26      0.00
   -1   17   10     -1.45      0.00
    0   17   10      5.81      0.00
    1   17   10      1.26      0.00
    2   17   10     -3.26      0.00
    3   17   10      0.59      0.00
    4   17   10      7.04      0.00
    5   17   10     -1.08      0.00
    6   17   10     -1.77      0.00
    7   17   10     -4.22      0.00
    8   17   10      1.27      0.00
    9   17   10      0.79      0.00
   10   17   10      1.73      0.00
   11   17   10      0.02      0.00
  -19   18   10     -1.51      0.00
  -18   18   10      1.22      0.00
  -17   18   10      2.44      0.00
  -16   18   10     -3.00      0.00
  -15   18   10     -0.41      0.00
  -14   18   10      1.96      0.00
  -13   18   10     -1.37      0.00
  -12   18   10     -0.87      0.00
  -11   18   10      1.24      0.00
  -10   18   10      8.14      0.00
   -9   18   10      4.39      0.00
   -8   18   10     -1.72      0.00
   -7   18   10      3.20      0.00
   -6   18   10      5.94      0.00
   -5   18   10     -1.80      0.00
   -4   18   10     -5.67      0.00
   -3   18   10     -1.15      0.00
   -2   18   10      6.36      0.00
   -1   18   10      7.25      0.00
    0   18   10     -0.01      0.00
    1   18   10     -0.22      0.00
    2   18   10      0.70      0.00
    3   18   10      3.26      0.00
    4   18   10      1.56      0.00
    5   18   10      2.85      0.00
    6   18   10     -1.06      0.00
    7   18   10     -0.25      0.00
    8   18   10     -0.65      0.00
    9   18   10      4.60      0.00
   10   18   10     -0.20      0.00
   11   18   10      1.08      0.00
  -18   19   10      1.00      0.00
  -17   19   10      1.43      0.00
  -16   19   10      0.08      0.00
  -15   19   10     -1.21      0.00
  -14   19   10     -3.37      0.00
  -13   19   10     -3.35      0.00
  -12   19   10      5.24      0.00
  -11   19   10      6.55      0.00
  -10   19   10      1.19      0.00
   -9   19   10      4.54      0.00
   -8   19   10      4.70      0.00
   -7   19   10      1.90      0.00
   -6   19   10     -0.10      0.00
   -5   19   10     -4.80      0.00
   -4   19   10      0.58      0.00
   -3   19   10     -0.53      0.00
   -2   19   10      2.61      0.00
   -1   19   10      7.08      0.00
    0   19   10     -1.55      0.00
    1   19   10     -0.52      0.00
    2   19   10      3.75      0.00
    3   19   10      0.31      0.00
    4   19   10      2.25      0.00
    5   19   10      2.31      0.00
    6   19   10      3.14      0.00
    7   19   10     -0.14      0.00
    8   19   10      0.52      0.00
    9   19   10     -0.34      0.00
   10   19   10      3.16      0.00
  -18   20   10      0.85      0.00
  -17   20   10      1.21      0.00
  -16   20   10      0.23      0.00
  -15   20   10     -3.87      0.00
  -14   20   10     -0.08      0.00
  -13   20   10      2.86      0.00
  -12   20   10     -2.10      0.00
  -11   20   10      6.28      0.00
  -10   20   10      5.05      0.00
   -9   20   10      0.27      0.00
   -8   20   10      3.02      0.00
   -7   20   10      2.22      0.00
   -6   20   10     -0.64      0.00
   -5   20   10      0.78      0.00
   -4   20   10     -1.56      0.00
   -3   20   10      3.14      0.00
   -2   20   10     -3.03      0.00
   -1   20   10     -4.16      0.00
    0   20   10      7.56      0.00
    1   20   10      1.28      0.00
    2   20   10     -2.20      0.00
    3   20   10      1.69      0.00
    4   20   10      1.78      0.00
    5   20   10      3.55      0.00
    6   20   10      1.45      0.00
    7   20   10      0.12      0.00
    8   20   10     -1.40      0.00
    9   20   10      0.76      0.00
  -17   21   10      0.34      0.00
  -16   21   10      0.31      0.00
  -15   21   10      1.13      0.00
  -14   21   10     -0.61      0.00
  -13   21   10      0.31      0.00
  -12   21   10      3.08      0.00
  -11   21   10     -1.91      0.00
  -10   21   10      4.39      0.00
   -9   21   10      2.15      0.00
   -8   21   10     -0.10      0.00
   -7   21   10      3.58      0.00
   -6   21   10      4.45      0.00
   -5   21   10     -0.60      0.00
   -4   21   10     -1.42      0.00
   -3   21   10     -4.21      0.00
   -2   21   10     -2.65      0.00
   -1   21   10      0.78      0.00
    0   21   10      0.99      0.00
    1   21   10      3.31      0.00
    2   21   10     -2.26      0.00
    3   21   10     -1.30      0.00
    4   21   10      3.02      0.00
    5   21   10      2.37      0.00
    6   21   10     -0.55      0.00
    7   21   10     -1.06      0.00
    8   21   10      1.48      0.00
    9   21   10      1.37      0.00
  -16   22   10      2.66      0.00
  -15   22   10     -0.18      0.00
  -14   22   10     -1.16      0.00
  -13   22   10      1.24      0.00
  -12   22   10      0.88      0.00
  -11   22   10     -0.98      0.00
  -10   22   10     -1.29      0.00
   -9   22   10      5.60      0.00
   -8   22   10      3.89      0.00
   -7   22   10      0.32      0.00
   -6   22   10      0.58      0.00
   -5   22   10      4.77      0.00
   -4   22   10     -3.73      0.00
   -3   22   10     -7.24      0.00
   -2   22   10      1.36      0.00
   -1   22   10     -0.07      0.00
    0   22   10     -0.15      0.00
    1   22   10      1.68      0.00
    2   22   10     -0.39      0.00
    3   22   10     -1.67      0.00
    4   22   10      1.28      0.00
    5   22   10      0.00      0.00
    6   22   10      1.56      0.00
    7   22   10     -0.07      0.00
    8   22   10      0.21      0.00
  -16   23   10      0.20      0.00
  -15   23   10      0.73      0.00
  -14   23   10     -0.96      0.00
  -13   23   10     -2.31      0.00
  -12   23   10      1.42      0.00
  -11   23   10      3.96      0.00
  -10   23   10     -0.84      0.00
   -9   23   10     -0.01      0.00
   -8   23   10      3.22      0.00
   -7   23   10      2.35      0.00
   -6   23   10      1.63      0.00
   -5   23   10     -3.15      0.00
   -4   23   10      2.38      0.00
   -3   23   10     -0.06      0.00
   -2   23   10     -5.04      0.00
   -1   23   10      3.58      0.00
    0   23   10      0.34      0.00
    1   23   10     -3.30      0.00
    2   23   10      1.18      0.00
    3   23   10      0.74      0.00
    4   23   10     -1.79      0.00
    5   23   10      1.09      0.00
    6   23   10      0.51      0.00
    7   23   10      2.16      0.00
  -15   24   10     -1.01      0.00
  -14   24   10      0.02      0.00
  -13   24   10      1.55      0.00
  -12   24   10      0.31      0.00
  -11   24   10     -1.05      0.00
  -10   24   10      0.60      0.00
   -9   24   10     -0.63      0.00
   -8   24   10      1.82      0.00
   -7   24   10      3.11      0.00
   -6   24   10     -2.36      0.00
   -5   24   10      1.67      0.00
   -4   24   10      2.55      0.00
   -3   24   10      2.47      0.00
   -2   24   10     -0.27      0.00
   -1   24   10     -4.33      0.00
    0   24   10     -1.52      0.00
    1   24   10      1.38      0.00
    2   24   10      0.46      0.00
    3   24   10      0.18      0.00
    4   24   10      1.40      0.00
    5   24   10     -1.01      0.00
    6   24   10      1.50      0.00
  -14   25   10      0.30      0.00
  -13   25   10     -0.24      0.00
  -12   25   10     -0.86      0.00
  -11   25   10     -1.78      0.00
  -10   25   10      0.07      0.00
   -9   25   10      1.16      0.00
   -8   25   10     -1.33      0.00
   -7   25   10     -2.93      0.00
   -6   25   10      5.54      0.00
   -5   25   10      1.65      0.00
   -4   25   10      0.47      0.00
   -3   25   10      1.73      0.00
   -2   25   10     -1.85      0.00
   -1   25   10     -3.89      0.00
    0   25   10      2.98      0.00
    1   25   10      2.39      0.00
    2   25   10     -1.51      0.00
    3   25   10     -0.58      0.00
    4   25   10      0.56      0.00
    5   25   10      2.43      0.00
    6   25   10     -2.39      0.00
  -13   26   10     -2.27      0.00
  -12   26   10     -0.76      0.00
  -11   26   10      2.04      0.00
  -10   26   10     -3.18      0.00
   -9   26   10     -3.49      0.00
   -8   26   10     -1.61      0.00
   -7   26   10      4.41      0.00
   -6   26   10     -1.28      0.00
   -5   26   10      1.21      0.00
   -4   26   10      1.52      0.00
   -3   26   10     -2.25      0.00
   -2   26   10      0.58      0.00
   -1   26   10      4.11      0.00
    0   26   10     -3.40      0.00
    1   26   10      0.02      0.00
    2   26   10      2.52      0.00
    3   26   10     -2.00      0.00
    4   26   10      0.07      0.00
  -11   27   10     -1.06      0.00
  -10   27   10     -0.50      0.00
   -9   27   10     -2.65      0.00
   -8   27   10      0.99      0.00
   -7   27   10     -2.64      0.00
   -6   27   10      1.69      0.00
   -5   27   10     -1.56      0.00
   -4   27   10     -1.24      0.00
   -3   27   10      3.73      0.00
   -2   27   10      0.89      0.00
   -1   27   10     -1.86      0.00
    0   27   10      1.54      0.00
    1   27   10     -1.83      0.00
    2   27   10     -1.20      0.00
    3   27   10      1.04      0.00
  -10   28   10      0.35      0.00
   -9   28   10     -1.35      0.00
   -8   28   10     -3.89      0.00
   -7   28   10      0.95      0.00
   -6   28   10     -0.29      0.00
   -5   28   10     -0.39      0.00
   -4   28   10      0.60      0.00
   -3   28   10      0.99      0.00
   -2   28   10     -0.87      0.00
   -1   28   10      0.35      0.00
    0   28   10     -0.78      0.00
   -7   29   10     -1.85      0.00
   -6   29   10      0.38      0.00
   -5   29   10      1.92      0.00
   -4   29   10     -1.58      0.00
   -3   29   10     -1.51      0.00
   -2   29   10      1.87      0.00
  -23    0   11      1.07      0.00
  -21    0   11     -1.13      0.00
  -19    0   11     -5.81      0.00
  -17    0   11     -1.37      0.00
  -15    0   11     -2.07      0.00
  -13    0   11    -22.61      0.00
  -11    0   11      0.68      0.00
   -9    0   11     14.27      0.00
   -7    0   11     13.70      0.00
   -5    0   11     -3.44      0.00
   -3    0   11    -22.89      0.00
   -1    0   11     18.77      0.00
    1    0   11    -12.32      0.00
    3    0   11      0.61      0.00
    5    0   11      9.92      0.00
    7    0   11     -6.09      0.00
    9    0   11      4.60      0.00
   11    0   11     -1.91      0.00
   13    0   11     -0.44      0.00
  -23    1   11     -2.30      0.00
  -22    1   11      1.67      0.00
  -21    1   11     -0.12      0.00
  -20    1   11     -1.92      0.00
  -19    1   11      2.85      0.00
  -18    1   11     -3.80      0.00
  -17    1   11      0.73      0.00
  -16    1   11     -3.42      0.00
  -15    1   11     -1.88      0.00
  -14    1   11    -11.30      0.00
  -13    1   11     -7.16      0.00
  -12    1   11    -10.72      0.00
  -11    1   11      5.55      0.00
  -10    1   11     11.70      0.00
   -9    1   11      7.64      0.00
   -8    1   11      3.67      0.00
   -7    1   11      2.89      0.00
   -6    1   11      9.80      0.00
   -5    1   11     -0.24      0.00
   -4    1   11    -16.78      0.00
   -3    1   11     -1.25      0.00
   -2    1   11      1.45      0.00
   -1    1   11      2.21      0.00
    0    1   11      3.44      0.00
    1    1   11      1.44      0.00
    2    1   11    -13.00      0.00
    3    1   11     -4.13      0.00
    4    1   11     11.87      0.00
    5    1   11      5.16      0.00
    6    1   11      0.91      0.00
    7    1   11      4.48      0.00
    8    1   11     -5.11      0.00
    9    1   11     -4.56      0.00
   10    1   11      4.10      0.00
   11    1   11      2.70      0.00
   12    1   11     -0.69      0.00
   13    1   11      1.29      0.00
   14    1   11     -0.60      0.00
  -23    2   11     -1.14      0.00
  -22    2   11     -0.86      0.00
  -21    2   11      2.83      0.00
  -20    2   11      0.87      0.00
  -19    2   11     -0.94      0.00
  -18    2   11      1.91      0.00
  -17    2   11     -5.08      0.00
  -16    2   11     -2.98      0.00
  -15    2   11     -7.90      0.00
  -14    2   11      4.09      0.00
  -13    2   11     -7.32      0.00
  -12    2   11     -8.22      0.00
  -11    2   11      4.97      0.00
  -10    2   11     10.08      0.00
   -9    2   11     -3.61      0.00
   -8    2   11      3.30      0.00
   -7    2   11      2.87      0.00
   -6    2   11     15.25      0.00
   -5    2   11     -6.68      0.00
   -4    2   11     -1.69      0.00
   -3    2   11      2.78      0.00
   -2    2   11     -7.48      0.00
   -1    2   11     -4.48      0.00
    0    2   11      7.09      0.00
    1    2   11     -7.15      0.00
    2    2   11     -1.46      0.00
    3    2   11      0.63      0.00
    4    2   11     -1.84      0.00
    5    2   11      6.90      0.00
    6    2   11     10.96      0.00
    7    2   11     -6.40      0.00
    8    2   11     -3.75      0.00
    9    2   11     -0.14      0.00
   10    2   11      2.35      0.00
   11    2   11      4.76      0.00
   12    2   11      2.39      0.00
   13    2   11     -2.83      0.00
   14    2   11      0.06      0.00
  -23    3   11      0.14      0.00
  -22    3   11     -1.06      0.00
  -21    3   11      0.96      0.00
  -20    3   11      3.26      0.00
  -19    3   11     -0.22      0.00
  -18    3   11     -3.16      0.00
  -17    3   11     -3.31      0.00
  -16    3   11     -2.92      0.00
  -15    3   11      5.19      0.00
  -14    3   11     -4.37      0.00
  -13    3   11      7.75      0.00
  -12    3   11     -4.95      0.00
  -11    3   11    -13.64      0.00
  -10    3   11     -1.62      0.00
   -9    3   11     13.64      0.00
   -8    3   11     -5.39      0.00
   -7    3   11      5.69      0.00
   -6    3   11     -0.48      0.00
   -5    3   11     24.37      0.00
   -4    3   11     -6.34      0.00
   -3    3   11    -16.06      0.00
   -2    3   11      2.73      0.00
   -1    3   11     -4.96      0.00
    0    3   11     -7.17      0.00
    1    3   11     14.46      0.00
    2    3   11     -4.96      0.00
    3    3   11    -13.10      0.00
    4    3   11      1.61      0.00
    5    3   11     10.29      0.00
    6    3   11     -0.77      0.00
    7    3   11      3.06      0.00
    8    3   11     -2.62      0.00
    9    3   11     -0.26      0.00
   10    3   11      2.82      0.00
   11    3   11      3.09      0.00
   12    3   11     -0.33      0.00
   13    3   11     -0.72      0.00
   14    3   11     -0.47      0.00
  -23    4   11      1.21      0.00
  -22    4   11     -1.17      0.00
  -21    4   11     -1.42      0.00
  -20    4   11      2.12      0.00
  -19    4   11      1.08      0.00
  -18    4   11     -4.35      0.00
  -17    4   11     -1.29      0.00
  -16    4   11      2.43      0.00
  -15    4   11      4.84      0.00
  -14    4   11      8.97      0.00
  -13    4   11     -8.38      0.00
  -12    4   11     -3.79      0.00
  -11    4   11    -10.62      0.00
  -10    4   11     -2.23      0.00
   -9    4   11      0.52      0.00
   -8    4   11     13.99      0.00
   -7    4   11     -5.72      0.00
   -6    4   11     10.89      0.00
   -5    4   11      0.13      0.00
   -4    4   11      5.68      0.00
   -3    4   11     -9.74      0.00
   -2    4   11    -12.87      0.00
   -1    4   11      5.04      0.00
    0    4   11      8.98      0.00
    1    4   11     -8.23      0.00
    2    4   11     -6.47      0.00
    3    4   11     -1.81      0.00
    4    4   11     -1.38      0.00
    5    4   11     -3.36      0.00
    6    4   11     11.13      0.00
    7    4   11      0.49      0.00
    8    4   11     -1.86      0.00
    9    4   11      1.62      0.00
   10    4   11      0.35      0.00
   11    4   11     -2.13      0.00
   12    4   11      0.92      0.00
   13    4   11      1.34      0.00
   14    4   11     -1.52      0.00
  -23    5   11     -0.53      0.00
  -22    5   11     -0.21      0.00
  -21    5   11     -0.36      0.00
  -20    5   11     -0.65      0.00
  -19    5   11     -0.53      0.00
  -18    5   11      2.10      0.00
  -17    5   11     -0.42      0.00
  -16    5   11      2.39      0.00
  -15    5   11      4.08      0.00
  -14    5   11      0.74      0.00
  -13    5   11     -1.31      0.00
  -12    5   11     -7.52      0.00
  -11    5   11     -0.10      0.00
  -10    5   11     -7.53      0.00
   -9    5   11      8.36      0.00
   -8    5   11     -1.10      0.00
   -7    5   11      7.64      0.00
   -6    5   11     -8.15      0.00
   -5    5   11     -0.27      0.00
   -4    5   11      2.80      0.00
   -3    5   11     -2.22      0.00
   -2    5   11     -0.94      0.00
   -1    5   11      5.64      0.00
    0    5   11     -7.27      0.00
    1    5   11     -6.89      0.00
    2    5   11      3.98      0.00
    3    5   11     -4.23      0.00
    4    5   11     -6.69      0.00
    5    5   11      3.98      0.00
    6    5   11     -0.67      0.00
    7    5   11      8.27      0.00
    8    5   11      1.23      0.00
    9    5   11     -7.27      0.00
   10    5   11     -2.55      0.00
   11    5   11      1.04      0.00
   12    5   11      1.77      0.00
   13    5   11     -0.30      0.00
   14    5   11      0.78      0.00
  -23    6   11     -1.37      0.00
  -22    6   11      0.08      0.00
  -21    6   11      0.62      0.00
  -20    6   11     -1.23      0.00
  -19    6   11     -0.75      0.00
  -18    6   11     -0.01      0.00
  -17    6   11      5.69      0.00
  -16    6   11     -2.82      0.00
  -15    6   11     -5.00      0.00
  -14    6   11      3.25      0.00
  -13    6   11      7.86      0.00
  -12    6   11     -2.97      0.00
  -11    6   11     -5.90      0.00
  -10    6   11      2.03      0.00
   -9    6   11     -5.16      0.00
   -8    6   11      4.35      0.00
   -7    6   11     -9.81      0.00
   -6    6   11      0.13      0.00
   -5    6   11      0.04      0.00
   -4    6   11     -4.49      0.00
   -3    6   11     13.13      0.00
   -2    6   11      1.68      0.00
   -1    6   11    -12.94      0.00
    0    6   11      0.21      0.00
    1    6   11      3.66      0.00
    2    6   11     -6.19      0.00
    3    6   11      3.67      0.00
    4    6   11     -1.71      0.00
    5    6   11     -7.35      0.00
    6    6   11      4.84      0.00
    7    6   11      3.50      0.00
    8    6   11     -2.80      0.00
    9    6   11     -4.73      0.00
   10    6   11     -2.15      0.00
   11    6   11      1.94      0.00
   12    6   11      0.34      0.00
   13    6   11      1.47      0.00
  -22    7   11     -1.24      0.00
  -21    7   11     -2.27      0.00
  -20    7   11      0.46      0.00
  -19    7   11      0.98      0.00
  -18    7   11      1.02      0.00
  -17    7   11     -5.48      0.00
  -16    7   11      0.74      0.00
  -15    7   11     -0.98      0.00
  -14    7   11      2.01      0.00
  -13    7   11      3.76      0.00
  -12    7   11      8.89      0.00
  -11    7   11    -10.34      0.00
  -10    7   11     -7.41      0.00
   -9    7   11      2.22      0.00
   -8    7   11     -3.38      0.00
   -7    7   11     -5.51      0.00
   -6    7   11     -7.17      0.00
   -5    7   11      4.93      0.00
   -4    7   11     10.01      0.00
   -3    7   11    -10.36      0.00
   -2    7   11     -0.13      0.00
   -1    7   11      0.36      0.00
    0    7   11     -0.20      0.00
    1    7   11      0.00      0.00
    2    7   11      8.74      0.00
    3    7   11     -3.65      0.00
    4    7   11     -4.99      0.00
    5    7   11     -1.87      0.00
    6    7   11     -2.08      0.00
    7    7   11     -2.66      0.00
    8    7   11      2.88      0.00
    9    7   11     -0.21      0.00
   10    7   11     -2.19      0.00
   11    7   11     -1.03      0.00
   12    7   11      1.97      0.00
   13    7   11     -1.89      0.00
  -22    8   11     -0.77      0.00
  -21    8   11     -1.66      0.00
  -20    8   11     -0.91      0.00
  -19    8   11      2.39      0.00
  -18    8   11     -3.23      0.00
  -17    8   11     -3.20      0.00
  -16    8   11     -3.75      0.00
  -15    8   11      7.37      0.00
  -14    8   11     -0.80      0.00
  -13    8   11      2.24      0.00
  -12    8   11     -4.41      0.00
  -11    8   11      7.78      0.00
  -10    8   11    -10.27      0.00
   -9    8   11     -8.44      0.00
   -8    8   11     -2.30      0.00
   -7    8   11      4.06      0.00
   -6    8   11     -6.04      0.00
   -5    8   11     -2.59      0.00
   -4    8   11      0.34      0.00
   -3    8   11     -0.27      0.00
   -2    8   11     -8.53      0.00
   -1    8   11      6.62      0.00
    0    8   11      2.37      0.00
    1    8   11     10.08      0.00
    2    8   11     -5.81      0.00
    3    8   11     -1.77      0.00
    4    8   11     -0.89      0.00
    5    8   11     -5.48      0.00
    6    8   11     -3.32      0.00
    7    8   11      4.96      0.00
    8    8   11     -2.16      0.00
    9    8   11      1.82      0.00
   10    8   11      0.15      0.00
   11    8   11     -2.54      0.00
   12    8   11     -2.91      0.00
   13    8   11      0.77      0.00
  -22    9   11      1.19      0.00
  -21    9   11     -2.00      0.00
  -20    9   11      0.93      0.00
  -19    9   11     -3.46      0.00
  -18    9   11     -0.38      0.00
  -17    9   11     -0.59      0.00
  -16    9   11      2.33      0.00
  -15    9   11     -4.07      0.00
  -14    9   11      3.92      0.00
  -13    9   11     -8.93      0.00
  -12    9   11      8.99      0.00
  -11    9   11     -4.08      0.00
  -10    9   11     -2.23      0.00
   -9    9   11    -10.44      0.00
   -8    9   11      0.40      0.00
   -7    9   11     -2.58      0.00
   -6    9   11      1.29      0.00
   -5    9   11    -11.90      0.00
   -4    9   11     -1.16      0.00
   -3    9   11      1.50      0.00
   -2    9   11     -2.25      0.00
   -1    9   11      0.24      0.00
    0    9   11     15.01      0.00
    1    9   11    -10.58      0.00
    2    9   11      0.10      0.00
    3    9   11     -0.15      0.00
    4    9   11     -0.14      0.00
    5    9   11     -2.86      0.00
    6    9   11     -2.08      0.00
    7    9   11      0.69      0.00
    8    9   11      4.26      0.00
    9    9   11     -4.60      0.00
   10    9   11     -1.29      0.00
   11    9   11     -1.03      0.00
   12    9   11     -0.98      0.00
   13    9   11      0.77      0.00
  -22   10   11     -0.30      0.00
  -21   10   11      1.59      0.00
  -20   10   11     -3.83      0.00
  -19   10   11      0.72      0.00
  -18   10   11     -1.50      0.00
  -17   10   11      5.40      0.00
  -16   10   11     -1.85      0.00
  -15   10   11     -4.87      0.00
  -14   10   11     -8.43      0.00
  -13   10   11     11.56      0.00
  -12   10   11     -7.12      0.00
  -11   10   11      5.57      0.00
  -10   10   11     -5.42      0.00
   -9   10   11     -6.85      0.00
   -8   10   11     -9.61      0.00
   -7   10   11      0.08      0.00
   -6   10   11     -3.34      0.00
   -5   10   11      1.34      0.00
   -4   10   11     -9.29      0.00
   -3   10   11      2.69      0.00
   -2   10   11      4.27      0.00
   -1   10   11     -2.73      0.00
    0   10   11     -7.07      0.00
    1   10   11      8.07      0.00
    2   10   11     -5.93      0.00
    3   10   11      0.44      0.00
    4   10   11     -0.25      0.00
    5   10   11      0.39      0.00
    6   10   11     -3.64      0.00
    7   10   11      1.11      0.00
    8   10   11      0.63      0.00
    9   10   11     -3.61      0.00
   10   10   11     -3.35      0.00
   11   10   11      2.24      0.00
   12   10   11      1.37      0.00
   13   10   11     -1.83      0.00
  -22   11   11      0.21      0.00
  -21   11   11     -0.20      0.00
  -20   11   11     -1.04      0.00
  -19   11   11     -1.14      0.00
  -18   11   11      6.12      0.00
  -17   11   11     -4.49      0.00
  -16   11   11     -1.34      0.00
  -15   11   11     -2.47      0.00
  -14   11   11      3.15      0.00
  -13   11   11     -5.69      0.00
  -12   11   11      9.60      0.00
  -11   11   11     -6.24      0.00
  -10   11   11     -5.13      0.00
   -9   11   11     -7.78      0.00
   -8   11   11     -3.04      0.00
   -7   11   11     -4.23      0.00
   -6   11   11     -1.13      0.00
   -5   11   11     -0.22      0.00
   -4   11   11      4.36      0.00
   -3   11   11     -5.71      0.00
   -2   11   11     -3.30      0.00
   -1   11   11     -6.35      0.00
    0   11   11      0.49      0.00
    1   11   11      1.92      0.00
    2   11   11      1.53      0.00
    3   11   11     -5.44      0.00
    4   11   11      0.59      0.00
    5   11   11      0.72      0.00
    6   11   11      1.52      0.00
    7   11   11     -8.26      0.00
    8   11   11     -2.14      0.00
    9   11   11      2.93      0.00
   10   11   11     -1.35      0.00
   11   11   11      0.55      0.00
   12   11   11     -1.15      0.00
  -21   12   11     -1.77      0.00
  -20   12   11      0.09      0.00
  -19   12   11      1.27      0.00
  -18   12   11     -1.64      0.00
  -17   12   11      2.14      0.00
  -16   12   11     -3.19      0.00
  -15   12   11      3.91      0.00
  -14   12   11      0.39      0.00
  -13   12   11      3.28      0.00
  -12   12   11     -8.16      0.00
  -11   12   11     -0.42      0.00
  -10   12   11      2.52      0.00
   -9   12   11     -3.01      0.00
   -8   12   11    -10.79      0.00
   -7   12   11     -1.71      0.00
   -6   12   11      3.46      0.00
   -5   12   11      1.97      0.00
   -4   12   11     -3.55      0.00
   -3   12   11     -5.01      0.00
   -2   12   11     -4.79      0.00
   -1   12   11      2.69      0.00
    0   12   11     -2.11      0.00
    1   12   11      0.14      0.00
    2   12   11      2.58      0.00
    3   12   11     -3.73      0.00
    4   12   11     -2.68      0.00
    5   12   11     -1.46      0.00
    6   12   11     -5.07      0.00
    7   12   11      0.76      0.00
    8   12   11     -2.06      0.00
    9   12   11      1.41      0.00
   10   12   11      1.72      0.00
   11   12   11     -5.04      0.00
   12   12   11     -1.36      0.00
  -21   13   11      0.66      0.00
  -20   13   11     -0.60      0.00
  -19   13   11     -0.22      0.00
  -18   13   11     -0.50      0.00
  -17   13   11      0.43      0.00
  -16   13   11      4.13      0.00
  -15   13   11      1.02      0.00
  -14   13   11      3.74      0.00
  -13   13   11     -6.44      0.00
  -12   13   11     -1.35      0.00
  -11   13   11      6.70      0.00
  -10   13   11     -0.61      0.00
   -9   13   11     -4.24      0.00
   -8   13   11     -3.50      0.00
   -7   13   11     -1.82      0.00
   -6   13   11      2.12      0.00
   -5   13   11     -5.12      0.00
   -4   13   11     -1.55      0.00
   -3   13   11      4.63      0.00
   -2   13   11      0.49      0.00
   -1   13   11     -2.51      0.00
    0   13   11      0.41      0.00
    1   13   11     -0.01      0.00
    2   13   11     -1.97      0.00
    3   13   11     -0.42      0.00
    4   13   11     -5.83      0.00
    5   13   11     -2.20      0.00
    6   13   11     -1.71      0.00
    7   13   11      0.19      0.00
    8   13   11      2.93      0.00
    9   13   11     -3.61      0.00
   10   13   11     -3.43      0.00
   11   13   11     -1.53      0.00
   12   13   11     -2.60      0.00
  -21   14   11      1.31      0.00
  -20   14   11      0.67      0.00
  -19   14   11     -1.02      0.00
  -18   14   11     -0.26      0.00
  -17   14   11      1.12      0.00
  -16   14   11      5.49      0.00
  -15   14   11      0.01      0.00
  -14   14   11     -5.13      0.00
  -13   14   11      3.80      0.00
  -12   14   11      4.47      0.00
  -11   14   11     -2.32      0.00
  -10   14   11      3.44      0.00
   -9   14   11      1.39      0.00
   -8   14   11     -1.69      0.00
   -7   14   11     -6.09      0.00
   -6   14   11     -4.95      0.00
   -5   14   11      6.08      0.00
   -4   14   11      2.42      0.00
   -3   14   11      5.46      0.00
   -2   14   11      5.28      0.00
   -1   14   11     -6.10      0.00
    0   14   11     -1.44      0.00
    1   14   11      0.26      0.00
    2   14   11      0.11      0.00
    3   14   11     -1.96      0.00
    4   14   11     -0.11      0.00
    5   14   11     -3.59      0.00
    6   14   11     -0.31      0.00
    7   14   11     -1.37      0.00
    8   14   11      0.29      0.00
    9   14   11     -1.38      0.00
   10   14   11     -3.94      0.00
   11   14   11      0.23      0.00
  -20   15   11      2.29      0.00
  -19   15   11      0.06      0.00
  -18   15   11      0.65      0.00
  -17   15   11      1.30      0.00
  -16   15   11     -3.77      0.00
  -15   15   11      0.86      0.00
  -14   15   11      3.79      0.00
  -13   15   11      4.55      0.00
  -12   15   11     -1.22      0.00
  -11   15   11      1.95      0.00
  -10   15   11      2.75      0.00
   -9   15   11      0.98      0.00
   -8   15   11     -1.03      0.00
   -7   15   11     -2.25      0.00
   -6   15   11      0.51      0.00
   -5   15   11      3.03      0.00
   -4   15   11      8.62      0.00
   -3   15   11      3.77      0.00
   -2   15   11      0.48      0.00
   -1   15   11      0.22      0.00
    0   15   11     -7.52      0.00
    1   15   11      4.48      0.00
    2   15   11      3.57      0.00
    3   15   11      1.74      0.00
    4   15   11     -3.42      0.00
    5   15   11     -1.15      0.00
    6   15   11      1.39      0.00
    7   15   11     -0.16      0.00
    8   15   11     -4.22      0.00
    9   15   11      0.76      0.00
   10   15   11      0.10      0.00
   11   15   11     -1.96      0.00
  -20   16   11      0.41      0.00
  -19   16   11      2.10      0.00
  -18   16   11     -0.33      0.00
  -17   16   11     -2.78      0.00
  -16   16   11      0.19      0.00
  -15   16   11      3.11      0.00
  -14   16   11      2.12      0.00
  -13   16   11     -0.53      0.00
  -12   16   11      5.38      0.00
  -11   16   11     -3.03      0.00
  -10   16   11     -0.17      0.00
   -9   16   11     10.94      0.00
   -8   16   11      1.58      0.00
   -7   16   11     -0.87      0.00
   -6   16   11     -1.21      0.00
   -5   16   11      6.56      0.00
   -4   16   11      5.97      0.00
   -3   16   11     -2.69      0.00
   -2   16   11      0.14      0.00
   -1   16   11      1.87      0.00
    0   16   11      3.72      0.00
    1   16   11     -2.75      0.00
    2   16   11      7.08      0.00
    3   16   11      0.84      0.00
    4   16   11      2.38      0.00
    5   16   11     -0.60      0.00
    6   16   11     -2.40      0.00
    7   16   11     -0.02      0.00
    8   16   11      0.57      0.00
    9   16   11     -1.18      0.00
   10   16   11      2.03      0.00
   11   16   11      1.49      0.00
  -19   17   11      1.20      0.00
  -18   17   11      0.37      0.00
  -17   17   11      1.23      0.00
  -16   17   11     -0.25      0.00
  -15   17   11     -2.80      0.00
  -14   17   11      3.22      0.00
  -13   17   11      0.34      0.00
  -12   17   11     -4.39      0.00
  -11   17   11      7.18      0.00
  -10   17   11      7.66      0.00
   -9   17   11      1.31      0.00
   -8   17   11      7.18      0.00
   -7   17   11     -1.03      0.00
   -6   17   11      4.56      0.00
   -5   17   11     -2.21      0.00
   -4   17   11     -2.87      0.00
   -3   17   11      5.17      0.00
   -2   17   11     -0.06      0.00
   -1   17   11      5.22      0.00
    0   17   11      1.18      0.00
    1   17   11      0.47      0.00
    2   17   11     -0.27      0.00
    3   17   11     10.14      0.00
    4   17   11      0.65      0.00
    5   17   11     -1.11      0.00
    6   17   11     -1.80      0.00
    7   17   11      1.32      0.00
    8   17   11      3.04      0.00
    9   17   11      2.40      0.00
   10   17   11     -0.30      0.00
  -19   18   11      1.34      0.00
  -18   18   11      3.35      0.00
  -17   18   11     -1.36      0.00
  -16   18   11     -2.02      0.00
  -15   18   11      1.10      0.00
  -14   18   11     -4.53      0.00
  -13   18   11     -0.52      0.00
  -12   18   11      4.21      0.00
  -11   18   11      5.72      0.00
  -10   18   11      4.85      0.00
   -9   18   11      3.10      0.00
   -8   18   11      3.11      0.00
   -7   18   11      8.88      0.00
   -6   18   11     -5.85      0.00
   -5   18   11     -3.83      0.00
   -4   18   11     -0.37      0.00
   -3   18   11      3.64      0.00
   -2   18   11      8.29      0.00
   -1   18   11     -3.77      0.00
    0   18   11     -0.44      0.00
    1   18   11      1.90      0.00
    2   18   11      5.68      0.00
    3   18   11      0.38      0.00
    4   18   11      4.81      0.00
    5   18   11      1.72      0.00
    6   18   11      0.58      0.00
    7   18   11     -0.13      0.00
    8   18   11      4.04      0.00
    9   18   11      0.75      0.00
   10   18   11      0.96      0.00
  -18   19   11      1.47      0.00
  -17   19   11      0.95      0.00
  -16   19   11     -1.53      0.00
  -15   19   11     -4.05      0.00
  -14   19   11     -0.51      0.00
  -13   19   11      3.33      0.00
  -12   19   11      3.67      0.00
  -11   19   11     -0.71      0.00
  -10   19   11      3.62      0.00
   -9   19   11      5.77      0.00
   -8   19   11      4.18      0.00
   -7   19   11     -1.22      0.00
   -6   19   11      1.08      0.00
   -5   19   11      0.07      0.00
   -4   19   11      0.10      0.00
   -3   19   11      0.60      0.00
   -2   19   11      1.14      0.00
   -1   19   11      0.71      0.00
    0   19   11     -3.01      0.00
    1   19   11      3.79      0.00
    2   19   11      0.14      0.00
    3   19   11      3.50      0.00
    4   19   11      3.42      0.00
    5   19   11      3.54      0.00
    6   19   11     -0.09      0.00
    7   19   11      0.21      0.00
    8   19   11     -0.08      0.00
    9   19   11      4.27      0.00
  -18   20   11      0.60      0.00
  -17   20   11      1.28      0.00
  -16   20   11     -1.70      0.00
  -15   20   11      0.24      0.00
  -14   20   11      2.68      0.00
  -13   20   11     -2.79      0.00
  -12   20   11      1.64      0.00
  -11   20   11      3.28      0.00
  -10   20   11     -1.67      0.00
   -9   20   11      2.87      0.00
   -8   20   11      4.44      0.00
   -7   20   11      3.80      0.00
   -6   20   11      0.87      0.00
   -5   20   11     -0.17      0.00
   -4   20   11      1.31      0.00
   -3   20   11     -4.80      0.00
   -2   20   11     -4.45      0.00
   -1   20   11      4.92      0.00
    0   20   11      2.27      0.00
    1   20   11     -5.57      0.00
    2   20   11      2.93      0.00
    3   20   11      2.23      0.00
    4   20   11      2.27      0.00
    5   20   11      1.39      0.00
    6   20   11      0.97      0.00
    7   20   11     -0.38      0.00
    8   20   11      2.12      0.00
    9   20   11      1.66      0.00
  -17   21   11      1.11      0.00
  -16   21   11      2.24      0.00
  -15   21   11     -0.44      0.00
  -14   21   11     -1.40      0.00
  -13   21   11      3.86      0.00
  -12   21   11     -3.88      0.00
  -11   21   11     -0.08      0.00
  -10   21   11      3.22      0.00
   -9   21   11      0.58      0.00
   -8   21   11      3.67      0.00
   -7   21   11      3.80      0.00
   -6   21   11      1.84      0.00
   -5   21   11     -1.15      0.00
   -4   21   11     -5.49      0.00
   -3   21   11     -0.56      0.00
   -2   21   11      1.44      0.00
   -1   21   11     -1.38      0.00
    0   21   11      0.82      0.00
    1   21   11     -0.81      0.00
    2   21   11     -3.72      0.00
    3   21   11      3.21      0.00
    4   21   11      2.78      0.00
    5   21   11      0.48      0.00
    6   21   11     -0.05      0.00
    7   21   11      2.04      0.00
    8   21   11      1.36      0.00
  -16   22   11      0.46      0.00
  -15   22   11     -1.04      0.00
  -14   22   11      1.59      0.00
  -13   22   11     -1.22      0.00
  -12   22   11      1.10      0.00
  -11   22   11     -1.37      0.00
  -10   22   11      2.41      0.00
   -9   22   11      2.33      0.00
   -8   22   11     -0.88      0.00
   -7   22   11      1.17      0.00
   -6   22   11      3.38      0.00
   -5   22   11     -1.44      0.00
   -4   22   11     -3.08      0.00
   -3   22   11      0.70      0.00
   -2   22   11      0.89      0.00
   -1   22   11     -0.54      0.00
    0   22   11     -0.56      0.00
    1   22   11     -1.71      0.00
    2   22   11     -0.46      0.00
    3   22   11      0.76      0.00
    4   22   11      0.51      0.00
    5   22   11      2.24      0.00
    6   22   11      1.76      0.00
    7   22   11     -0.52      0.00
  -15   23   11      0.15      0.00
  -14   23   11     -2.62      0.00
  -13   23   11      3.20      0.00
  -12   23   11      2.92      0.00
  -11   23   11     -2.42      0.00
  -10   23   11     -2.54      0.00
   -9   23   11      0.99      0.00
   -8   23   11      1.04      0.00
   -7   23   11      0.21      0.00
   -6   23   11     -1.91      0.00
   -5   23   11      4.46      0.00
   -4   23   11      2.84      0.00
   -3   23   11     -3.69      0.00
   -2   23   11      2.08      0.00
   -1   23   11      0.35      0.00
    0   23   11     -4.97      0.00
    1   23   11      1.48      0.00
    2   23   11      1.25      0.00
    3   23   11     -1.18      0.00
    4   23   11      1.51      0.00
    5   23   11      1.42      0.00
    6   23   11      1.95      0.00
  -15   24   11     -0.16      0.00
  -14   24   11      2.52      0.00
  -13   24   11     -1.63      0.00
  -12   24   11     -2.85      0.00
  -11   24   11      1.46      0.00
  -10   24   11     -1.29      0.00
   -9   24   11     -1.76      0.00
   -8   24   11      0.16      0.00
   -7   24   11     -1.13      0.00
   -6   24   11      2.30      0.00
   -5   24   11      1.82      0.00
   -4   24   11      3.53      0.00
   -3   24   11      0.58      0.00
   -2   24   11     -5.45      0.00
   -1   24   11     -0.44      0.00
    0   24   11      4.02      0.00
    1   24   11     -1.53      0.00
    2   24   11      0.04      0.00
    3   24   11      2.18      0.00
    4   24   11     -0.36      0.00
    5   24   11      0.63      0.00
  -13   25   11     -1.03      0.00
  -12   25   11      0.71      0.00
  -11   25   11     -1.81      0.00
  -10   25   11     -0.62      0.00
   -9   25   11     -2.10      0.00
   -8   25   11     -3.44      0.00
   -7   25   11      3.51      0.00
   -6   25   11      0.57      0.00
   -5   25   11     -0.05      0.00
   -4   25   11      0.64      0.00
   -3   25   11     -0.05      0.00
   -2   25   11     -0.26      0.00
   -1   25   11      3.03      0.00
    0   25   11      0.48      0.00
    1   25   11     -0.96      0.00
    2   25   11     -1.55      0.00
    3   25   11     -0.05      0.00
    4   25   11      2.72      0.00
  -12   26   11      0.21      0.00
  -11   26   11     -1.88      0.00
  -10   26   11     -2.86      0.00
   -9   26   11     -1.59      0.00
   -8   26   11      2.24      0.00
   -7   26   11     -2.80      0.00
   -6   26   11      0.36      0.00
   -5   26   11      0.11      0.00
   -4   26   11     -0.49      0.00
   -3   26   11      1.80      0.00
   -2   26   11      4.21      0.00
   -1   26   11     -3.52      0.00
    0   26   11     -0.88      0.00
    1   26   11      1.10      0.00
    2   26   11     -1.67      0.00
    3   26   11     -0.03      0.00
  -11   27   11      0.61      0.00
  -10   27   11     -2.86      0.00
   -9   27   11      0.68      0.00
   -8   27   11     -2.60      0.00
   -7   27   11      0.98      0.00
   -6   27   11     -1.92      0.00
   -5   27   11     -0.92      0.00
   -4   27   11      2.97      0.00
   -3   27   11      0.70      0.00
   -2   27   11     -2.87      0.00
   -1   27   11      2.64      0.00
    0   27   11     -2.46      0.00
    1   27   11     -2.57      0.00
    2   27   11      1.29      0.00
   -8   28   11      1.78      0.00
   -7   28   11     -0.95      0.00
   -6   28   11     -0.09      0.00
   -5   28   11     -0.81      0.00
   -4   28   11     -0.70      0.00
   -3   28   11      0.19      0.00
   -2   28   11     -0.05      0.00
   -1   28   11     -1.98      0.00
  -22    0   12     -2.41      0.00
  -20    0   12     -3.42      0.00
  -18    0   12     -0.06      0.00
  -16    0   12     -3.91      0.00
  -14    0   12    -20.82      0.00
  -12    0   12     -3.30      0.00
  -10    0   12     13.53      0.00
   -8    0   12     10.32      0.00
   -6    0   12      3.97      0.00
   -4    0   12    -10.66      0.00
   -2    0   12     10.77      0.00
    0    0   12    -13.94      0.00
    2    0   12     -4.90      0.00
    4    0   12     14.07      0.00
    6    0   12     -3.09      0.00
    8    0   12      1.98      0.00
   10    0   12      0.03      0.00
   12    0   12      0.57      0.00
  -23    1   12      1.02      0.00
  -22    1   12      1.74      0.00
  -21    1   12     -3.05      0.00
  -20    1   12      2.87      0.00
  -19    1   12     -2.66      0.00
  -18    1   12     -0.65      0.00
  -17    1   12     -2.43      0.00
  -16    1   12     -0.50      0.00
  -15    1   12     -7.71      0.00
  -14    1   12      2.32      0.00
  -13    1   12    -13.89      0.00
  -12    1   12      5.21      0.00
  -11    1   12      5.90      0.00
  -10    1   12     -2.67      0.00
   -9    1   12      3.77      0.00
   -8    1   12     -3.60      0.00
   -7    1   12     14.16      0.00
   -6    1   12      1.89      0.00
   -5    1   12     -6.70      0.00
   -4    1   12      5.86      0.00
   -3    1   12      1.01      0.00
   -2    1   12     -1.25      0.00
   -1    1   12     -2.07      0.00
    0    1   12      0.73      0.00
    1    1   12    -13.14      0.00
    2    1   12     -2.45      0.00
    3    1   12      8.54      0.00
    4    1   12      1.66      0.00
    5    1   12      4.77      0.00
    6    1   12      2.60      0.00
    7    1   12     -5.08      0.00
    8    1   12     -4.93      0.00
    9    1   12      4.90      0.00
   10    1   12      4.45      0.00
   11    1   12      0.06      0.00
   12    1   12      0.36      0.00
   13    1   12     -0.83      0.00
  -23    2   12     -0.21      0.00
  -22    2   12      0.68      0.00
  -21    2   12      1.86      0.00
  -20    2   12     -2.91      0.00
  -19    2   12      1.37      0.00
  -18    2   12     -3.71      0.00
  -17    2   12      0.08      0.00
  -16    2   12     -2.95      0.00
  -15    2   12      8.50      0.00
  -14    2   12     -3.32      0.00
  -13    2   12     -0.65      0.00
  -12    2   12     -6.68      0.00
  -11    2   12      1.06      0.00
  -10    2   12     -2.93      0.00
   -9    2   12     -3.71      0.00
   -8    2   12      5.66      0.00
   -7    2   12      6.61      0.00
   -6    2   12      3.90      0.00
   -5    2   12      2.61      0.00
   -4    2   12      0.77      0.00
   -3    2   12      0.27      0.00
   -2    2   12     -7.53      0.00
   -1    2   12      3.63      0.00
    0    2   12     -3.90      0.00
    1    2   12      0.67      0.00
    2    2   12     -4.67      0.00
    3    2   12     -7.03      0.00
    4    2   12      7.12      0.00
    5    2   12      7.70      0.00
    6    2   12     -4.86      0.00
    7    2   12     -2.75      0.00
    8    2   12      1.68      0.00
    9    2   12      1.59      0.00
   10    2   12      4.38      0.00
   11    2   12      2.43      0.00
   12    2   12     -4.14      0.00
   13    2   12     -0.30      0.00
  -23    3   12     -1.22      0.00
  -22    3   12      0.39      0.00
  -21    3   12      0.90      0.00
  -20    3   12      0.11      0.00
  -19    3   12     -3.69      0.00
  -18    3   12     -0.36      0.00
  -17    3   12     -0.43      0.00
  -16    3   12     10.03      0.00
  -15    3   12     -1.94      0.00
  -14    3   12      9.30      0.00
  -13    3   12     -4.83      0.00
  -12    3   12    -12.08      0.00
  -11    3   12     -5.60      0.00
  -10    3   12      8.83      0.00
   -9    3   12     -2.25      0.00
   -8    3   12     -1.17      0.00
   -7    3   12     -0.53      0.00
   -6    3   12     16.27      0.00
   -5    3   12     -3.02      0.00
   -4    3   12     -9.97      0.00
   -3    3   12      2.69      0.00
   -2    3   12      5.47      0.00
   -1    3   12     -7.27      0.00
    0    3   12     10.16      0.00
    1    3   12     -6.39      0.00
    2    3   12    -13.18      0.00
    3    3   12      0.56      0.00
    4    3   12      3.50      0.00
    5    3   12      0.05      0.00
    6    3   12      5.05      0.00
    7    3   12     -1.56      0.00
    8    3   12     -0.79      0.00
    9    3   12      1.86      0.00
   10    3   12      0.80      0.00
   11    3   12     -1.38      0.00
   12    3   12      0.86      0.00
   13    3   12     -0.62      0.00
  -23    4   12      0.23      0.00
  -22    4   12     -2.49      0.00
  -21    4   12      0.98      0.00
  -20    4   12      0.15      0.00
  -19    4   12     -2.31      0.00
  -18    4   12     -0.10      0.00
  -17    4   12      5.39      0.00
  -16    4   12      1.75      0.00
  -15    4   12     10.58      0.00
  -14    4   12     -8.27      0.00
  -13    4   12      1.97      0.00
  -12    4   12     -3.00      0.00
  -11    4   12     -3.68      0.00
  -10    4   12     -1.26      0.00
   -9    4   12     10.27      0.00
   -8    4   12     -7.83      0.00
   -7    4   12      1.76      0.00
   -6    4   12     -7.25      0.00
   -5    4   12      7.64      0.00
   -4    4   12     -3.33      0.00
   -3    4   12     -3.23      0.00
   -2    4   12      7.26      0.00
   -1    4   12      8.73      0.00
    0    4   12    -13.24      0.00
    1    4   12     -1.45      0.00
    2    4   12      0.48      0.00
    3    4   12     -6.53      0.00
    4    4   12     -3.52      0.00
    5    4   12      9.29      0.00
    6    4   12      1.14      0.00
    7    4   12     -1.44      0.00
    8    4   12     -0.77      0.00
    9    4   12     -1.33      0.00
   10    4   12     -3.23      0.00
   11    4   12      1.98      0.00
   12    4   12      1.53      0.00
   13    4   12     -1.34      0.00
  -23    5   12     -0.02      0.00
  -22    5   12      0.75      0.00
  -21    5   12     -2.14      0.00
  -20    5   12     -0.41      0.00
  -19    5   12      1.54      0.00
  -18    5   12      1.08      0.00
  -17    5   12     -0.62      0.00
  -16    5   12      3.30      0.00
  -15    5   12     -1.51      0.00
  -14    5   12      8.23      0.00
  -13    5   12     -2.62      0.00
  -12    5   12      4.89      0.00
  -11    5   12     -4.02      0.00
  -10    5   12      3.23      0.00
   -9    5   12     -5.58      0.00
   -8    5   12      2.90      0.00
   -7    5   12    -13.22      0.00
   -6    5   12     -0.42      0.00
   -5    5   12     -1.12      0.00
   -4    5   12      7.13      0.00
   -3    5   12      1.31      0.00
   -2    5   12      3.88      0.00
   -1    5   12     -5.74      0.00
    0    5   12     -0.53      0.00
    1    5   12      2.67      0.00
    2    5   12     -0.54      0.00
    3    5   12     -4.70      0.00
    4    5   12      0.13      0.00
    5    5   12     -3.51      0.00
    6    5   12      7.16      0.00
    7    5   12      0.84      0.00
    8    5   12     -7.99      0.00
    9    5   12     -3.46      0.00
   10    5   12      2.22      0.00
   11    5   12      1.19      0.00
   12    5   12     -0.14      0.00
   13    5   12      1.04      0.00
  -23    6   12     -0.06      0.00
  -22    6   12     -0.03      0.00
  -21    6   12     -0.81      0.00
  -20    6   12     -1.38      0.00
  -19    6   12      0.13      0.00
  -18    6   12      1.33      0.00
  -17    6   12     -0.90      0.00
  -16    6   12     -5.08      0.00
  -15    6   12      6.91      0.00
  -14    6   12      7.44      0.00
  -13    6   12      6.08      0.00
  -12    6   12     -5.32      0.00
  -11    6   12      2.48      0.00
  -10    6   12     -7.78      0.00
   -9    6   12      3.92      0.00
   -8    6   12    -11.08      0.00
   -7    6   12     -0.08      0.00
   -6    6   12     -2.25      0.00
   -5    6   12     -1.19      0.00
   -4    6   12      3.83      0.00
   -3    6   12      3.96      0.00
   -2    6   12     -9.69      0.00
   -1    6   12      4.47      0.00
    0    6   12      5.96      0.00
    1    6   12     -0.70      0.00
    2    6   12      4.56      0.00
    3    6   12     -1.91      0.00
    4    6   12    -10.06      0.00
    5    6   12      3.34      0.00
    6    6   12      0.65      0.00
    7    6   12     -1.52      0.00
    8    6   12     -2.43      0.00
    9    6   12     -1.98      0.00
   10    6   12      0.09      0.00
   11    6   12      0.25      0.00
   12    6   12      2.12      0.00
   13    6   12     -3.24      0.00
  -22    7   12     -1.85      0.00
  -21    7   12     -0.13      0.00
  -20    7   12      1.04      0.00
  -19    7   12     -0.61      0.00
  -18    7   12     -4.19      0.00
  -17    7   12     -0.86      0.00
  -16    7   12      4.74      0.00
  -15    7   12     -0.41      0.00
  -14    7   12      4.49      0.00
  -13    7   12      6.11      0.00
  -12    7   12     -1.76      0.00
  -11    7   12     -8.32      0.00
  -10    7   12      4.38      0.00
   -9    7   12     -5.65      0.00
   -8    7   12      1.05      0.00
   -7    7   12     -7.11      0.00
   -6    7   12      2.38      0.00
   -5    7   12      3.27      0.00
   -4    7   12    -11.63      0.00
   -3    7   12     -3.87      0.00
   -2    7   12      8.47      0.00
   -1    7   12      2.24      0.00
    0    7   12      3.75      0.00
    1    7   12      8.02      0.00
    2    7   12     -4.64      0.00
    3    7   12     -3.55      0.00
    4    7   12     -0.74      0.00
    5    7   12     -5.21      0.00
    6    7   12     -0.50      0.00
    7    7   12      3.33      0.00
    8    7   12      1.22      0.00
    9    7   12     -2.54      0.00
   10    7   12     -2.77      0.00
   11    7   12      0.36      0.00
   12    7   12     -2.87      0.00
  -22    8   12     -1.68      0.00
  -21    8   12     -0.17      0.00
  -20    8   12      0.55      0.00
  -19    8   12     -2.52      0.00
  -18    8   12     -1.89      0.00
  -17    8   12      0.14      0.00
  -16    8   12      3.19      0.00
  -15    8   12      1.32      0.00
  -14    8   12     -3.91      0.00
  -13    8   12     -0.52      0.00
  -12    8   12      9.29      0.00
  -11    8   12     -2.81      0.00
  -10    8   12    -10.64      0.00
   -9    8   12      1.86      0.00
   -8    8   12      3.48      0.00
   -7    8   12     -1.11      0.00
   -6    8   12     -8.64      0.00
   -5    8   12     -2.80      0.00
   -4    8   12     -0.54      0.00
   -3    8   12     -6.92      0.00
   -2    8   12      6.46      0.00
   -1    8   12      8.09      0.00
    0    8   12      4.07      0.00
    1    8   12     -6.97      0.00
    2    8   12      1.34      0.00
    3    8   12      0.91      0.00
    4    8   12     -4.31      0.00
    5    8   12     -2.00      0.00
    6    8   12      4.62      0.00
    7    8   12     -1.16      0.00
    8    8   12     -0.68      0.00
    9    8   12     -0.08      0.00
   10    8   12     -3.07      0.00
   11    8   12     -5.16      0.00
   12    8   12      2.36      0.00
  -22    9   12      0.02      0.00
  -21    9   12     -1.08      0.00
  -20    9   12     -2.16      0.00
  -19    9   12     -0.41      0.00
  -18    9   12      2.05      0.00
  -17    9   12      1.02      0.00
  -16    9   12     -4.29      0.00
  -15    9   12     -1.20      0.00
  -14    9   12     -3.16      0.00
  -13    9   12      6.17      0.00
  -12    9   12      0.52      0.00
  -11    9   12      0.37      0.00
  -10    9   12     -6.75      0.00
   -9    9   12     -1.93      0.00
   -8    9   12     -1.75      0.00
   -7    9   12      1.38      0.00
   -6    9   12     -5.19      0.00
   -5    9   12     -6.74      0.00
   -4    9   12      2.36      0.00
   -3    9   12      1.21      0.00
   -2    9   12     -2.65      0.00
   -1    9   12      9.26      0.00
    0    9   12     -8.45      0.00
    1    9   12     -0.27      0.00
    2    9   12      0.96      0.00
    3    9   12      2.33      0.00
    4    9   12      0.12      0.00
    5    9   12     -2.66      0.00
    6    9   12     -1.65      0.00
    7    9   12      4.30      0.00
    8    9   12     -4.76      0.00
    9    9   12     -2.26      0.00
   10    9   12     -0.60      0.00
   11    9   12      0.15      0.00
   12    9   12     -1.83      0.00
  -22   10   12      1.64      0.00
  -21   10   12     -2.99      0.00
  -20   10   12     -0.31      0.00
  -19   10   12      1.08      0.00
  -18   10   12      1.69      0.00
  -17   10   12     -1.43      0.00
  -16   10   12     -4.77      0.00
  -15   10   12     -4.89      0.00
  -14   10   12     10.13      0.00
  -13   10   12     -3.81      0.00
  -12   10   12      4.35      0.00
  -11   10   12     -3.16      0.00
  -10   10   12     -5.46      0.00
   -9   10   12     -9.00      0.00
   -8   10   12      2.68      0.00
   -7   10   12     -0.31      0.00
   -6   10   12      1.83      0.00
   -5   10   12     -3.03      0.00
   -4   10   12     -2.18      0.00
   -3   10   12      2.61      0.00
   -2   10   12     -3.89      0.00
   -1   10   12     -9.29      0.00
    0   10   12     10.48      0.00
    1   10   12     -5.07      0.00
    2   10   12      0.54      0.00
    3   10   12      1.26      0.00
    4   10   12      0.71      0.00
    5   10   12     -2.45      0.00
    6   10   12     -1.70      0.00
    7   10   12     -0.96      0.00
    8   10   12      0.43      0.00
    9   10   12     -3.50      0.00
   10   10   12      2.11      0.00
   11   10   12     -1.34      0.00
   12   10   12     -2.49      0.00
  -21   11   12      0.52      0.00
  -20   11   12     -1.66      0.00
  -19   11   12      2.78      0.00
  -18   11   12     -2.40      0.00
  -17   11   12     -2.78      0.00
  -16   11   12      1.83      0.00
  -15   11   12      4.80      0.00
  -14   11   12     -6.10      0.00
  -13   11   12      8.23      0.00
  -12   11   12     -6.89      0.00
  -11   11   12     -0.92      0.00
  -10   11   12     -3.09      0.00
   -9   11   12     -0.63      0.00
   -8   11   12     -3.70      0.00
   -7   11   12      0.57      0.00
   -6   11   12      3.26      0.00
   -5   11   12      3.69      0.00
   -4   11   12     -6.45      0.00
   -3   11   12     -6.78      0.00
   -2   11   12     -2.26      0.00
   -1   11   12      3.61      0.00
    0   11   12     -1.30      0.00
    1   11   12      5.24      0.00
    2   11   12     -6.89      0.00
    3   11   12      0.58      0.00
    4   11   12      1.38      0.00
    5   11   12     -0.10      0.00
    6   11   12     -6.96      0.00
    7   11   12     -1.79      0.00
    8   11   12      4.13      0.00
    9   11   12      1.16      0.00
   10   11   12     -3.61      0.00
   11   11   12     -1.84      0.00
   12   11   12     -2.00      0.00
  -21   12   12     -0.42      0.00
  -20   12   12      1.74      0.00
  -19   12   12     -2.29      0.00
  -18   12   12      0.84      0.00
  -17   12   12      0.48      0.00
  -16   12   12      3.11      0.00
  -15   12   12      1.18      0.00
  -14   12   12      2.83      0.00
  -13   12   12    -10.99      0.00
  -12   12   12      5.78      0.00
  -11   12   12      4.52      0.00
  -10   12   12      1.65      0.00
   -9   12   12     -7.95      0.00
   -8   12   12     -2.37      0.00
   -7   12   12      5.99      0.00
   -6   12   12     -0.46      0.00
   -5   12   12     -2.63      0.00
   -4   12   12     -0.80      0.00
   -3   12   12     -2.98      0.00
   -2   12   12      3.56      0.00
   -1   12   12     -0.93      0.00
    0   12   12      1.49      0.00
    1   12   12     -0.63      0.00
    2   12   12     -0.09      0.00
    3   12   12     -4.33      0.00
    4   12   12     -0.93      0.00
    5   12   12     -4.22      0.00
    6   12   12      2.71      0.00
    7   12   12     -0.13      0.00
    8   12   12     -0.60      0.00
    9   12   12      0.24      0.00
   10   12   12     -3.90      0.00
   11   12   12     -2.92      0.00
  -21   13   12      0.34      0.00
  -20   13   12     -0.07      0.00
  -19   13   12      0.01      0.00
  -18   13   12      0.35      0.00
  -17   13   12      3.47      0.00
  -16   13   12      0.38      0.00
  -15   13   12      1.76      0.00
  -14   13   12     -5.57      0.00
  -13   13   12      3.01      0.00
  -12   13   12      4.49      0.00
  -11   13   12      4.64      0.00
  -10   13   12     -1.33      0.00
   -9   13   12      0.02      0.00
   -8   13   12     -1.12      0.00
   -7   13   12     -3.22      0.00
   -6   13   12      1.82      0.00
   -5   13   12      1.23      0.00
   -4   13   12      5.60      0.00
   -3   13   12      3.35      0.00
   -2   13   12     -5.52      0.00
   -1   13   12      2.42      0.00
    0   13   12      0.12      0.00
    1   13   12      0.11      0.00
    2   13   12     -0.56      0.00
    3   13   12     -3.48      0.00
    4   13   12     -1.40      0.00
    5   13   12      1.78      0.00
    6   13   12     -1.23      0.00
    7   13   12      2.49      0.00
    8   13   12     -4.18      0.00
    9   13   12     -3.88      0.00
   10   13   12      0.90      0.00
   11   13   12     -0.83      0.00
  -20   14   12     -0.74      0.00
  -19   14   12      1.15      0.00
  -18   14   12      0.56      0.00
  -17   14   12      1.94      0.00
  -16   14   12     -0.17      0.00
  -15   14   12     -4.80      0.00
  -14   14   12      6.60      0.00
  -13   14   12      2.90      0.00
  -12   14   12     -1.12      0.00
  -11   14   12      5.28      0.00
  -10   14   12      4.77      0.00
   -9   14   12      0.02      0.00
   -8   14   12     -5.04      0.00
   -7   14   12     -0.38      0.00
   -6   14   12      6.21      0.00
   -5   14   12      6.21      0.00
   -4   14   12      3.81      0.00
   -3   14   12      2.44      0.00
   -2   14   12     -3.28      0.00
   -1   14   12     -4.50      0.00
    0   14   12      5.22      0.00
    1   14   12      1.34      0.00
    2   14   12      0.21      0.00
    3   14   12      2.40      0.00
    4   14   12     -2.76      0.00
    5   14   12      0.04      0.00
    6   14   12      0.41      0.00
    7   14   12     -2.31      0.00
    8   14   12      0.47      0.00
    9   14   12     -2.12      0.00
   10   14   12      0.70      0.00
   11   14   12      0.78      0.00
  -20   15   12      1.92      0.00
  -19   15   12     -0.13      0.00
  -18   15   12      1.40      0.00
  -17   15   12     -3.95      0.00
  -16   15   12      1.02      0.00
  -15   15   12      5.80      0.00
  -14   15   12     -0.54      0.00
  -13   15   12      0.06      0.00
  -12   15   12      2.13      0.00
  -11   15   12      1.38      0.00
  -10   15   12      6.23      0.00
   -9   15   12      2.32      0.00
   -8   15   12      3.00      0.00
   -7   15   12      0.52      0.00
   -6   15   12      2.38      0.00
   -5   15   12      8.61      0.00
   -4   15   12      1.38      0.00
   -3   15   12     -1.82      0.00
   -2   15   12     -0.45      0.00
   -1   15   12     -2.19      0.00
    0   15   12      3.01      0.00
    1   15   12      7.96      0.00
    2   15   12      2.11      0.00
    3   15   12     -2.59      0.00
    4   15   12      1.45      0.00
    5   15   12      1.32      0.00
    6   15   12      0.03      0.00
    7   15   12     -2.72      0.00
    8   15   12     -0.08      0.00
    9   15   12      2.45      0.00
   10   15   12     -1.37      0.00
  -20   16   12      1.41      0.00
  -19   16   12      1.43      0.00
  -18   16   12     -1.61      0.00
  -17   16   12      1.58      0.00
  -16   16   12      1.05      0.00
  -15   16   12     -0.33      0.00
  -14   16   12     -0.45      0.00
  -13   16   12      0.76      0.00
  -12   16   12     -2.03      0.00
  -11   16   12      3.43      0.00
  -10   16   12     10.21      0.00
   -9   16   12      7.86      0.00
   -8   16   12     -1.12      0.00
   -7   16   12      1.02      0.00
   -6   16   12      4.81      0.00
   -5   16   12      0.68      0.00
   -4   16   12     -0.57      0.00
   -3   16   12     -1.12      0.00
   -2   16   12      3.21      0.00
   -1   16   12      4.15      0.00
    0   16   12     -1.77      0.00
    1   16   12      4.31      0.00
    2   16   12      3.42      0.00
    3   16   12      4.05      0.00
    4   16   12      1.18      0.00
    5   16   12     -2.62      0.00
    6   16   12     -0.36      0.00
    7   16   12      2.71      0.00
    8   16   12      0.70      0.00
    9   16   12      0.72      0.00
   10   16   12      2.48      0.00
  -19   17   12      1.35      0.00
  -18   17   12      2.05      0.00
  -17   17   12     -0.56      0.00
  -16   17   12     -3.90      0.00
  -15   17   12      1.17      0.00
  -14   17   12     -0.38      0.00
  -13   17   12     -5.18      0.00
  -12   17   12      6.13      0.00
  -11   17   12      7.08      0.00
  -10   17   12      1.13      0.00
   -9   17   12      6.47      0.00
   -8   17   12      5.15      0.00
   -7   17   12      1.63      0.00
   -6   17   12     -4.27      0.00
   -5   17   12     -0.91      0.00
   -4   17   12      4.75      0.00
   -3   17   12      2.69      0.00
   -2   17   12      0.73      0.00
   -1   17   12     -0.61      0.00
    0   17   12      0.34      0.00
    1   17   12     -0.63      0.00
    2   17   12     10.56      0.00
    3   17   12      1.54      0.00
    4   17   12     -1.21      0.00
    5   17   12      0.38      0.00
    6   17   12      1.12      0.00
    7   17   12      3.89      0.00
    8   17   12      2.44      0.00
    9   17   12     -0.43      0.00
  -19   18   12      2.50      0.00
  -18   18   12     -0.55      0.00
  -17   18   12     -1.95      0.00
  -16   18   12      1.51      0.00
  -15   18   12     -5.28      0.00
  -14   18   12     -0.11      0.00
  -13   18   12      5.20      0.00
  -12   18   12     -0.88      0.00
  -11   18   12      0.81      0.00
  -10   18   12      4.33      0.00
   -9   18   12      3.34      0.00
   -8   18   12      7.59      0.00
   -7   18   12     -3.54      0.00
   -6   18   12     -0.95      0.00
   -5   18   12      0.79      0.00
   -4   18   12      3.09      0.00
   -3   18   12      5.87      0.00
   -2   18   12     -4.69      0.00
   -1   18   12     -3.96      0.00
    0   18   12      1.75      0.00
    1   18   12      5.63      0.00
    2   18   12     -3.11      0.00
    3   18   12      5.67      0.00
    4   18   12      3.75      0.00
    5   18   12      0.16      0.00
    6   18   12     -0.25      0.00
    7   18   12      2.21      0.00
    8   18   12      1.96      0.00
    9   18   12      1.01      0.00
  -18   19   12      1.15      0.00
  -17   19   12     -0.15      0.00
  -16   19   12     -3.71      0.00
  -15   19   12      2.84      0.00
  -14   19   12      2.04      0.00
  -13   19   12     -1.11      0.00
  -12   19   12     -2.36      0.00
  -11   19   12     -0.25      0.00
  -10   19   12      3.13      0.00
   -9   19   12      4.56      0.00
   -8   19   12     -0.44      0.00
   -7   19   12      4.75      0.00
   -6   19   12      0.65      0.00
   -5   19   12      1.37      0.00
   -4   19   12     -0.89      0.00
   -3   19   12     -2.04      0.00
   -2   19   12      1.67      0.00
   -1   19   12     -3.33      0.00
    0   19   12      0.00      0.00
    1   19   12     -1.85      0.00
    2   19   12      4.08      0.00
    3   19   12      1.18      0.00
    4   19   12      2.66      0.00
    5   19   12      0.78      0.00
    6   19   12     -0.23      0.00
    7   19   12      0.32      0.00
    8   19   12      3.87      0.00
  -17   20   12     -0.20      0.00
  -16   20   12      1.52      0.00
  -15   20   12      1.37      0.00
  -14   20   12     -1.90      0.00
  -13   20   12      0.25      0.00
  -12   20   12      0.69      0.00
  -11   20   12     -3.46      0.00
  -10   20   12      0.73      0.00
   -9   20   12      3.49      0.00
   -8   20   12      4.96      0.00
   -7   20   12      0.06      0.00
   -6   20   12      1.42      0.00
   -5   20   12     -0.37      0.00
   -4   20   12     -3.73      0.00
   -3   20   12     -2.12      0.00
   -2   20   12      3.13      0.00
   -1   20   12      1.94      0.00
    0   20   12     -7.55      0.00
    1   20   12      1.45      0.00
    2   20   12     -0.15      0.00
    3   20   12      0.60      0.00
    4   20   12      1.18      0.00
    5   20   12      2.17      0.00
    6   20   12      0.81      0.00
    7   20   12      1.14      0.00
    8   20   12      0.30      0.00
  -17   21   12      2.27      0.00
  -16   21   12     -0.30      0.00
  -15   21   12     -1.29      0.00
  -14   21   12      4.38      0.00
  -13   21   12     -3.11      0.00
  -12   21   12     -1.31      0.00
  -11   21   12      3.02      0.00
  -10   21   12     -1.92      0.00
   -9   21   12      0.27      0.00
   -8   21   12      1.41      0.00
   -7   21   12      3.05      0.00
   -6   21   12     -1.96      0.00
   -5   21   12     -3.77      0.00
   -4   21   12      2.20      0.00
   -3   21   12      2.90      0.00
   -2   21   12     -1.96      0.00
   -1   21   12     -0.91      0.00
    0   21   12      0.21      0.00
    1   21   12     -6.50      0.00
    2   21   12      2.56      0.00
    3   21   12      1.92      0.00
    4   21   12      0.08      0.00
    5   21   12      0.65      0.00
    6   21   12      1.45      0.00
    7   21   12      0.15      0.00
  -16   22   12     -0.15      0.00
  -15   22   12      1.78      0.00
  -14   22   12     -1.75      0.00
  -13   22   12      3.62      0.00
  -12   22   12     -1.22      0.00
  -11   22   12     -1.53      0.00
  -10   22   12      0.02      0.00
   -9   22   12     -3.59      0.00
   -8   22   12      0.33      0.00
   -7   22   12      1.10      0.00
   -6   22   12      0.99      0.00
   -5   22   12     -0.20      0.00
   -4   22   12      0.43      0.00
   -3   22   12      1.95      0.00
   -2   22   12      1.19      0.00
   -1   22   12     -2.09      0.00
    0   22   12     -2.62      0.00
    1   22   12      1.83      0.00
    2   22   12     -1.41      0.00
    3   22   12     -0.67      0.00
    4   22   12      1.19      0.00
    5   22   12      2.05      0.00
    6   22   12     -1.10      0.00
  -15   23   12     -1.90      0.00
  -14   23   12      3.94      0.00
  -13   23   12      0.22      0.00
  -12   23   12     -2.85      0.00
  -11   23   12     -2.78      0.00
  -10   23   12     -1.24      0.00
   -9   23   12     -0.41      0.00
   -8   23   12     -1.43      0.00
   -7   23   12     -0.69      0.00
   -6   23   12      2.77      0.00
   -5   23   12      3.84      0.00
   -4   23   12     -2.04      0.00
   -3   23   12      0.73      0.00
   -2   23   12      0.86      0.00
   -1   23   12     -2.70      0.00
    0   23   12      1.92      0.00
    1   23   12      0.53      0.00
    2   23   12     -0.76      0.00
    3   23   12     -0.14      0.00
    4   23   12      0.11      0.00
    5   23   12      0.29      0.00
  -14   24   12     -3.48      0.00
  -13   24   12     -2.00      0.00
  -12   24   12      2.07      0.00
  -11   24   12     -1.94      0.00
  -10   24   12     -2.45      0.00
   -9   24   12     -1.11      0.00
   -8   24   12     -0.58      0.00
   -7   24   12      0.47      0.00
   -6   24   12      0.32      0.00
   -5   24   12      2.17      0.00
   -4   24   12      1.38      0.00
   -3   24   12     -4.78      0.00
   -2   24   12      1.82      0.00
   -1   24   12      6.24      0.00
    0   24   12     -2.90      0.00
    1   24   12     -0.79      0.00
    2   24   12      1.16      0.00
    3   24   12     -0.63      0.00
    4   24   12     -1.33      0.00
  -13   25   12      1.45      0.00
  -12   25   12     -3.37      0.00
  -11   25   12     -0.27      0.00
  -10   25   12     -1.03      0.00
   -9   25   12     -2.46      0.00
   -8   25   12      0.95      0.00
   -7   25   12      0.42      0.00
   -6   25   12     -1.59      0.00
   -5   25   12     -0.52      0.00
   -4   25   12      1.13      0.00
   -3   25   12      2.68      0.00
   -2   25   12      1.58      0.00
   -1   25   12     -1.05      0.00
    0   25   12      0.26      0.00
    1   25   12     -2.78      0.00
    2   25   12     -0.28      0.00
    3   25   12      1.62      0.00
  -12   26   12      0.40      0.00
  -11   26   12     -2.77      0.00
  -10   26   12     -0.42      0.00
   -9   26   12      2.25      0.00
   -8   26   12     -2.06      0.00
   -7   26   12     -0.94      0.00
   -6   26   12      0.08      0.00
   -5   26   12     -0.19      0.00
   -4   26   12      1.18      0.00
   -3   26   12      1.94      0.00
   -2   26   12     -2.61      0.00
   -1   26   12     -0.61      0.00
    1   26   12     -0.32      0.00
    2   26   12     -0.89      0.00
  -10   27   12      1.21      0.00
   -9   27   12     -0.54      0.00
   -8   27   12      0.59      0.00
   -7   27   12     -0.98      0.00
   -6   27   12     -1.35      0.00
   -5   27   12      0.72      0.00
   -4   27   12      0.42      0.00
   -3   27   12     -3.13      0.00
   -2   27   12      2.10      0.00
   -1   27   12     -1.11      0.00
    0   27   12     -1.92      0.00
   -6   28   12     -1.49      0.00
   -5   28   12     -1.18      0.00
   -4   28   12      0.17      0.00
  -23    0   13     -0.56      0.00
  -21    0   13     -1.46      0.00
  -19    0   13     -1.42      0.00
  -17    0   13      0.17      0.00
  -15    0   13     -8.97      0.00
  -13    0   13     -0.69      0.00
  -11    0   13      5.67      0.00
   -9    0   13      0.09      0.00
   -7    0   13      6.60      0.00
   -5    0   13      1.73      0.00
   -3    0   13      9.61      0.00
   -1    0   13    -12.14      0.00
    1    0   13     -6.25      0.00
    3    0   13     12.50      0.00
    5    0   13     -2.41      0.00
    7    0   13      0.29      0.00
    9    0   13      3.24      0.00
   11    0   13      0.69      0.00
  -23    1   13      2.17      0.00
  -22    1   13     -2.38      0.00
  -21    1   13      1.75      0.00
  -20    1   13     -2.68      0.00
  -19    1   13     -1.51      0.00
  -18    1   13     -0.15      0.00
  -17    1   13      0.92      0.00
  -16    1   13      0.26      0.00
  -15    1   13      8.37      0.00
  -14    1   13     -8.08      0.00
  -13    1   13      4.00      0.00
  -12    1   13      2.01      0.00
  -11    1   13     -7.03      0.00
  -10    1   13     -0.46      0.00
   -9    1   13     -4.42      0.00
   -8    1   13      9.66      0.00
   -7    1   13      0.18      0.00
   -6    1   13     -0.54      0.00
   -5    1   13      4.42      0.00
   -4    1   13      6.59      0.00
   -3    1   13     -2.39      0.00
   -2    1   13     -2.05      0.00
   -1    1   13      3.49      0.00
    0    1   13     -9.62      0.00
    1    1   13     -0.05      0.00
    2    1   13      2.63      0.00
    3    1   13     -2.57      0.00
    4    1   13      6.38      0.00
    5    1   13      1.36      0.00
    6    1   13     -4.69      0.00
    7    1   13     -3.71      0.00
    8    1   13      5.81      0.00
    9    1   13      4.63      0.00
   10    1   13      0.95      0.00
   11    1   13     -1.07      0.00
   12    1   13     -1.50      0.00
  -23    2   13     -0.17      0.00
  -22    2   13      2.34      0.00
  -21    2   13     -3.91      0.00
  -20    2   13      1.03      0.00
  -19    2   13     -2.55      0.00
  -18    2   13      0.23      0.00
  -17    2   13      2.75      0.00
  -16    2   13      9.53      0.00
  -15    2   13      1.06      0.00
  -14    2   13      5.87      0.00
  -13    2   13     -9.32      0.00
  -12    2   13     -0.58      0.00
  -11    2   13      0.80      0.00
  -10    2   13     -5.07      0.00
   -9    2   13      4.26      0.00
   -8    2   13     -2.59      0.00
   -7    2   13      4.59      0.00
   -6    2   13     -1.21      0.00
   -5    2   13      0.37      0.00
   -4    2   13      2.97      0.00
   -3    2   13     -1.45      0.00
   -2    2   13      4.56      0.00
   -1    2   13     -0.19      0.00
    0    2   13      3.84      0.00
    1    2   13     -8.51      0.00
    2    2   13     -8.27      0.00
    3    2   13      6.17      0.00
    4    2   13      4.35      0.00
    5    2   13     -2.31      0.00
    6    2   13     -1.53      0.00
    7    2   13      3.25      0.00
    8    2   13     -0.12      0.00
    9    2   13      3.05      0.00
   10    2   13      1.73      0.00
   11    2   13     -4.07      0.00
   12    2   13     -0.25      0.00
  -23    3   13      0.11      0.00
  -22    3   13     -0.33      0.00
  -21    3   13      1.23      0.00
  -20    3   13     -4.69      0.00
  -19    3   13      0.21      0.00
  -18    3   13      1.56      0.00
  -17    3   13      8.56      0.00
  -16    3   13      0.11      0.00
  -15    3   13      8.97      0.00
  -14    3   13     -1.45      0.00
  -13    3   13     -2.29      0.00
  -12    3   13     -3.79      0.00
  -11    3   13      8.36      0.00
  -10    3   13      2.38      0.00
   -9    3   13     -7.47      0.00
   -8    3   13     -2.60      0.00
   -7    3   13      2.60      0.00
   -6    3   13     -1.21      0.00
   -5    3   13     -8.47      0.00
   -4    3   13      3.91      0.00
   -3    3   13     13.13      0.00
   -2    3   13     -4.54      0.00
   -1    3   13      6.21      0.00
    0    3   13     -4.45      0.00
    1    3   13     -6.73      0.00
    2    3   13      0.14      0.00
    3    3   13     -1.00      0.00
    4    3   13      1.40      0.00
    5    3   13      5.90      0.00
    6    3   13     -0.94      0.00
    7    3   13     -2.81      0.00
    8    3   13      1.37      0.00
    9    3   13     -1.60      0.00
   10    3   13     -1.54      0.00
   11    3   13      3.16      0.00
   12    3   13     -0.75      0.00
  -23    4   13     -1.78      0.00
  -22    4   13      0.59      0.00
  -21    4   13     -0.84      0.00
  -20    4   13     -0.75      0.00
  -19    4   13      0.09      0.00
  -18    4   13      3.46      0.00
  -17    4   13     -1.37      0.00
  -16    4   13      9.70      0.00
  -15    4   13     -4.67      0.00
  -14    4   13      7.97      0.00
  -13    4   13      4.90      0.00
  -12    4   13      0.65      0.00
  -11    4   13     -1.17      0.00
  -10    4   13      7.54      0.00
   -9    4   13     -5.58      0.00
   -8    4   13     -6.39      0.00
   -7    4   13     -8.93      0.00
   -6    4   13      2.89      0.00
   -5    4   13      1.16      0.00
   -4    4   13     -0.75      0.00
   -3    4   13      5.10      0.00
   -2    4   13     10.36      0.00
   -1    4   13    -12.27      0.00
    0    4   13      4.66      0.00
    1    4   13      4.99      0.00
    2    4   13     -6.81      0.00
    3    4   13     -2.20      0.00
    4    4   13      6.29      0.00
    5    4   13      0.50      0.00
    6    4   13     -1.65      0.00
    7    4   13     -1.81      0.00
    8    4   13     -2.38      0.00
    9    4   13     -2.77      0.00
   10    4   13      2.89      0.00
   11    4   13      1.22      0.00
   12    4   13      0.00      0.00
  -23    5   13      1.52      0.00
  -22    5   13     -2.41      0.00
  -21    5   13     -0.03      0.00
  -20    5   13      1.09      0.00
  -19    5   13     -0.35      0.00
  -18    5   13     -1.83      0.00
  -17    5   13      2.63      0.00
  -16    5   13     -2.64      0.00
  -15    5   13     13.26      0.00
  -14    5   13      0.89      0.00
  -13    5   13      7.74      0.00
  -12    5   13     -0.09      0.00
  -11    5   13      1.00      0.00
  -10    5   13     -4.21      0.00
   -9    5   13      3.18      0.00
   -8    5   13     -9.79      0.00
   -7    5   13     -1.34      0.00
   -6    5   13     -3.73      0.00
   -5    5   13      5.08      0.00
   -4    5   13     -0.60      0.00
   -3    5   13      1.43      0.00
   -2    5   13     -3.25      0.00
   -1    5   13      7.54      0.00
    0    5   13      2.23      0.00
    1    5   13      4.40      0.00
    2    5   13     -0.35      0.00
    3    5   13     -3.99      0.00
    4    5   13     -4.65      0.00
    5    5   13      5.95      0.00
    6    5   13      1.23      0.00
    7    5   13     -7.06      0.00
    8    5   13     -2.83      0.00
    9    5   13      3.40      0.00
   10    5   13     -0.51      0.00
   11    5   13      1.18      0.00
   12    5   13      0.50      0.00
  -22    6   13      0.59      0.00
  -21    6   13     -1.60      0.00
  -20    6   13      0.15      0.00
  -19    6   13      0.05      0.00
  -18    6   13     -0.20      0.00
  -17    6   13     -3.38      0.00
  -16    6   13      7.08      0.00
  -15    6   13      3.06      0.00
  -14    6   13      9.14      0.00
  -13    6   13     -5.08      0.00
  -12    6   13      3.54      0.00
  -11    6   13     -3.98      0.00
  -10    6   13      6.06      0.00
   -9    6   13     -5.22      0.00
   -8    6   13      2.49      0.00
   -7    6   13     -1.92      0.00
   -6    6   13     -1.95      0.00
   -5    6   13     -5.94      0.00
   -4    6   13      1.89      0.00
   -3    6   13     -5.98      0.00
   -2    6   13      8.07      0.00
   -1    6   13      6.34      0.00
    0    6   13      4.30      0.00
    1    6   13      3.06      0.00
    2    6   13     -1.34      0.00
    3    6   13     -7.91      0.00
    4    6   13      2.41      0.00
    5    6   13      0.02      0.00
    6    6   13     -0.22      0.00
    7    6   13      0.29      0.00
    8    6   13     -1.05      0.00
    9    6   13     -2.11      0.00
   10    6   13      0.73      0.00
   11    6   13      0.55      0.00
   12    6   13     -2.29      0.00
  -22    7   13     -0.38      0.00
  -21    7   13      1.97      0.00
  -20    7   13     -1.17      0.00
  -19    7   13     -2.37      0.00
  -18    7   13     -1.01      0.00
  -17    7   13      5.96      0.00
  -16    7   13     -3.24      0.00
  -15    7   13      1.09      0.00
  -14    7   13      0.95      0.00
  -13    7   13      5.66      0.00
  -12    7   13     -5.94      0.00
  -11    7   13      6.50      0.00
  -10    7   13     -4.11      0.00
   -9    7   13      6.72      0.00
   -8    7   13     -2.47      0.00
   -7    7   13     -0.52      0.00
   -6    7   13     -0.85      0.00
   -5    7   13    -10.48      0.00
   -4    7   13     -7.41      0.00
   -3    7   13     12.66      0.00
   -2    7   13      3.02      0.00
   -1    7   13      3.66      0.00
    0    7   13      3.45      0.00
    1    7   13     -3.67      0.00
    2    7   13     -0.18      0.00
    3    7   13      2.13      0.00
    4    7   13     -5.60      0.00
    5    7   13      1.35      0.00
    6    7   13      3.79      0.00
    7    7   13      1.31      0.00
    8    7   13     -2.71      0.00
    9    7   13     -2.18      0.00
   10    7   13     -2.29      0.00
   11    7   13     -2.39      0.00
  -22    8   13      0.13      0.00
  -21    8   13     -0.67      0.00
  -20    8   13     -1.32      0.00
  -19    8   13     -0.67      0.00
  -18    8   13      2.28      0.00
  -17    8   13     -1.48      0.00
  -16    8   13      0.68      0.00
  -15    8   13     -7.62      0.00
  -14    8   13      1.79      0.00
  -13    8   13      8.01      0.00
  -12    8   13      3.53      0.00
  -11    8   13    -12.09      0.00
  -10    8   13      4.99      0.00
   -9    8   13      2.88      0.00
   -8    8   13      2.32      0.00
   -7    8   13     -6.42      0.00
   -6    8   13     -4.37      0.00
   -5    8   13      1.91      0.00
   -4    8   13     -4.11      0.00
   -3    8   13      1.36      0.00
   -2    8   13      9.56      0.00
   -1    8   13     -2.62      0.00
    0    8   13     -7.20      0.00
    1    8   13      4.66      0.00
    2    8   13      3.08      0.00
    3    8   13     -1.97      0.00
    4    8   13     -0.17      0.00
    5    8   13      2.81      0.00
    6    8   13     -0.56      0.00
    7    8   13     -2.69      0.00
    8    8   13      1.53      0.00
    9    8   13     -2.44      0.00
   10    8   13     -4.10      0.00
   11    8   13      2.06      0.00
  -22    9   13     -2.36      0.00
  -21    9   13     -1.06      0.00
  -20    9   13      0.10      0.00
  -19    9   13      2.22      0.00
  -18    9   13     -1.01      0.00
  -17    9   13     -3.57      0.00
  -16    9   13     -4.23      0.00
  -15    9   13      2.66      0.00
  -14    9   13      1.23      0.00
  -13    9   13      1.81      0.00
  -12    9   13     -0.16      0.00
  -11    9   13     -2.83      0.00
  -10    9   13     -5.43      0.00
   -9    9   13      0.52      0.00
   -8    9   13      3.81      0.00
   -7    9   13      0.89      0.00
   -6    9   13     -4.77      0.00
   -5    9   13      1.35      0.00
   -4    9   13      3.26      0.00
   -3    9   13     -5.52      0.00
   -2    9   13      0.93      0.00
   -1    9   13     -2.98      0.00
    0    9   13     -0.61      0.00
    1    9   13      1.00      0.00
    2    9   13      5.01      0.00
    3    9   13      1.56      0.00
    4    9   13     -3.08      0.00
    5    9   13     -3.74      0.00
    6    9   13      3.76      0.00
    7    9   13     -1.48      0.00
    8    9   13     -3.20      0.00
    9    9   13      2.63      0.00
   10    9   13      0.74      0.00
   11    9   13     -4.17      0.00
  -22   10   13     -0.73      0.00
  -21   10   13     -1.58      0.00
  -20   10   13      1.76      0.00
  -19   10   13     -0.46      0.00
  -18   10   13     -1.73      0.00
  -17   10   13     -3.14      0.00
  -16   10   13      0.13      0.00
  -15   10   13      4.97      0.00
  -14   10   13     -1.23      0.00
  -13   10   13     -1.66      0.00
  -12   10   13     -1.23      0.00
  -11   10   13     -3.19      0.00
  -10   10   13     -5.80      0.00
   -9   10   13      4.83      0.00
   -8   10   13      1.24      0.00
   -7   10   13      3.39      0.00
   -6   10   13      2.36      0.00
   -5   10   13     -4.22      0.00
   -4   10   13     -0.86      0.00
   -3   10   13     -3.45      0.00
   -2   10   13     -7.42      0.00
   -1   10   13      9.89      0.00
    0   10   13     -1.99      0.00
    1   10   13     -0.66      0.00
    2   10   13      0.69      0.00
    3   10   13      0.99      0.00
    4   10   13     -1.62      0.00
    5   10   13     -2.05      0.00
    6   10   13     -1.87      0.00
    7   10   13      2.95      0.00
    8   10   13     -0.56      0.00
    9   10   13      0.51      0.00
   10   10   13     -1.20      0.00
   11   10   13     -1.96      0.00
  -21   11   13     -0.26      0.00
  -20   11   13      0.21      0.00
  -19   11   13     -0.87      0.00
  -18   11   13     -2.54      0.00
  -17   11   13      3.76      0.00
  -16   11   13      3.61      0.00
  -15   11   13     -5.32      0.00
  -14   11   13      1.74      0.00
  -13   11   13     -4.65      0.00
  -12   11   13      1.27      0.00
  -11   11   13      2.48      0.00
  -10   11   13      2.20      0.00
   -9   11   13     -6.19      0.00
   -8   11   13      3.48      0.00
   -7   11   13      4.13      0.00
   -6   11   13      2.66      0.00
   -5   11   13     -3.63      0.00
   -4   11   13     -8.21      0.00
   -3   11   13      1.93      0.00
   -2   11   13      5.89      0.00
   -1   11   13     -3.24      0.00
    0   11   13      5.87      0.00
    1   11   13     -7.03      0.00
    2   11   13     -0.62      0.00
    3   11   13      2.18      0.00
    4   11   13     -0.54      0.00
    5   11   13     -4.55      0.00
    6   11   13     -0.57      0.00
    7   11   13      3.63      0.00
    8   11   13      2.05      0.00
    9   11   13     -4.09      0.00
   10   11   13     -0.63      0.00
   11   11   13     -1.27      0.00
  -21   12   13      1.97      0.00
  -20   12   13     -1.18      0.00
  -19   12   13     -0.49      0.00
  -18   12   13      2.45      0.00
  -17   12   13      0.34      0.00
  -16   12   13      0.65      0.00
  -15   12   13      0.32      0.00
  -14   12   13    -10.10      0.00
  -13   12   13      7.81      0.00
  -12   12   13      6.69      0.00
  -11   12   13      3.21      0.00
  -10   12   13     -6.18      0.00
   -9   12   13     -0.48      0.00
   -8   12   13      3.50      0.00
   -7   12   13      0.72      0.00
   -6   12   13     -0.55      0.00
   -5   12   13      2.26      0.00
   -4   12   13      1.66      0.00
   -3   12   13      0.09      0.00
   -2   12   13      0.06      0.00
   -1   12   13      2.48      0.00
    0   12   13     -3.66      0.00
    1   12   13      3.13      0.00
    2   12   13     -5.03      0.00
    3   12   13     -0.69      0.00
    4   12   13     -1.05      0.00
    5   12   13      3.40      0.00
    6   12   13      1.32      0.00
    7   12   13     -2.95      0.00
    8   12   13     -1.27      0.00
    9   12   13     -0.17      0.00
   10   12   13     -1.62      0.00
  -21   13   13     -0.48      0.00
  -20   13   13      0.94      0.00
  -19   13   13      1.09      0.00
  -18   13   13      0.62      0.00
  -17   13   13      0.02      0.00
  -16   13   13     -1.90      0.00
  -15   13   13     -2.48      0.00
  -14   13   13      5.34      0.00
  -13   13   13      0.48      0.00
  -12   13   13      6.25      0.00
  -11   13   13      0.06      0.00
  -10   13   13      2.34      0.00
   -9   13   13     -0.76      0.00
   -8   13   13     -4.20      0.00
   -7   13   13      6.34      0.00
   -6   13   13      4.52      0.00
   -5   13   13      5.35      0.00
   -4   13   13      2.16      0.00
   -3   13   13     -5.65      0.00
   -2   13   13      0.69      0.00
   -1   13   13      1.25      0.00
    0   13   13      2.32      0.00
    1   13   13     -2.28      0.00
    2   13   13      0.38      0.00
    3   13   13     -0.68      0.00
    4   13   13      3.58      0.00
    5   13   13     -1.49      0.00
    6   13   13      0.72      0.00
    7   13   13     -2.35      0.00
    8   13   13     -3.20      0.00
    9   13   13      2.19      0.00
   10   13   13      2.26      0.00
  -20   14   13      1.39      0.00
  -19   14   13      0.58      0.00
  -18   14   13      0.47      0.00
  -17   14   13     -1.90      0.00
  -16   14   13     -1.66      0.00
  -15   14   13      5.36      0.00
  -14   14   13      0.66      0.00
  -13   14   13     -1.15      0.00
  -12   14   13      1.70      0.00
  -11   14   13      7.03      0.00
  -10   14   13      1.14      0.00
   -9   14   13     -1.96      0.00
   -8   14   13      4.36      0.00
   -7   14   13      3.31      0.00
   -6   14   13      8.55      0.00
   -5   14   13      1.48      0.00
   -4   14   13      0.07      0.00
   -3   14   13     -2.43      0.00
   -2   14   13     -5.67      0.00
   -1   14   13      6.86      0.00
    0   14   13      1.96      0.00
    1   14   13      2.03      0.00
    2   14   13      2.69      0.00
    3   14   13     -1.42      0.00
    4   14   13     -0.97      0.00
    5   14   13      2.24      0.00
    6   14   13     -2.58      0.00
    7   14   13      1.51      0.00
    8   14   13      0.09      0.00
    9   14   13      0.19      0.00
   10   14   13      1.29      0.00
  -20   15   13     -0.24      0.00
  -19   15   13      1.99      0.00
  -18   15   13     -2.87      0.00
  -17   15   13      1.63      0.00
  -16   15   13      3.99      0.00
  -15   15   13     -3.58      0.00
  -14   15   13     -0.61      0.00
  -13   15   13     -0.26      0.00
  -12   15   13     -0.70      0.00
  -11   15   13      6.69      0.00
  -10   15   13      6.28      0.00
   -9   15   13      5.07      0.00
   -8   15   13     -1.04      0.00
   -7   15   13      3.43      0.00
   -6   15   13      4.39      0.00
   -5   15   13      2.28      0.00
   -4   15   13     -3.46      0.00
   -3   15   13     -0.83      0.00
   -2   15   13      1.62      0.00
   -1   15   13     -0.82      0.00
    0   15   13      9.11      0.00
    1   15   13      0.71      0.00
    2   15   13     -2.57      0.00
    3   15   13      3.69      0.00
    4   15   13      1.40      0.00
    5   15   13     -1.45      0.00
    6   15   13     -0.28      0.00
    7   15   13      0.40      0.00
    8   15   13      3.46      0.00
    9   15   13     -0.75      0.00
  -19   16   13     -1.26      0.00
  -18   16   13      2.97      0.00
  -17   16   13     -1.74      0.00
  -16   16   13     -1.97      0.00
  -15   16   13      0.74      0.00
  -14   16   13     -3.54      0.00
  -13   16   13     -2.41      0.00
  -12   16   13      4.08      0.00
  -11   16   13      5.66      0.00
  -10   16   13      8.18      0.00
   -9   16   13     -0.83      0.00
   -8   16   13      2.15      0.00
   -7   16   13      1.46      0.00
   -6   16   13      0.24      0.00
   -5   16   13      0.78      0.00
   -4   16   13      0.88      0.00
   -3   16   13      2.58      0.00
   -2   16   13      1.15      0.00
   -1   16   13     -1.39      0.00
    0   16   13     -2.11      0.00
    1   16   13      5.78      0.00
    2   16   13      4.56      0.00
    3   16   13      0.46      0.00
    4   16   13     -2.44      0.00
    5   16   13     -0.54      0.00
    6   16   13      3.85      0.00
    7   16   13      2.91      0.00
    8   16   13     -0.45      0.00
    9   16   13      2.08      0.00
  -19   17   13      1.99      0.00
  -18   17   13     -1.97      0.00
  -17   17   13     -2.12      0.00
  -16   17   13     -0.31      0.00
  -15   17   13     -1.07      0.00
  -14   17   13     -2.18      0.00
  -13   17   13      2.52      0.00
  -12   17   13      1.53      0.00
  -11   17   13     -0.62      0.00
  -10   17   13      2.10      0.00
   -9   17   13      7.98      0.00
   -8   17   13     -0.86      0.00
   -7   17   13     -3.38      0.00
   -6   17   13      1.22      0.00
   -5   17   13      5.50      0.00
   -4   17   13      4.16      0.00
   -3   17   13     -3.07      0.00
   -2   17   13     -3.10      0.00
   -1   17   13     -1.72      0.00
    0   17   13      0.66      0.00
    1   17   13      5.68      0.00
    2   17   13      0.76      0.00
    3   17   13     -1.80      0.00
    4   17   13      2.35      0.00
    5   17   13      1.21      0.00
    6   17   13      2.59      0.00
    7   17   13      1.88      0.00
    8   17   13      0.32      0.00
  -18   18   13     -0.61      0.00
  -17   18   13      1.03      0.00
  -16   18   13     -3.87      0.00
  -15   18   13      1.52      0.00
  -14   18   13      4.68      0.00
  -13   18   13     -5.04      0.00
  -12   18   13     -3.11      0.00
  -11   18   13      1.55      0.00
  -10   18   13      2.11      0.00
   -9   18   13      2.88      0.00
   -8   18   13      0.42      0.00
   -7   18   13      0.44      0.00
   -6   18   13      1.30      0.00
   -5   18   13      2.75      0.00
   -4   18   13      3.35      0.00
   -3   18   13     -3.16      0.00
   -2   18   13     -6.55      0.00
   -1   18   13      1.54      0.00
    0   18   13      2.56      0.00
    1   18   13     -6.20      0.00
    2   18   13      3.42      0.00
    3   18   13      4.71      0.00
    4   18   13     -0.67      0.00
    5   18   13     -0.47      0.00
    6   18   13      0.50      0.00
    7   18   13      2.34      0.00
    8   18   13      0.93      0.00
  -18   19   13      0.06      0.00
  -17   19   13     -2.70      0.00
  -16   19   13      4.89      0.00
  -15   19   13      0.70      0.00
  -14   19   13     -2.90      0.00
  -13   19   13     -0.48      0.00
  -12   19   13     -2.66      0.00
  -11   19   13     -0.33      0.00
  -10   19   13      1.63      0.00
   -9   19   13     -0.27      0.00
   -8   19   13      3.58      0.00
   -7   19   13      1.06      0.00
   -6   19   13      1.04      0.00
   -5   19   13     -2.29      0.00
   -4   19   13     -1.89      0.00
   -3   19   13      2.86      0.00
   -2   19   13     -1.03      0.00
   -1   19   13     -4.55      0.00
    0   19   13     -2.72      0.00
    1   19   13      3.17      0.00
    2   19   13     -2.68      0.00
    3   19   13     -0.06      0.00
    4   19   13      2.21      0.00
    5   19   13      0.58      0.00
    6   19   13     -0.21      0.00
    7   19   13      1.66      0.00
  -17   20   13      2.14      0.00
  -16   20   13     -0.80      0.00
  -15   20   13      0.53      0.00
  -14   20   13      1.52      0.00
  -13   20   13      0.18      0.00
  -12   20   13     -2.22      0.00
  -11   20   13     -2.03      0.00
  -10   20   13      0.17      0.00
   -9   20   13      2.06      0.00
   -8   20   13     -0.99      0.00
   -7   20   13      0.27      0.00
   -6   20   13     -2.12      0.00
   -5   20   13     -1.25      0.00
   -4   20   13      0.90      0.00
   -3   20   13      2.70      0.00
   -2   20   13      1.22      0.00
   -1   20   13     -5.45      0.00
    0   20   13     -1.19      0.00
    1   20   13     -1.98      0.00
    2   20   13     -1.01      0.00
    3   20   13     -0.17      0.00
    4   20   13      2.16      0.00
    5   20   13      1.05      0.00
    6   20   13     -0.43      0.00
  -16   21   13      0.05      0.00
  -15   21   13      3.30      0.00
  -14   21   13     -0.80      0.00
  -13   21   13     -0.35      0.00
  -12   21   13      2.19      0.00
  -11   21   13     -3.70      0.00
  -10   21   13     -3.69      0.00
   -9   21   13     -0.96      0.00
   -8   21   13      1.87      0.00
   -7   21   13     -2.64      0.00
   -6   21   13     -2.27      0.00
   -5   21   13      3.15      0.00
   -4   21   13      3.51      0.00
   -3   21   13     -0.89      0.00
   -2   21   13     -0.83      0.00
   -1   21   13      0.63      0.00
    0   21   13     -5.25      0.00
    1   21   13      1.66      0.00
    2   21   13      0.73      0.00
    3   21   13     -2.45      0.00
    4   21   13     -0.71      0.00
    5   21   13      0.83      0.00
    6   21   13     -0.59      0.00
  -16   22   13      0.86      0.00
  -15   22   13     -1.16      0.00
  -14   22   13      3.80      0.00
  -13   22   13     -1.46      0.00
  -12   22   13     -3.53      0.00
  -11   22   13     -0.39      0.00
  -10   22   13     -4.36      0.00
   -9   22   13     -0.71      0.00
   -8   22   13     -0.33      0.00
   -7   22   13      1.12      0.00
   -6   22   13      0.17      0.00
   -5   22   13     -0.63      0.00
   -4   22   13      2.28      0.00
   -3   22   13      2.65      0.00
   -2   22   13     -2.09      0.00
   -1   22   13     -1.61      0.00
    0   22   13      3.85      0.00
    1   22   13     -2.03      0.00
    2   22   13     -2.74      0.00
    3   22   13     -0.75      0.00
    4   22   13      0.62      0.00
    5   22   13     -1.62      0.00
  -15   23   13      2.56      0.00
  -14   23   13     -1.67      0.00
  -13   23   13     -2.00      0.00
  -12   23   13     -1.99      0.00
  -11   23   13     -1.49      0.00
  -10   23   13      0.51      0.00
   -9   23   13     -1.98      0.00
   -8   23   13     -0.70      0.00
   -7   23   13     -0.10      0.00
   -6   23   13      2.94      0.00
   -5   23   13     -0.96      0.00
   -4   23   13     -1.46      0.00
   -3   23   13      1.21      0.00
   -2   23   13      1.40      0.00
   -1   23   13      1.58      0.00
    0   23   13     -0.22      0.00
    1   23   13     -0.43      0.00
    2   23   13     -0.83      0.00
    3   23   13     -1.75      0.00
    4   23   13     -2.10      0.00
  -14   24   13     -0.18      0.00
  -13   24   13      1.48      0.00
  -12   24   13     -1.67      0.00
  -11   24   13     -1.20      0.00
  -10   24   13     -0.70      0.00
   -9   24   13     -0.20      0.00
   -8   24   13     -0.52      0.00
   -7   24   13     -0.48      0.00
   -6   24   13     -0.12      0.00
   -5   24   13      1.33      0.00
   -4   24   13     -3.21      0.00
   -3   24   13      2.29      0.00
   -2   24   13      5.75      0.00
   -1   24   13     -2.72      0.00
    0   24   13     -2.44      0.00
    1   24   13      1.24      0.00
    2   24   13     -0.32      0.00
    3   24   13     -2.14      0.00
  -12   25   13      0.09      0.00
  -11   25   13     -0.16      0.00
  -10   25   13     -0.54      0.00
   -9   25   13      0.46      0.00
   -8   25   13      0.82      0.00
   -7   25   13     -1.54      0.00
   -6   25   13     -1.00      0.00
   -5   25   13      0.72      0.00
   -4   25   13      3.09      0.00
   -3   25   13     -0.81      0.00
   -2   25   13     -2.13      0.00
   -1   25   13      1.07      0.00
    0   25   13     -1.80      0.00
    1   25   13     -0.53      0.00
  -11   26   13      0.51      0.00
  -10   26   13      2.75      0.00
   -9   26   13     -0.73      0.00
   -8   26   13     -0.79      0.00
   -7   26   13      1.14      0.00
   -6   26   13     -0.82      0.00
   -5   26   13     -0.08      0.00
   -4   26   13     -0.45      0.00
   -3   26   13     -1.47      0.00
   -2   26   13     -0.03      0.00
   -1   26   13      0.11      0.00
    0   26   13      0.49      0.00
   -8   27   13      0.31      0.00
   -7   27   13     -1.54      0.00
   -6   27   13     -0.14      0.00
   -5   27   13      0.30      0.00
   -4   27   13     -2.06      0.00
   -3   27   13      0.67      0.00
  -22    0   14      1.44      0.00
  -20    0   14     -2.68      0.00
  -18    0   14      2.39      0.00
  -16    0   14      4.17      0.00
  -14    0   14      4.79      0.00
  -12    0   14      1.77      0.00
  -10    0   14     -6.01      0.00
   -8    0   14      2.27      0.00
   -6    0   14      4.23      0.00
   -4    0   14      9.30      0.00
   -2    0   14     -4.80      0.00
    0    0   14     -2.04      0.00
    2    0   14      6.67      0.00
    4    0   14     -2.79      0.00
    6    0   14     -1.31      0.00
    8    0   14      5.15      0.00
   10    0   14      0.27      0.00
  -23    1   14     -0.07      0.00
  -22    1   14     -0.18      0.00
  -21    1   14     -0.55      0.00
  -20    1   14     -0.70      0.00
  -19    1   14     -0.61      0.00
  -18    1   14      0.53      0.00
  -17    1   14      6.19      0.00
  -16    1   14      8.34      0.00
  -15    1   14      0.97      0.00
  -14    1   14      1.34      0.00
  -13    1   14      3.13      0.00
  -12    1   14     -5.02      0.00
  -11    1   14     -0.68      0.00
  -10    1   14      0.47      0.00
   -9    1   14      1.42      0.00
   -8    1   14     -2.67      0.00
   -7    1   14     -1.95      0.00
   -6    1   14     -0.42      0.00
   -5    1   14      8.91      0.00
   -4    1   14     -3.40      0.00
   -3    1   14      1.49      0.00
   -2    1   14      5.68      0.00
   -1    1   14     -2.01      0.00
    0    1   14      1.46      0.00
    1    1   14     -1.83      0.00
    2    1   14     -4.47      0.00
    3    1   14      6.20      0.00
    4    1   14      1.99      0.00
    5    1   14     -5.09      0.00
    6    1   14     -1.74      0.00
    7    1   14      4.81      0.00
    8    1   14      2.91      0.00
    9    1   14      1.58      0.00
   10    1   14     -1.95      0.00
   11    1   14     -2.24      0.00
  -23    2   14      1.30      0.00
  -22    2   14     -1.48      0.00
  -21    2   14      0.54      0.00
  -20    2   14     -1.59      0.00
  -19    2   14      0.03      0.00
  -18    2   14      4.54      0.00
  -17    2   14      5.03      0.00
  -16    2   14      3.97      0.00
  -15    2   14      7.69      0.00
  -14    2   14     -4.41      0.00
  -13    2   14      0.37      0.00
  -12    2   14      7.52      0.00
  -11    2   14     -0.16      0.00
  -10    2   14      1.76      0.00
   -9    2   14     -5.20      0.00
   -8    2   14     -0.52      0.00
   -7    2   14     -5.46      0.00
   -6    2   14     -1.15      0.00
   -5    2   14      0.31      0.00
   -4    2   14      5.65      0.00
   -3    2   14      3.35      0.00
   -2    2   14      2.56      0.00
   -1    2   14      5.75      0.00
    0    2   14     -7.34      0.00
    1    2   14     -4.71      0.00
    2    2   14      5.08      0.00
    3    2   14      2.54      0.00
    4    2   14     -0.45      0.00
    5    2   14     -0.14      0.00
    6    2   14      1.86      0.00
    7    2   14     -2.05      0.00
    8    2   14      0.94      0.00
    9    2   14      0.73      0.00
   10    2   14     -2.20      0.00
   11    2   14      0.36      0.00
  -23    3   14     -0.01      0.00
  -22    3   14      1.31      0.00
  -21    3   14     -3.82      0.00
  -20    3   14      1.47      0.00
  -19    3   14      2.12      0.00
  -18    3   14      2.82      0.00
  -17    3   14      1.12      0.00
  -16    3   14      5.20      0.00
  -15    3   14      2.32      0.00
  -14    3   14      5.77      0.00
  -13    3   14      0.71      0.00
  -12    3   14      7.79      0.00
  -11    3   14      7.09      0.00
  -10    3   14     -6.45      0.00
   -9    3   14     -2.90      0.00
   -8    3   14     -4.46      0.00
   -7    3   14     -0.58      0.00
   -6    3   14     -8.66      0.00
   -5    3   14      3.28      0.00
   -4    3   14     11.52      0.00
   -3    3   14     -1.53      0.00
   -2    3   14      1.04      0.00
   -1    3   14     -0.28      0.00
    0    3   14      3.25      0.00
    1    3   14      0.31      0.00
    2    3   14     -2.08      0.00
    3    3   14      1.91      0.00
    4    3   14      5.89      0.00
    5    3   14     -1.92      0.00
    6    3   14     -4.81      0.00
    7    3   14      1.04      0.00
    8    3   14     -3.08      0.00
    9    3   14     -0.79      0.00
   10    3   14      5.16      0.00
   11    3   14     -0.28      0.00
  -23    4   14     -0.39      0.00
  -22    4   14     -0.49      0.00
  -21    4   14      1.67      0.00
  -20    4   14     -0.25      0.00
  -19    4   14      1.38      0.00
  -18    4   14     -2.49      0.00
  -17    4   14      5.37      0.00
  -16    4   14     -1.12      0.00
  -15    4   14      7.91      0.00
  -14    4   14      8.61      0.00
  -13    4   14      3.32      0.00
  -12    4   14     -1.77      0.00
  -11    4   14      6.93      0.00
  -10    4   14      1.52      0.00
   -9    4   14     -6.11      0.00
   -8    4   14     -4.63      0.00
   -7    4   14     -1.77      0.00
   -6    4   14      3.12      0.00
   -5    4   14     -3.89      0.00
   -4    4   14      0.60      0.00
   -3    4   14      9.30      0.00
   -2    4   14     -7.89      0.00
   -1    4   14      7.45      0.00
    0    4   14      8.33      0.00
    1    4   14     -2.74      0.00
    2    4   14     -2.26      0.00
    3    4   14      3.77      0.00
    4    4   14     -0.70      0.00
    5    4   14     -0.73      0.00
    6    4   14     -1.93      0.00
    7    4   14     -2.94      0.00
    8    4   14     -0.66      0.00
    9    4   14      2.62      0.00
   10    4   14      1.02      0.00
   11    4   14      1.42      0.00
  -22    5   14      0.02      0.00
  -21    5   14      1.14      0.00
  -20    5   14     -0.09      0.00
  -19    5   14     -1.20      0.00
  -18    5   14      2.33      0.00
  -17    5   14     -3.90      0.00
  -16    5   14     10.43      0.00
  -15    5   14      1.26      0.00
  -14    5   14      4.17      0.00
  -13    5   14      1.55      0.00
  -12    5   14      0.79      0.00
  -11    5   14     -0.77      0.00
  -10    5   14      7.51      0.00
   -9    5   14     -1.00      0.00
   -8    5   14     -0.13      0.00
   -7    5   14     -2.90      0.00
   -6    5   14     -1.70      0.00
   -5    5   14     -1.77      0.00
   -4    5   14     -1.22      0.00
   -3    5   14     -1.52      0.00
   -2    5   14     11.37      0.00
   -1    5   14      0.48      0.00
    0    5   14      6.69      0.00
    1    5   14      2.61      0.00
    2    5   14     -5.91      0.00
    3    5   14     -4.74      0.00
    4    5   14      6.87      0.00
    5    5   14      1.71      0.00
    6    5   14     -5.46      0.00
    7    5   14     -1.39      0.00
    8    5   14      3.47      0.00
    9    5   14     -1.55      0.00
   10    5   14      1.64      0.00
   11    5   14     -0.21      0.00
  -22    6   14     -0.58      0.00
  -21    6   14      0.40      0.00
  -20    6   14      0.95      0.00
  -19    6   14      0.04      0.00
  -18    6   14     -2.01      0.00
  -17    6   14      4.73      0.00
  -16    6   14     -3.29      0.00
  -15    6   14      5.22      0.00
  -14    6   14     -4.42      0.00
  -13    6   14      2.90      0.00
  -12    6   14      0.56      0.00
  -11    6   14      6.59      0.00
  -10    6   14      0.06      0.00
   -9    6   14      6.40      0.00
   -8    6   14      0.56      0.00
   -7    6   14     -2.20      0.00
   -6    6   14     -9.02      0.00
   -5    6   14     -0.94      0.00
   -4    6   14     -1.11      0.00
   -3    6   14      8.42      0.00
   -2    6   14      3.06      0.00
   -1    6   14      4.82      0.00
    0    6   14     -1.43      0.00
    1    6   14      0.15      0.00
    2    6   14     -2.72      0.00
    3    6   14      2.31      0.00
    4    6   14     -0.32      0.00
    5    6   14      1.35      0.00
    6    6   14      2.08      0.00
    7    6   14     -1.10      0.00
    8    6   14     -3.13      0.00
    9    6   14      1.52      0.00
   10    6   14     -1.32      0.00
   11    6   14     -0.23      0.00
  -22    7   14      1.88      0.00
  -21    7   14     -0.88      0.00
  -20    7   14     -1.42      0.00
  -19    7   14     -0.10      0.00
  -18    7   14      4.17      0.00
  -17    7   14     -4.90      0.00
  -16    7   14     -3.00      0.00
  -15    7   14     -3.02      0.00
  -14    7   14      8.46      0.00
  -13    7   14     -3.93      0.00
  -12    7   14      3.82      0.00
  -11    7   14     -3.74      0.00
  -10    7   14      7.91      0.00
   -9    7   14      1.41      0.00
   -8    7   14     -0.25      0.00
   -7    7   14     -0.56      0.00
   -6    7   14     -5.17      0.00
   -5    7   14     -7.03      0.00
   -4    7   14     11.99      0.00
   -3    7   14      2.41      0.00
   -2    7   14     -0.41      0.00
   -1    7   14     -3.44      0.00
    0    7   14     -0.80      0.00
    1    7   14      2.95      0.00
    2    7   14      4.32      0.00
    3    7   14     -5.09      0.00
    4    7   14      2.11      0.00
    5    7   14      3.71      0.00
    6    7   14     -0.32      0.00
    7    7   14     -2.04      0.00
    8    7   14     -0.25      0.00
    9    7   14     -3.26      0.00
   10    7   14     -0.12      0.00
  -22    8   14     -1.33      0.00
  -21    8   14     -0.43      0.00
  -20    8   14      0.01      0.00
  -19    8   14      2.35      0.00
  -18    8   14     -3.81      0.00
  -17    8   14     -0.73      0.00
  -16    8   14     -5.66      0.00
  -15    8   14      1.34      0.00
  -14    8   14      3.41      0.00
  -13    8   14      4.98      0.00
  -12    8   14    -13.96      0.00
  -11    8   14      3.89      0.00
  -10    8   14      0.78      0.00
   -9    8   14      4.29      0.00
   -8    8   14     -0.22      0.00
   -7    8   14     -2.88      0.00
   -6    8   14      5.14      0.00
   -5    8   14     -0.41      0.00
   -4    8   14     -4.49      0.00
   -3    8   14      7.25      0.00
   -2    8   14     -6.05      0.00
   -1    8   14     -6.14      0.00
    0    8   14      5.72      0.00
    1    8   14      4.35      0.00
    2    8   14     -0.81      0.00
    3    8   14      0.81      0.00
    4    8   14     -0.26      0.00
    5    8   14     -0.62      0.00
    6    8   14     -2.25      0.00
    7    8   14      2.22      0.00
    8    8   14     -0.46      0.00
    9    8   14     -0.73      0.00
   10    8   14      0.53      0.00
  -22    9   14     -0.73      0.00
  -21    9   14      0.45      0.00
  -20    9   14      1.49      0.00
  -19    9   14     -2.71      0.00
  -18    9   14     -1.98      0.00
  -17    9   14     -2.69      0.00
  -16    9   14      4.82      0.00
  -15    9   14     -2.42      0.00
  -14    9   14     -0.92      0.00
  -13    9   14     -3.12      0.00
  -12    9   14      0.42      0.00
  -11    9   14     -9.16      0.00
  -10    9   14      3.24      0.00
   -9    9   14      5.10      0.00
   -8    9   14      3.60      0.00
   -7    9   14      0.66      0.00
   -6    9   14     -1.19      0.00
   -5    9   14      4.25      0.00
   -4    9   14     -6.01      0.00
   -3    9   14     -5.01      0.00
   -2    9   14      3.89      0.00
   -1    9   14     -0.78      0.00
    0    9   14     -1.26      0.00
    1    9   14      5.94      0.00
    2    9   14      1.20      0.00
    3    9   14     -4.38      0.00
    4    9   14     -4.19      0.00
    5    9   14      3.43      0.00
    6    9   14      1.61      0.00
    7    9   14     -3.71      0.00
    8    9   14      4.55      0.00
    9    9   14      1.15      0.00
   10    9   14     -3.52      0.00
  -21   10   14      1.22      0.00
  -20   10   14     -0.93      0.00
  -19   10   14     -1.55      0.00
  -18   10   14     -0.94      0.00
  -17   10   14      2.58      0.00
  -16   10   14      0.56      0.00
  -15   10   14     -0.55      0.00
  -14   10   14     -6.94      0.00
  -13   10   14      0.28      0.00
  -12   10   14     -0.73      0.00
  -11   10   14     -0.72      0.00
  -10   10   14      2.06      0.00
   -9   10   14      0.94      0.00
   -8   10   14      4.13      0.00
   -7   10   14      3.59      0.00
   -6   10   14     -2.07      0.00
   -5   10   14     -5.28      0.00
   -4   10   14     -0.08      0.00
   -3   10   14     -2.22      0.00
   -2   10   14      6.62      0.00
   -1   10   14      1.17      0.00
    0   10   14     -3.08      0.00
    1   10   14     -2.80      0.00
    2   10   14      1.47      0.00
    3   10   14     -0.54      0.00
    4   10   14     -0.98      0.00
    5   10   14     -2.48      0.00
    6   10   14      3.33      0.00
    7   10   14      2.12      0.00
    8   10   14     -2.72      0.00
    9   10   14      0.91      0.00
   10   10   14     -0.04      0.00
  -21   11   14     -0.68      0.00
  -20   11   14     -0.37      0.00
  -19   11   14     -0.87      0.00
  -18   11   14      2.31      0.00
  -17   11   14      1.80      0.00
  -16   11   14     -4.03      0.00
  -15   11   14     -3.98      0.00
  -14   11   14      0.24      0.00
  -13   11   14      2.07      0.00
  -12   11   14      5.74      0.00
  -11   11   14      1.82      0.00
  -10   11   14     -8.80      0.00
   -9   11   14      3.98      0.00
   -8   11   14      3.32      0.00
   -7   11   14      2.72      0.00
   -6   11   14     -1.40      0.00
   -5   11   14     -4.76      0.00
   -4   11   14      2.87      0.00
   -3   11   14      6.92      0.00
   -2   11   14     -3.40      0.00
   -1   11   14      2.79      0.00
    0   11   14     -6.31      0.00
    1   11   14     -1.82      0.00
    2   11   14      2.44      0.00
    3   11   14      0.21      0.00
    4   11   14     -3.13      0.00
    5   11   14      1.60      0.00
    6   11   14      1.86      0.00
    7   11   14      0.26      0.00
    8   11   14     -2.02      0.00
    9   11   14     -0.54      0.00
   10   11   14      1.23      0.00
  -21   12   14      0.02      0.00
  -20   12   14     -0.48      0.00
  -19   12   14      1.79      0.00
  -18   12   14     -0.58      0.00
  -17   12   14     -1.42      0.00
  -16   12   14     -0.96      0.00
  -15   12   14     -4.48      0.00
  -14   12   14      5.69      0.00
  -13   12   14      7.52      0.00
  -12   12   14      0.69      0.00
  -11   12   14     -5.67      0.00
  -10   12   14      2.10      0.00
   -9   12   14     -1.45      0.00
   -8   12   14      4.02      0.00
   -7   12   14      1.41      0.00
   -6   12   14      4.44      0.00
   -5   12   14      4.05      0.00
   -4   12   14     -3.71      0.00
   -3   12   14     -0.48      0.00
   -2   12   14      3.09      0.00
   -1   12   14     -5.00      0.00
    0   12   14      4.20      0.00
    1   12   14     -4.14      0.00
    2   12   14     -1.24      0.00
    3   12   14      1.78      0.00
    4   12   14      3.39      0.00
    5   12   14      0.64      0.00
    6   12   14     -3.32      0.00
    7   12   14     -1.77      0.00
    8   12   14      1.31      0.00
    9   12   14      0.42      0.00
  -20   13   14      1.44      0.00
  -19   13   14     -0.23      0.00
  -18   13   14     -1.05      0.00
  -17   13   14     -2.65      0.00
  -16   13   14      1.55      0.00
  -15   13   14      4.90      0.00
  -14   13   14     -2.42      0.00
  -13   13   14      2.76      0.00
  -12   13   14      0.68      0.00
  -11   13   14      2.71      0.00
  -10   13   14     -1.63      0.00
   -9   13   14     -0.58      0.00
   -8   13   14      5.19      0.00
   -7   13   14      7.94      0.00
   -6   13   14      3.32      0.00
   -5   13   14     -0.95      0.00
   -4   13   14     -3.82      0.00
   -3   13   14     -2.59      0.00
   -2   13   14      2.76      0.00
   -1   13   14      3.90      0.00
    0   13   14     -4.35      0.00
    1   13   14      3.19      0.00
    2   13   14      0.12      0.00
    3   13   14      2.22      0.00
    4   13   14     -1.69      0.00
    5   13   14     -0.54      0.00
    6   13   14      0.61      0.00
    7   13   14     -1.72      0.00
    8   13   14      1.73      0.00
    9   13   14      2.99      0.00
  -20   14   14      0.93      0.00
  -19   14   14      0.07      0.00
  -18   14   14     -1.54      0.00
  -17   14   14      1.42      0.00
  -16   14   14      1.70      0.00
  -15   14   14     -0.16      0.00
  -14   14   14     -2.07      0.00
  -13   14   14     -3.19      0.00
  -12   14   14      6.52      0.00
  -11   14   14      1.90      0.00
  -10   14   14      0.64      0.00
   -9   14   14      4.50      0.00
   -8   14   14      1.40      0.00
   -7   14   14      6.11      0.00
   -6   14   14      1.36      0.00
   -5   14   14     -0.66      0.00
   -4   14   14     -3.31      0.00
   -3   14   14     -3.85      0.00
   -2   14   14      4.72      0.00
   -1   14   14      2.68      0.00
    0   14   14      2.47      0.00
    1   14   14      0.38      0.00
    2   14   14     -0.45      0.00
    3   14   14     -2.06      0.00
    4   14   14      2.56      0.00
    5   14   14     -1.45      0.00
    6   14   14      1.69      0.00
    7   14   14      2.82      0.00
    8   14   14     -0.34      0.00
  -20   15   14      1.18      0.00
  -19   15   14     -0.76      0.00
  -18   15   14      1.68      0.00
  -17   15   14      0.43      0.00
  -16   15   14     -2.69      0.00
  -15   15   14     -2.12      0.00
  -14   15   14     -1.83      0.00
  -13   15   14     -1.08      0.00
  -12   15   14      3.11      0.00
  -11   15   14      7.20      0.00
  -10   15   14      3.08      0.00
   -9   15   14     -3.55      0.00
   -8   15   14      2.92      0.00
   -7   15   14      0.91      0.00
   -6   15   14      3.88      0.00
   -5   15   14     -2.80      0.00
   -4   15   14      0.21      0.00
   -3   15   14      2.04      0.00
   -2   15   14     -3.12      0.00
   -1   15   14      5.73      0.00
    0   15   14     -0.62      0.00
    1   15   14     -3.07      0.00
    2   15   14      4.23      0.00
    3   15   14      1.84      0.00
    4   15   14     -3.65      0.00
    5   15   14      1.32      0.00
    6   15   14      2.26      0.00
    7   15   14      3.46      0.00
    8   15   14      0.30      0.00
  -19   16   14      2.13      0.00
  -18   16   14     -2.66      0.00
  -17   16   14     -1.30      0.00
  -16   16   14      0.82      0.00
  -15   16   14     -3.74      0.00
  -14   16   14     -1.46      0.00
  -13   16   14      2.48      0.00
  -12   16   14      0.90      0.00
  -11   16   14      2.52      0.00
  -10   16   14     -1.07      0.00
   -9   16   14      1.19      0.00
   -8   16   14     -2.20      0.00
   -7   16   14      2.06      0.00
   -6   16   14      1.13      0.00
   -5   16   14      4.39      0.00
   -4   16   14      0.74      0.00
   -3   16   14     -1.73      0.00
   -2   16   14     -2.03      0.00
   -1   16   14     -6.09      0.00
    0   16   14      5.83      0.00
    1   16   14      3.86      0.00
    2   16   14     -2.51      0.00
    3   16   14     -1.67      0.00
    4   16   14      0.86      0.00
    5   16   14      3.19      0.00
    6   16   14      3.31      0.00
    7   16   14     -0.59      0.00
    8   16   14      1.65      0.00
  -19   17   14     -2.56      0.00
  -18   17   14      0.35      0.00
  -17   17   14     -1.42      0.00
  -16   17   14     -0.55      0.00
  -15   17   14      2.26      0.00
  -14   17   14     -0.49      0.00
  -13   17   14     -2.44      0.00
  -12   17   14     -2.62      0.00
  -11   17   14     -2.01      0.00
  -10   17   14      5.44      0.00
   -9   17   14     -2.41      0.00
   -8   17   14     -2.31      0.00
   -7   17   14      0.24      0.00
   -6   17   14      6.40      0.00
   -5   17   14      3.37      0.00
   -4   17   14     -3.69      0.00
   -3   17   14     -4.98      0.00
   -2   17   14     -1.76      0.00
   -1   17   14      2.62      0.00
    0   17   14     -0.95      0.00
    1   17   14     -1.59      0.00
    2   17   14     -1.82      0.00
    3   17   14      3.57      0.00
    4   17   14      1.27      0.00
    5   17   14      0.29      0.00
    6   17   14      0.72      0.00
    7   17   14      0.93      0.00
  -18   18   14     -0.44      0.00
  -17   18   14     -0.93      0.00
  -16   18   14      2.40      0.00
  -15   18   14      2.50      0.00
  -14   18   14     -3.41      0.00
  -13   18   14     -3.78      0.00
  -12   18   14     -0.33      0.00
  -11   18   14      0.17      0.00
  -10   18   14     -2.23      0.00
   -9   18   14      1.25      0.00
   -8   18   14     -0.57      0.00
   -7   18   14      0.51      0.00
   -6   18   14     -0.24      0.00
   -5   18   14      2.14      0.00
   -4   18   14     -0.43      0.00
   -3   18   14     -5.37      0.00
   -2   18   14      0.91      0.00
   -1   18   14      0.24      0.00
    0   18   14     -6.21      0.00
    1   18   14     -0.03      0.00
    2   18   14      4.10      0.00
    3   18   14     -2.43      0.00
    4   18   14      0.16      0.00
    5   18   14     -0.29      0.00
    6   18   14      1.37      0.00
  -17   19   14      4.15      0.00
  -16   19   14     -0.41      0.00
  -15   19   14     -1.57      0.00
  -14   19   14      2.14      0.00
  -13   19   14     -1.20      0.00
  -12   19   14     -1.89      0.00
  -11   19   14     -1.37      0.00
  -10   19   14     -1.33      0.00
   -9   19   14     -0.16      0.00
   -8   19   14     -0.12      0.00
   -7   19   14     -1.82      0.00
   -6   19   14     -3.11      0.00
   -5   19   14     -0.90      0.00
   -4   19   14      4.24      0.00
   -3   19   14      1.76      0.00
   -2   19   14     -5.83      0.00
   -1   19   14     -1.79      0.00
    0   19   14      3.03      0.00
    1   19   14     -4.76      0.00
    2   19   14     -3.90      0.00
    3   19   14      3.53      0.00
    4   19   14      0.88      0.00
    5   19   14     -0.89      0.00
    6   19   14     -0.75      0.00
  -17   20   14     -1.98      0.00
  -16   20   14      2.52      0.00
  -15   20   14      2.09      0.00
  -14   20   14      0.57      0.00
  -13   20   14     -0.04      0.00
  -12   20   14     -3.17      0.00
  -11   20   14     -1.81      0.00
  -10   20   14     -1.01      0.00
   -9   20   14     -2.15      0.00
   -8   20   14     -2.37      0.00
   -7   20   14     -3.17      0.00
   -6   20   14      0.31      0.00
   -5   20   14      2.10      0.00
   -4   20   14      2.32      0.00
   -3   20   14      0.93      0.00
   -2   20   14     -1.45      0.00
   -1   20   14     -2.03      0.00
    0   20   14     -1.45      0.00
    1   20   14     -0.64      0.00
    2   20   14     -1.06      0.00
    3   20   14     -0.66      0.00
    4   20   14      0.53      0.00
    5   20   14     -0.93      0.00
  -16   21   14      0.72      0.00
  -15   21   14      0.80      0.00
  -14   21   14     -0.23      0.00
  -13   21   14      0.65      0.00
  -12   21   14     -2.43      0.00
  -11   21   14     -5.01      0.00
  -10   21   14     -1.16      0.00
   -9   21   14      0.41      0.00
   -8   21   14     -2.50      0.00
   -7   21   14     -2.16      0.00
   -6   21   14      1.64      0.00
   -5   21   14      2.95      0.00
   -4   21   14     -0.18      0.00
   -3   21   14     -0.19      0.00
   -2   21   14      0.62      0.00
   -1   21   14     -1.15      0.00
    0   21   14      1.70      0.00
    1   21   14      0.86      0.00
    2   21   14     -4.82      0.00
    3   21   14     -2.03      0.00
    4   21   14      0.33      0.00
  -15   22   14      1.65      0.00
  -14   22   14     -1.35      0.00
  -13   22   14     -3.56      0.00
  -12   22   14      0.33      0.00
  -11   22   14     -1.53      0.00
  -10   22   14     -1.01      0.00
   -9   22   14     -0.55      0.00
   -8   22   14     -0.55      0.00
   -7   22   14     -0.16      0.00
   -6   22   14     -1.58      0.00
   -5   22   14      0.91      0.00
   -4   22   14      2.68      0.00
   -3   22   14     -1.38      0.00
   -2   22   14     -0.30      0.00
   -1   22   14      4.16      0.00
    0   22   14     -0.73      0.00
    1   22   14     -3.64      0.00
    2   22   14     -0.07      0.00
    3   22   14     -0.84      0.00
  -14   23   14     -1.05      0.00
  -13   23   14     -0.80      0.00
  -12   23   14     -0.40      0.00
  -11   23   14      1.81      0.00
  -10   23   14     -1.64      0.00
   -9   23   14     -1.14      0.00
   -8   23   14     -0.93      0.00
   -7   23   14      1.34      0.00
   -6   23   14     -0.23      0.00
   -5   23   14     -3.27      0.00
   -4   23   14      0.63      0.00
   -3   23   14      3.99      0.00
   -2   23   14      0.53      0.00
   -1   23   14     -1.59      0.00
    0   23   14     -0.14      0.00
    1   23   14      1.44      0.00
    2   23   14     -2.11      0.00
  -13   24   14     -0.63      0.00
  -12   24   14     -0.53      0.00
  -11   24   14     -0.28      0.00
  -10   24   14      0.39      0.00
   -9   24   14     -0.17      0.00
   -8   24   14     -0.01      0.00
   -7   24   14     -1.01      0.00
   -6   24   14      0.63      0.00
   -5   24   14     -1.39      0.00
   -4   24   14      1.14      0.00
   -3   24   14      3.12      0.00
   -2   24   14     -1.97      0.00
   -1   24   14     -3.28      0.00
    0   24   14      2.30      0.00
    1   24   14      0.41      0.00
  -11   25   14      0.67      0.00
  -10   25   14      0.43      0.00
   -9   25   14      1.02      0.00
   -8   25   14      0.28      0.00
   -7   25   14     -0.82      0.00
   -6   25   14     -0.23      0.00
   -5   25   14      2.33      0.00
   -4   25   14     -2.00      0.00
   -3   25   14     -2.40      0.00
   -2   25   14      1.57      0.00
   -1   25   14      0.32      0.00
    0   25   14     -1.47      0.00
   -9   26   14      0.07      0.00
   -8   26   14      1.39      0.00
   -7   26   14     -0.62      0.00
   -6   26   14     -0.45      0.00
   -5   26   14     -1.23      0.00
   -4   26   14     -0.16      0.00
   -3   26   14      0.75      0.00
  -23    0   15      2.10      0.00
  -21    0   15     -0.19      0.00
  -19    0   15      1.30      0.00
  -17    0   15      9.35      0.00
  -15    0   15      7.68      0.00
  -13    0   15      3.38      0.00
  -11    0   15     -1.22      0.00
   -9    0   15     -3.63      0.00
   -7    0   15     -0.08      0.00
   -5    0   15      5.37      0.00
   -3    0   15      0.78      0.00
   -1    0   15      5.00      0.00
    1    0   15      1.45      0.00
    3    0   15     -1.36      0.00
    5    0   15     -2.21      0.00
    7    0   15      3.91      0.00
    9    0   15      0.30      0.00
  -23    1   15     -1.40      0.00
  -22    1   15      2.48      0.00
  -21    1   15      0.80      0.00
  -20    1   15     -0.36      0.00
  -19    1   15      0.39      0.00
  -18    1   15      5.52      0.00
  -17    1   15      3.97      0.00
  -16    1   15      6.22      0.00
  -15    1   15     -1.83      0.00
  -14    1   15      5.66      0.00
  -13    1   15     -1.31      0.00
  -12    1   15      5.01      0.00
  -11    1   15      5.68      0.00
  -10    1   15     -2.26      0.00
   -9    1   15     -3.41      0.00
   -8    1   15     -6.04      0.00
   -7    1   15     -3.10      0.00
   -6    1   15      6.44      0.00
   -5    1   15     -3.16      0.00
   -4    1   15      1.57      0.00
   -3    1   15      4.13      0.00
   -2    1   15      4.89      0.00
   -1    1   15      0.76      0.00
    0    1   15     -1.71      0.00
    1    1   15     -3.68      0.00
    2    1   15      5.99      0.00
    3    1   15      3.43      0.00
    4    1   15     -5.17      0.00
    5    1   15     -0.55      0.00
    6    1   15      1.98      0.00
    7    1   15      0.36      0.00
    8    1   15      1.34      0.00
    9    1   15     -1.89      0.00
   10    1   15     -1.69      0.00
  -22    2   15     -0.60      0.00
  -21    2   15      1.21      0.00
  -20    2   15      1.95      0.00
  -19    2   15      3.09      0.00
  -18    2   15     -0.40      0.00
  -17    2   15      3.05      0.00
  -16    2   15      4.57      0.00
  -15    2   15      1.74      0.00
  -14    2   15     -0.26      0.00
  -13    2   15     12.52      0.00
  -12    2   15      3.77      0.00
  -11    2   15      1.58      0.00
  -10    2   15     -0.64      0.00
   -9    2   15     -3.75      0.00
   -8    2   15     -5.29      0.00
   -7    2   15     -2.52      0.00
   -6    2   15     -2.59      0.00
   -5    2   15      8.12      0.00
   -4    2   15     -0.22      0.00
   -3    2   15      1.07      0.00
   -2    2   15      3.37      0.00
   -1    2   15     -1.51      0.00
    0    2   15     -0.05      0.00
    1    2   15      4.85      0.00
    2    2   15      1.11      0.00
    3    2   15      0.69      0.00
    4    2   15      0.99      0.00
    5    2   15     -1.52      0.00
    6    2   15     -2.80      0.00
    7    2   15     -1.42      0.00
    8    2   15     -0.24      0.00
    9    2   15      1.03      0.00
   10    2   15      1.65      0.00
  -22    3   15     -0.60      0.00
  -21    3   15      2.76      0.00
  -20    3   15      3.10      0.00
  -19    3   15     -0.70      0.00
  -18    3   15      1.02      0.00
  -17    3   15      0.04      0.00
  -16    3   15      2.70      0.00
  -15    3   15      7.11      0.00
  -14    3   15      3.69      0.00
  -13    3   15      2.14      0.00
  -12    3   15      9.66      0.00
  -11    3   15     -0.68      0.00
  -10    3   15     -0.79      0.00
   -9    3   15     -1.30      0.00
   -8    3   15      0.24      0.00
   -7    3   15     -7.12      0.00
   -6    3   15      1.38      0.00
   -5    3   15      5.18      0.00
   -4    3   15      0.53      0.00
   -3    3   15     -5.38      0.00
   -2    3   15      2.24      0.00
   -1    3   15      9.65      0.00
    0    3   15      1.12      0.00
    1    3   15     -2.53      0.00
    2    3   15      1.69      0.00
    3    3   15      5.00      0.00
    4    3   15     -2.47      0.00
    5    3   15     -4.79      0.00
    6    3   15      0.15      0.00
    7    3   15     -2.69      0.00
    8    3   15     -0.09      0.00
    9    3   15      5.70      0.00
   10    3   15      0.90      0.00
  -22    4   15      2.75      0.00
  -21    4   15      0.41      0.00
  -20    4   15      1.47      0.00
  -19    4   15     -0.64      0.00
  -18    4   15      0.63      0.00
  -17    4   15      0.57      0.00
  -16    4   15      2.72      0.00
  -15    4   15      6.17      0.00
  -14    4   15      1.17      0.00
  -13    4   15     -2.94      0.00
  -12    4   15      4.42      0.00
  -11    4   15      8.37      0.00
  -10    4   15      0.00      0.00
   -9    4   15      1.11      0.00
   -8    4   15     -1.94      0.00
   -7    4   15      2.87      0.00
   -6    4   15     -6.13      0.00
   -5    4   15     -2.13      0.00
   -4    4   15      5.98      0.00
   -3    4   15     -2.88      0.00
   -2    4   15      3.42      0.00
   -1    4   15      7.60      0.00
    0    4   15      1.52      0.00
    1    4   15     -3.66      0.00
    2    4   15      1.63      0.00
    3    4   15     -0.30      0.00
    4    4   15      1.82      0.00
    5    4   15     -1.58      0.00
    6    4   15     -2.77      0.00
    7    4   15      1.14      0.00
    8    4   15      1.17      0.00
    9    4   15      0.54      0.00
   10    4   15      2.20      0.00
  -22    5   15      0.97      0.00
  -21    5   15      1.48      0.00
  -20    5   15      0.04      0.00
  -19    5   15      2.69      0.00
  -18    5   15     -3.61      0.00
  -17    5   15      3.54      0.00
  -16    5   15     -0.06      0.00
  -15    5   15     -2.87      0.00
  -14    5   15      0.98      0.00
  -13    5   15      0.05      0.00
  -12    5   15      0.30      0.00
  -11    5   15      8.64      0.00
  -10    5   15      5.63      0.00
   -9    5   15      1.95      0.00
   -8    5   15      0.03      0.00
   -7    5   15     -5.61      0.00
   -6    5   15     -0.59      0.00
   -5    5   15     -1.35      0.00
   -4    5   15      0.08      0.00
   -3    5   15      9.24      0.00
   -2    5   15     -2.99      0.00
   -1    5   15      2.87      0.00
    0    5   15      2.92      0.00
    1    5   15     -4.37      0.00
    2    5   15     -4.27      0.00
    3    5   15      8.41      0.00
    4    5   15      2.13      0.00
    5    5   15     -3.26      0.00
    6    5   15     -0.73      0.00
    7    5   15      1.88      0.00
    8    5   15     -1.45      0.00
    9    5   15      0.84      0.00
   10    5   15     -0.01      0.00
  -22    6   15      0.06      0.00
  -21    6   15      1.18      0.00
  -20    6   15      0.51      0.00
  -19    6   15     -1.36      0.00
  -18    6   15      3.22      0.00
  -17    6   15     -6.78      0.00
  -16    6   15     -0.52      0.00
  -15    6   15     -1.81      0.00
  -14    6   15     -0.50      0.00
  -13    6   15      1.56      0.00
  -12    6   15      2.47      0.00
  -11    6   15     -0.75      0.00
  -10    6   15      7.31      0.00
   -9    6   15      2.76      0.00
   -8    6   15     -0.42      0.00
   -7    6   15     -5.52      0.00
   -6    6   15     -2.08      0.00
   -5    6   15      3.87      0.00
   -4    6   15      6.70      0.00
   -3    6   15     -2.07      0.00
   -2    6   15      0.27      0.00
   -1    6   15     -6.70      0.00
    0    6   15      1.80      0.00
    1    6   15      2.70      0.00
    2    6   15      2.23      0.00
    3    6   15     -2.08      0.00
    4    6   15      3.35      0.00
    5    6   15      2.48      0.00
    6    6   15     -1.88      0.00
    7    6   15     -2.98      0.00
    8    6   15      1.67      0.00
    9    6   15     -1.25      0.00
   10    6   15      0.99      0.00
  -22    7   15     -0.44      0.00
  -21    7   15     -1.62      0.00
  -20    7   15      0.63      0.00
  -19    7   15      2.68      0.00
  -18    7   15     -4.98      0.00
  -17    7   15     -2.92      0.00
  -16    7   15     -3.28      0.00
  -15    7   15      6.12      0.00
  -14    7   15     -2.73      0.00
  -13    7   15     -3.74      0.00
  -12    7   15     -5.58      0.00
  -11    7   15      4.66      0.00
  -10    7   15      1.29      0.00
   -9    7   15      2.32      0.00
   -8    7   15      0.96      0.00
   -7    7   15      1.39      0.00
   -6    7   15     -3.87      0.00
   -5    7   15      7.31      0.00
   -4    7   15      1.85      0.00
   -3    7   15     -4.77      0.00
   -2    7   15     -8.64      0.00
   -1    7   15      2.27      0.00
    0    7   15      3.26      0.00
    1    7   15      4.36      0.00
    2    7   15     -4.65      0.00
    3    7   15      1.73      0.00
    4    7   15      2.48      0.00
    5    7   15     -0.98      0.00
    6    7   15     -0.67      0.00
    7    7   15      1.02      0.00
    8    7   15     -2.71      0.00
    9    7   15      1.53      0.00
  -22    8   15     -0.45      0.00
  -21    8   15      0.46      0.00
  -20    8   15      1.12      0.00
  -19    8   15     -3.92      0.00
  -18    8   15     -0.09      0.00
  -17    8   15     -1.06      0.00
  -16    8   15     -0.13      0.00
  -15    8   15     -1.12      0.00
  -14    8   15      2.35      0.00
  -13    8   15    -13.35      0.00
  -12    8   15     -0.43      0.00
  -11    8   15     -1.23      0.00
  -10    8   15      4.64      0.00
   -9    8   15      2.52      0.00
   -8    8   15      0.33      0.00
   -7    8   15      4.70      0.00
   -6    8   15      2.52      0.00
   -5    8   15     -8.10      0.00
   -4    8   15      3.47      0.00
   -3    8   15     -3.14      0.00
   -2    8   15     -4.23      0.00
   -1    8   15      2.32      0.00
    0    8   15      4.22      0.00
    1    8   15     -1.74      0.00
    2    8   15      0.50      0.00
    3    8   15     -3.31      0.00
    4    8   15      0.07      0.00
    5    8   15      0.60      0.00
    6    8   15      1.43      0.00
    7    8   15      0.89      0.00
    8    8   15      0.99      0.00
    9    8   15     -1.06      0.00
  -21    9   15      0.54      0.00
  -20    9   15     -3.40      0.00
  -19    9   15      0.08      0.00
  -18    9   15      0.05      0.00
  -17    9   15      3.37      0.00
  -16    9   15     -2.68      0.00
  -15    9   15     -4.29      0.00
  -14    9   15     -4.44      0.00
  -13    9   15      3.42      0.00
  -12    9   15     -9.91      0.00
  -11    9   15      3.99      0.00
  -10    9   15      2.59      0.00
   -9    9   15      2.85      0.00
   -8    9   15      2.91      0.00
   -7    9   15     -2.74      0.00
   -6    9   15      2.50      0.00
   -5    9   15     -3.44      0.00
   -4    9   15     -6.00      0.00
   -3    9   15      8.62      0.00
   -2    9   15     -0.18      0.00
   -1    9   15     -5.01      0.00
    0    9   15      2.73      0.00
    1    9   15      0.33      0.00
    2    9   15     -5.69      0.00
    3    9   15     -2.24      0.00
    4    9   15      3.27      0.00
    5    9   15      3.04      0.00
    6    9   15     -2.46      0.00
    7    9   15      2.38      0.00
    8    9   15      0.68      0.00
    9    9   15     -1.92      0.00
  -21   10   15     -0.89      0.00
  -20   10   15     -0.29      0.00
  -19   10   15     -0.50      0.00
  -18   10   15      2.09      0.00
  -17   10   15     -0.79      0.00
  -16   10   15     -1.61      0.00
  -15   10   15     -6.56      0.00
  -14   10   15      1.96      0.00
  -13   10   15      1.77      0.00
  -12   10   15      3.56      0.00
  -11   10   15     -5.13      0.00
  -10   10   15     -0.22      0.00
   -9   10   15      2.59      0.00
   -8   10   15      2.51      0.00
   -7   10   15      1.20      0.00
   -6   10   15     -7.87      0.00
   -5   10   15      2.89      0.00
   -4   10   15      2.98      0.00
   -3   10   15      2.69      0.00
   -2   10   15      2.91      0.00
   -1   10   15     -6.01      0.00
    0   10   15     -7.28      0.00
    1   10   15      2.20      0.00
    2   10   15      1.80      0.00
    3   10   15     -0.85      0.00
    4   10   15     -2.39      0.00
    5   10   15      3.25      0.00
    6   10   15      2.83      0.00
    7   10   15     -4.58      0.00
    8   10   15      0.69      0.00
    9   10   15      1.11      0.00
  -21   11   15     -0.31      0.00
  -20   11   15     -0.16      0.00
  -19   11   15      0.69      0.00
  -18   11   15      0.44      0.00
  -17   11   15     -3.30      0.00
  -16   11   15     -4.16      0.00
  -15   11   15      4.54      0.00
  -14   11   15      2.64      0.00
  -13   11   15      5.12      0.00
  -12   11   15     -1.65      0.00
  -11   11   15     -8.00      0.00
  -10   11   15      0.64      0.00
   -9   11   15      3.55      0.00
   -8   11   15      3.56      0.00
   -7   11   15     -1.00      0.00
   -6   11   15      0.93      0.00
   -5   11   15     -0.44      0.00
   -4   11   15      5.84      0.00
   -3   11   15     -2.24      0.00
   -2   11   15     -1.72      0.00
   -1   11   15     -3.84      0.00
    0   11   15     -1.62      0.00
    1   11   15      1.53      0.00
    2   11   15      0.79      0.00
    3   11   15     -2.64      0.00
    4   11   15      2.97      0.00
    5   11   15      0.17      0.00
    6   11   15     -0.95      0.00
    7   11   15      0.13      0.00
    8   11   15     -1.74      0.00
  -21   12   15     -0.16      0.00
  -20   12   15      0.73      0.00
  -19   12   15      0.01      0.00
  -18   12   15     -3.22      0.00
  -17   12   15      0.75      0.00
  -16   12   15      1.32      0.00
  -15   12   15      1.94      0.00
  -14   12   15      5.88      0.00
  -13   12   15     -2.92      0.00
  -12   12   15     -4.79      0.00
  -11   12   15      3.30      0.00
  -10   12   15     -3.52      0.00
   -9   12   15      5.21      0.00
   -8   12   15      2.96      0.00
   -7   12   15      5.57      0.00
   -6   12   15      1.82      0.00
   -5   12   15     -4.70      0.00
   -4   12   15     -3.55      0.00
   -3   12   15      3.72      0.00
   -2   12   15     -2.90      0.00
   -1   12   15      3.37      0.00
    0   12   15     -2.21      0.00
    1   12   15     -2.20      0.00
    2   12   15      2.49      0.00
    3   12   15      2.67      0.00
    4   12   15     -2.26      0.00
    5   12   15     -1.12      0.00
    6   12   15     -0.68      0.00
    7   12   15      1.40      0.00
    8   12   15      1.76      0.00
  -20   13   15      0.29      0.00
  -19   13   15     -2.06      0.00
  -18   13   15      0.20      0.00
  -17   13   15      2.95      0.00
  -16   13   15      3.01      0.00
  -15   13   15     -3.15      0.00
  -14   13   15     -2.51      0.00
  -13   13   15      1.96      0.00
  -12   13   15      2.24      0.00
  -11   13   15     -2.51      0.00
  -10   13   15      3.40      0.00
   -9   13   15      0.54      0.00
   -8   13   15      8.73      0.00
   -7   13   15      0.85      0.00
   -6   13   15     -2.31      0.00
   -5   13   15     -2.55      0.00
   -4   13   15     -3.92      0.00
   -3   13   15      3.02      0.00
   -2   13   15      5.12      0.00
   -1   13   15     -5.03      0.00
    0   13   15      3.42      0.00
    1   13   15      1.00      0.00
    2   13   15     -0.89      0.00
    3   13   15     -2.38      0.00
    4   13   15     -0.14      0.00
    5   13   15      1.90      0.00
    6   13   15      1.09      0.00
    7   13   15      1.62      0.00
    8   13   15      1.88      0.00
  -20   14   15     -0.48      0.00
  -19   14   15      0.65      0.00
  -18   14   15      1.35      0.00
  -17   14   15     -0.87      0.00
  -16   14   15      0.13      0.00
  -15   14   15     -2.57      0.00
  -14   14   15     -4.40      0.00
  -13   14   15      4.20      0.00
  -12   14   15      2.82      0.00
  -11   14   15      1.19      0.00
  -10   14   15     -0.43      0.00
   -9   14   15      1.18      0.00
   -8   14   15      0.10      0.00
   -7   14   15      3.54      0.00
   -6   14   15      0.48      0.00
   -5   14   15     -3.38      0.00
   -4   14   15     -1.32      0.00
   -3   14   15      1.40      0.00
   -2   14   15      2.92      0.00
   -1   14   15      2.31      0.00
    0   14   15     -2.76      0.00
    1   14   15     -0.15      0.00
    2   14   15     -1.47      0.00
    3   14   15      1.88      0.00
    4   14   15     -0.86      0.00
    5   14   15      1.60      0.00
    6   14   15      4.39      0.00
    7   14   15      0.39      0.00
  -19   15   15      0.19      0.00
  -18   15   15     -1.08      0.00
  -17   15   15     -0.40      0.00
  -16   15   15     -3.25      0.00
  -15   15   15     -0.34      0.00
  -14   15   15      0.25      0.00
  -13   15   15     -0.20      0.00
  -12   15   15      4.69      0.00
  -11   15   15     -0.97      0.00
  -10   15   15     -5.44      0.00
   -9   15   15     -0.74      0.00
   -8   15   15      0.93      0.00
   -7   15   15      3.21      0.00
   -6   15   15      0.00      0.00
   -5   15   15      2.22      0.00
   -4   15   15      0.41      0.00
   -3   15   15     -3.26      0.00
   -2   15   15      0.76      0.00
   -1   15   15     -0.41      0.00
    0   15   15     -2.59      0.00
    1   15   15      2.99      0.00
    2   15   15      2.58      0.00
    3   15   15     -4.55      0.00
    4   15   15      1.51      0.00
    5   15   15      3.09      0.00
    6   15   15      2.34      0.00
    7   15   15      1.20      0.00
  -19   16   15     -1.09      0.00
  -18   16   15     -0.15      0.00
  -17   16   15     -0.22      0.00
  -16   16   15     -0.34      0.00
  -15   16   15     -0.64      0.00
  -14   16   15      1.26      0.00
  -13   16   15     -1.01      0.00
  -12   16   15     -3.47      0.00
  -11   16   15     -1.33      0.00
  -10   16   15     -0.94      0.00
   -9   16   15     -4.42      0.00
   -8   16   15      1.31      0.00
   -7   16   15      1.15      0.00
   -6   16   15      5.94      0.00
   -5   16   15     -0.91      0.00
   -4   16   15     -2.75      0.00
   -3   16   15     -2.37      0.00
   -2   16   15     -4.66      0.00
   -1   16   15      4.01      0.00
    0   16   15      3.12      0.00
    1   16   15     -5.30      0.00
    2   16   15     -0.68      0.00
    3   16   15      3.14      0.00
    4   16   15      1.00      0.00
    5   16   15      1.41      0.00
    6   16   15     -0.86      0.00
  -18   17   15     -1.29      0.00
  -17   17   15      0.98      0.00
  -16   17   15      3.50      0.00
  -15   17   15     -1.07      0.00
  -14   17   15     -3.03      0.00
  -13   17   15     -2.71      0.00
  -12   17   15     -1.82      0.00
  -11   17   15      1.07      0.00
  -10   17   15     -3.10      0.00
   -9   17   15     -3.01      0.00
   -8   17   15     -2.59      0.00
   -7   17   15      4.69      0.00
   -6   17   15      0.67      0.00
   -5   17   15     -1.84      0.00
   -4   17   15     -4.98      0.00
   -3   17   15      0.66      0.00
   -2   17   15      4.29      0.00
   -1   17   15     -4.22      0.00
    0   17   15     -3.62      0.00
    1   17   15     -0.01      0.00
    2   17   15      2.65      0.00
    3   17   15      0.86      0.00
    4   17   15     -1.44      0.00
    5   17   15     -0.79      0.00
    6   17   15      0.66      0.00
  -18   18   15      1.38      0.00
  -17   18   15      1.54      0.00
  -16   18   15      0.60      0.00
  -15   18   15     -0.03      0.00
  -14   18   15     -2.38      0.00
  -13   18   15      0.68      0.00
  -12   18   15     -0.80      0.00
  -11   18   15     -3.89      0.00
  -10   18   15     -0.37      0.00
   -9   18   15     -2.15      0.00
   -8   18   15     -1.69      0.00
   -7   18   15     -4.94      0.00
   -6   18   15      1.57      0.00
   -5   18   15      1.49      0.00
   -4   18   15     -1.77      0.00
   -3   18   15     -0.11      0.00
   -2   18   15      0.69      0.00
   -1   18   15     -2.80      0.00
    0   18   15     -1.35      0.00
    1   18   15      2.23      0.00
    2   18   15     -3.46      0.00
    3   18   15      0.50      0.00
    4   18   15     -0.23      0.00
    5   18   15     -0.14      0.00
  -17   19   15     -0.16      0.00
  -16   19   15     -0.12      0.00
  -15   19   15      2.47      0.00
  -14   19   15      1.32      0.00
  -13   19   15     -2.84      0.00
  -12   19   15     -1.13      0.00
  -11   19   15     -1.26      0.00
  -10   19   15     -2.16      0.00
   -9   19   15     -2.22      0.00
   -8   19   15     -4.65      0.00
   -7   19   15     -2.50      0.00
   -6   19   15     -1.58      0.00
   -5   19   15      4.37      0.00
   -4   19   15      3.00      0.00
   -3   19   15     -3.74      0.00
   -2   19   15     -0.53      0.00
   -1   19   15      4.30      0.00
    0   19   15     -3.45      0.00
    1   19   15     -5.41      0.00
    2   19   15      4.08      0.00
    3   19   15      0.09      0.00
    4   19   15     -1.07      0.00
    5   19   15     -1.80      0.00
  -16   20   15      1.53      0.00
  -15   20   15      0.06      0.00
  -14   20   15     -0.25      0.00
  -13   20   15     -1.94      0.00
  -12   20   15     -1.90      0.00
  -11   20   15     -0.61      0.00
  -10   20   15     -2.26      0.00
   -9   20   15     -3.02      0.00
   -8   20   15     -2.88      0.00
   -7   20   15     -0.30      0.00
   -6   20   15      1.82      0.00
   -5   20   15      0.61      0.00
   -4   20   15      0.42      0.00
   -3   20   15      1.05      0.00
   -2   20   15     -0.80      0.00
   -1   20   15     -0.01      0.00
    0   20   15      2.07      0.00
    1   20   15     -0.39      0.00
    2   20   15     -3.56      0.00
    3   20   15      0.76      0.00
    4   20   15     -0.59      0.00
  -15   21   15     -0.76      0.00
  -14   21   15     -0.67      0.00
  -13   21   15     -0.52      0.00
  -12   21   15     -3.18      0.00
  -11   21   15      0.03      0.00
  -10   21   15      1.13      0.00
   -9   21   15     -2.18      0.00
   -8   21   15     -2.30      0.00
   -7   21   15     -0.16      0.00
   -6   21   15      1.33      0.00
   -5   21   15     -0.44      0.00
   -4   21   15     -0.40      0.00
   -3   21   15     -0.24      0.00
   -2   21   15      1.98      0.00
   -1   21   15      2.52      0.00
    0   21   15      0.91      0.00
    1   21   15     -4.06      0.00
    2   21   15     -0.81      0.00
    3   21   15      0.27      0.00
  -14   22   15     -2.41      0.00
  -13   22   15      0.83      0.00
  -12   22   15      1.76      0.00
  -11   22   15     -1.02      0.00
  -10   22   15     -0.71      0.00
   -9   22   15     -1.11      0.00
   -8   22   15      0.08      0.00
   -7   22   15     -1.56      0.00
   -6   22   15     -1.17      0.00
   -5   22   15      1.73      0.00
   -4   22   15     -1.14      0.00
   -3   22   15      0.13      0.00
   -2   22   15      2.33      0.00
   -1   22   15      0.10      0.00
    0   22   15     -2.25      0.00
    1   22   15      2.49      0.00
    2   22   15     -0.74      0.00
  -13   23   15      0.26      0.00
  -12   23   15      1.24      0.00
  -11   23   15     -1.00      0.00
  -10   23   15     -1.02      0.00
   -9   23   15      0.19      0.00
   -8   23   15      0.37      0.00
   -7   23   15      0.32      0.00
   -6   23   15     -3.48      0.00
   -5   23   15     -0.48      0.00
   -4   23   15      4.58      0.00
   -3   23   15     -0.92      0.00
   -2   23   15     -3.09      0.00
   -1   23   15      0.37      0.00
    0   23   15      3.83      0.00
    1   23   15     -1.25      0.00
  -12   24   15     -0.08      0.00
  -11   24   15      0.69      0.00
  -10   24   15      0.19      0.00
   -9   24   15      1.15      0.00
   -8   24   15     -0.32      0.00
   -7   24   15     -0.40      0.00
   -6   24   15      0.39      0.00
   -5   24   15      0.35      0.00
   -4   24   15      0.13      0.00
   -3   24   15     -0.94      0.00
   -2   24   15     -2.23      0.00
   -1   24   15      2.17      0.00
   -9   25   15      1.21      0.00
   -8   25   15     -0.34      0.00
   -7   25   15     -0.34      0.00
   -5   25   15     -1.58      0.00
   -4   25   15     -1.34      0.00
   -3   25   15      1.69      0.00
  -22    0   16      2.74      0.00
  -20    0   16      1.52      0.00
  -18    0   16      6.98      0.00
  -16    0   16      4.75      0.00
  -14    0   16      5.13      0.00
  -12    0   16      8.66      0.00
  -10    0   16     -4.85      0.00
   -8    0   16     -4.10      0.00
   -6    0   16      1.14      0.00
   -4    0   16     -0.64      0.00
   -2    0   16      8.60      0.00
    0    0   16     -1.23      0.00
    2    0   16      2.82      0.00
    4    0   16     -1.45      0.00
    6    0   16      1.29      0.00
    8    0   16      0.36      0.00
  -22    1   16      1.39      0.00
  -21    1   16      2.04      0.00
  -20    1   16      0.93      0.00
  -19    1   16      2.77      0.00
  -18    1   16      0.08      0.00
  -17    1   16      5.23      0.00
  -16    1   16     -4.02      0.00
  -15    1   16      5.04      0.00
  -14    1   16      0.45      0.00
  -13    1   16     10.07      0.00
  -12    1   16      5.63      0.00
  -11    1   16      0.95      0.00
  -10    1   16     -1.83      0.00
   -9    1   16     -7.03      0.00
   -8    1   16     -2.04      0.00
   -7    1   16      2.98      0.00
   -6    1   16     -0.80      0.00
   -5    1   16     -1.98      0.00
   -4    1   16      0.89      0.00
   -3    1   16      5.46      0.00
   -2    1   16     -1.75      0.00
   -1    1   16      0.75      0.00
    0    1   16     -1.98      0.00
    1    1   16      6.03      0.00
    2    1   16      3.67      0.00
    3    1   16     -3.30      0.00
    4    1   16     -0.89      0.00
    5    1   16      0.36      0.00
    6    1   16     -1.43      0.00
    7    1   16      0.25      0.00
    8    1   16     -1.11      0.00
  -22    2   16      2.86      0.00
  -21    2   16      3.75      0.00
  -20    2   16      2.25      0.00
  -19    2   16     -2.13      0.00
  -18    2   16      0.78      0.00
  -17    2   16      0.62      0.00
  -16    2   16      4.34      0.00
  -15    2   16     -3.13      0.00
  -14    2   16     11.07      0.00
  -13    2   16      1.94      0.00
  -12    2   16      3.14      0.00
  -11    2   16      3.82      0.00
  -10    2   16     -1.47      0.00
   -9    2   16     -1.31      0.00
   -8    2   16     -2.15      0.00
   -7    2   16     -2.76      0.00
   -6    2   16      6.39      0.00
   -5    2   16     -0.73      0.00
   -4    2   16     -4.02      0.00
   -3    2   16     -2.02      0.00
   -2    2   16      4.08      0.00
   -1    2   16      1.74      0.00
    0    2   16      4.58      0.00
    1    2   16     -1.75      0.00
    2    2   16      1.63      0.00
    3    2   16      1.83      0.00
    4    2   16     -2.76      0.00
    5    2   16     -2.36      0.00
    6    2   16     -2.18      0.00
    7    2   16     -0.85      0.00
    8    2   16      3.57      0.00
    9    2   16      2.52      0.00
  -22    3   16      2.22      0.00
  -21    3   16      3.72      0.00
  -20    3   16     -0.47      0.00
  -19    3   16      1.17      0.00
  -18    3   16     -1.53      0.00
  -17    3   16      0.91      0.00
  -16    3   16      3.29      0.00
  -15    3   16      3.24      0.00
  -14    3   16     -7.01      0.00
  -13    3   16      8.58      0.00
  -12    3   16      2.75      0.00
  -11    3   16      1.24      0.00
  -10    3   16      4.98      0.00
   -9    3   16      2.08      0.00
   -8    3   16     -4.14      0.00
   -7    3   16      0.02      0.00
   -6    3   16      1.43      0.00
   -5    3   16      1.78      0.00
   -4    3   16     -7.91      0.00
   -3    3   16      1.17      0.00
   -2    3   16      8.46      0.00
   -1    3   16      1.68      0.00
    0    3   16     -5.19      0.00
    1    3   16      1.72      0.00
    2    3   16      3.30      0.00
    3    3   16     -0.54      0.00
    4    3   16     -2.77      0.00
    5    3   16     -0.12      0.00
    6    3   16     -0.88      0.00
    7    3   16     -0.18      0.00
    8    3   16      3.77      0.00
    9    3   16      1.78      0.00
  -22    4   16      0.75      0.00
  -21    4   16      1.12      0.00
  -20    4   16      2.23      0.00
  -19    4   16     -1.04      0.00
  -18    4   16      1.30      0.00
  -17    4   16     -1.08      0.00
  -16    4   16      1.08      0.00
  -15    4   16     -3.13      0.00
  -14    4   16     -3.53      0.00
  -13    4   16     -1.95      0.00
  -12    4   16     10.48      0.00
  -11    4   16      3.92      0.00
  -10    4   16      2.57      0.00
   -9    4   16      0.47      0.00
   -8    4   16      2.29      0.00
   -7    4   16     -4.36      0.00
   -6    4   16     -1.84      0.00
   -5    4   16      4.41      0.00
   -4    4   16      1.94      0.00
   -3    4   16     -3.83      0.00
   -2    4   16      2.32      0.00
   -1    4   16      2.05      0.00
    0    4   16     -3.84      0.00
    1    4   16     -1.10      0.00
    2    4   16      1.92      0.00
    3    4   16      3.90      0.00
    4    4   16     -0.23      0.00
    5    4   16     -1.76      0.00
    6    4   16      1.47      0.00
    7    4   16     -0.57      0.00
    8    4   16     -0.59      0.00
    9    4   16      2.16      0.00
  -22    5   16      1.39      0.00
  -21    5   16      0.53      0.00
  -20    5   16      2.18      0.00
  -19    5   16     -1.06      0.00
  -18    5   16     -1.22      0.00
  -17    5   16      0.02      0.00
  -16    5   16     -6.11      0.00
  -15    5   16     -0.58      0.00
  -14    5   16     -1.89      0.00
  -13    5   16     -1.30      0.00
  -12    5   16      2.43      0.00
  -11    5   16      5.87      0.00
  -10    5   16      1.65      0.00
   -9    5   16      2.16      0.00
   -8    5   16     -4.43      0.00
   -7    5   16      1.13      0.00
   -6    5   16      1.90      0.00
   -5    5   16      2.09      0.00
   -4    5   16      4.82      0.00
   -3    5   16     -5.61      0.00
   -2    5   16     -5.22      0.00
   -1    5   16      1.66      0.00
    0    5   16     -1.07      0.00
    1    5   16     -3.41      0.00
    2    5   16      7.12      0.00
    3    5   16      2.56      0.00
    4    5   16     -1.08      0.00
    5    5   16     -0.46      0.00
    6    5   16      0.31      0.00
    7    5   16     -0.84      0.00
    8    5   16     -0.30      0.00
    9    5   16      0.18      0.00
  -22    6   16     -0.15      0.00
  -21    6   16      0.27      0.00
  -20    6   16     -0.79      0.00
  -19    6   16      2.65      0.00
  -18    6   16     -4.91      0.00
  -17    6   16     -3.04      0.00
  -16    6   16      2.07      0.00
  -15    6   16     -3.19      0.00
  -14    6   16     -0.98      0.00
  -13    6   16     -4.36      0.00
  -12    6   16     -4.92      0.00
  -11    6   16      3.55      0.00
  -10    6   16      3.53      0.00
   -9    6   16      0.28      0.00
   -8    6   16     -0.61      0.00
   -7    6   16     -0.97      0.00
   -6    6   16      5.85      0.00
   -5    6   16      5.34      0.00
   -4    6   16     -5.27      0.00
   -3    6   16     -4.48      0.00
   -2    6   16     -8.36      0.00
   -1    6   16      1.24      0.00
    0    6   16      5.63      0.00
    1    6   16      1.42      0.00
    2    6   16     -5.32      0.00
    3    6   16      3.96      0.00
    4    6   16      2.73      0.00
    5    6   16     -1.31      0.00
    6    6   16     -1.64      0.00
    7    6   16      0.97      0.00
    8    6   16     -0.51      0.00
    9    6   16      0.86      0.00
  -22    7   16     -1.74      0.00
  -21    7   16      0.47      0.00
  -20    7   16      1.93      0.00
  -19    7   16     -3.71      0.00
  -18    7   16     -0.03      0.00
  -17    7   16     -0.89      0.00
  -16    7   16      2.16      0.00
  -15    7   16     -0.97      0.00
  -14    7   16    -10.10      0.00
  -13    7   16     -6.66      0.00
  -12    7   16      0.70      0.00
  -11    7   16     -0.80      0.00
  -10    7   16      2.39      0.00
   -9    7   16      0.75      0.00
   -8    7   16      4.43      0.00
   -7    7   16     -1.36      0.00
   -6    7   16      1.45      0.00
   -5    7   16      1.59      0.00
   -4    7   16     -4.04      0.00
   -3    7   16     -8.38      0.00
   -2    7   16      3.63      0.00
   -1    7   16      0.94      0.00
    0    7   16      1.38      0.00
    1    7   16     -4.89      0.00
    2    7   16      0.70      0.00
    3    7   16      0.36      0.00
    4    7   16      0.65      0.00
    5    7   16      1.22      0.00
    6    7   16      1.68      0.00
    7    7   16     -2.11      0.00
    8    7   16      0.59      0.00
  -21    8   16     -0.35      0.00
  -20    8   16     -2.88      0.00
  -19    8   16      1.63      0.00
  -18    8   16      1.43      0.00
  -17    8   16     -0.99      0.00
  -16    8   16     -3.09      0.00
  -15    8   16     -0.18      0.00
  -14    8   16     -7.36      0.00
  -13    8   16     -4.24      0.00
  -12    8   16     -1.21      0.00
  -11    8   16      2.61      0.00
  -10    8   16     -0.16      0.00
   -9    8   16      1.86      0.00
   -8    8   16     -0.11      0.00
   -7    8   16      3.46      0.00
   -6    8   16     -8.16      0.00
   -5    8   16      0.87      0.00
   -4    8   16      3.81      0.00
   -3    8   16     -1.19      0.00
   -2    8   16     -2.94      0.00
   -1    8   16      2.57      0.00
    0    8   16     -4.48      0.00
    1    8   16     -0.61      0.00
    2    8   16     -4.90      0.00
    3    8   16      1.52      0.00
    4    8   16      3.07      0.00
    5    8   16      1.18      0.00
    6    8   16      1.05      0.00
    7    8   16      0.40      0.00
    8    8   16     -2.59      0.00
  -21    9   16     -2.58      0.00
  -20    9   16      1.18      0.00
  -19    9   16      0.87      0.00
  -18    9   16      1.04      0.00
  -17    9   16     -1.68      0.00
  -16    9   16     -5.13      0.00
  -15    9   16     -2.12      0.00
  -14    9   16      5.84      0.00
  -13    9   16     -6.05      0.00
  -12    9   16      0.79      0.00
  -11    9   16     -1.42      0.00
  -10    9   16      0.26      0.00
   -9    9   16      0.21      0.00
   -8    9   16     -1.13      0.00
   -7    9   16     -1.73      0.00
   -6    9   16      0.55      0.00
   -5    9   16     -3.88      0.00
   -4    9   16      9.02      0.00
   -3    9   16      2.54      0.00
   -2    9   16     -7.54      0.00
   -1    9   16     -3.53      0.00
    0    9   16      1.04      0.00
    1    9   16     -5.88      0.00
    2    9   16      0.37      0.00
    3    9   16      2.02      0.00
    4    9   16      2.90      0.00
    5    9   16     -0.18      0.00
    6    9   16     -0.37      0.00
    7    9   16     -0.23      0.00
    8    9   16     -1.45      0.00
  -21   10   16      0.71      0.00
  -20   10   16     -1.18      0.00
  -19   10   16      0.81      0.00
  -18   10   16     -0.56      0.00
  -17   10   16     -2.50      0.00
  -16   10   16     -2.11      0.00
  -15   10   16      2.82      0.00
  -14   10   16      3.68      0.00
  -13   10   16      4.64      0.00
  -12   10   16    -10.78      0.00
  -11   10   16     -1.76      0.00
  -10   10   16      0.78      0.00
   -9   10   16      2.56      0.00
   -8   10   16      1.69      0.00
   -7   10   16     -6.33      0.00
   -6   10   16      1.80      0.00
   -5   10   16      5.71      0.00
   -4   10   16      0.03      0.00
   -3   10   16      2.38      0.00
   -2   10   16     -5.99      0.00
   -1   10   16     -8.16      0.00
    0   10   16      2.09      0.00
    1   10   16      4.90      0.00
    2   10   16     -2.92      0.00
    3   10   16     -2.20      0.00
    4   10   16      2.53      0.00
    5   10   16      2.40      0.00
    6   10   16     -2.80      0.00
    7   10   16     -0.88      0.00
    8   10   16      0.87      0.00
  -21   11   16     -0.55      0.00
  -20   11   16      0.67      0.00
  -19   11   16     -0.58      0.00
  -18   11   16     -2.46      0.00
  -17   11   16     -0.35      0.00
  -16   11   16      4.94      0.00
  -15   11   16      3.02      0.00
  -14   11   16      1.39      0.00
  -13   11   16     -4.65      0.00
  -12   11   16     -3.42      0.00
  -11   11   16     -3.14      0.00
  -10   11   16      5.21      0.00
   -9   11   16      3.33      0.00
   -8   11   16     -1.30      0.00
   -7   11   16      4.07      0.00
   -6   11   16     -3.81      0.00
   -5   11   16      2.11      0.00
   -4   11   16     -1.05      0.00
   -3   11   16     -3.48      0.00
   -2   11   16      0.85      0.00
   -1   11   16      0.29      0.00
    0   11   16      0.15      0.00
    1   11   16     -0.35      0.00
    2   11   16     -1.78      0.00
    3   11   16      1.69      0.00
    4   11   16     -0.70      0.00
    5   11   16     -0.41      0.00
    6   11   16      1.88      0.00
    7   11   16     -0.83      0.00
  -20   12   16     -0.06      0.00
  -19   12   16     -2.84      0.00
  -18   12   16      3.09      0.00
  -17   12   16      3.16      0.00
  -16   12   16     -0.40      0.00
  -15   12   16      1.70      0.00
  -14   12   16     -3.82      0.00
  -13   12   16     -2.47      0.00
  -12   12   16      3.02      0.00
  -11   12   16     -0.78      0.00
  -10   12   16      1.54      0.00
   -9   12   16      3.60      0.00
   -8   12   16      4.98      0.00
   -7   12   16     -2.18      0.00
   -6   12   16     -2.49      0.00
   -5   12   16     -6.64      0.00
   -4   12   16      4.49      0.00
   -3   12   16      1.41      0.00
   -2   12   16      1.59      0.00
   -1   12   16      0.18      0.00
    0   12   16     -2.76      0.00
    1   12   16      1.80      0.00
    2   12   16      1.46      0.00
    3   12   16     -4.60      0.00
    4   12   16      1.01      0.00
    5   12   16      1.24      0.00
    6   12   16      2.27      0.00
    7   12   16      2.75      0.00
  -20   13   16     -1.88      0.00
  -19   13   16      2.51      0.00
  -18   13   16      1.02      0.00
  -17   13   16      1.81      0.00
  -16   13   16     -3.08      0.00
  -15   13   16     -4.79      0.00
  -14   13   16      3.78      0.00
  -13   13   16      2.15      0.00
  -12   13   16     -2.27      0.00
  -11   13   16      3.13      0.00
  -10   13   16     -2.91      0.00
   -9   13   16      4.75      0.00
   -8   13   16     -0.44      0.00
   -7   13   16     -0.41      0.00
   -6   13   16     -2.09      0.00
   -5   13   16     -1.26      0.00
   -4   13   16      1.07      0.00
   -3   13   16      5.49      0.00
   -2   13   16     -3.54      0.00
   -1   13   16      1.47      0.00
    0   13   16      2.46      0.00
    1   13   16     -2.89      0.00
    2   13   16     -2.48      0.00
    3   13   16      1.62      0.00
    4   13   16      1.05      0.00
    5   13   16      3.11      0.00
    6   13   16      1.91      0.00
    7   13   16      1.42      0.00
  -19   14   16     -0.86      0.00
  -18   14   16     -0.76      0.00
  -17   14   16     -0.55      0.00
  -16   14   16     -1.01      0.00
  -15   14   16     -2.06      0.00
  -14   14   16      1.50      0.00
  -13   14   16      4.09      0.00
  -12   14   16     -0.43      0.00
  -11   14   16     -5.92      0.00
  -10   14   16      0.58      0.00
   -9   14   16     -4.53      0.00
   -8   14   16      4.98      0.00
   -7   14   16      2.02      0.00
   -6   14   16     -0.95      0.00
   -5   14   16     -0.44      0.00
   -4   14   16     -0.02      0.00
   -3   14   16      1.82      0.00
   -2   14   16      2.44      0.00
   -1   14   16     -3.89      0.00
    0   14   16     -0.18      0.00
    1   14   16      1.24      0.00
    2   14   16      1.53      0.00
    3   14   16     -1.34      0.00
    4   14   16      1.31      0.00
    5   14   16      3.28      0.00
    6   14   16      1.28      0.00
  -19   15   16     -0.26      0.00
  -18   15   16     -0.03      0.00
  -17   15   16     -2.32      0.00
  -16   15   16      1.42      0.00
  -15   15   16      1.31      0.00
  -14   15   16     -0.57      0.00
  -13   15   16      0.46      0.00
  -12   15   16     -2.86      0.00
  -11   15   16     -5.38      0.00
  -10   15   16     -4.73      0.00
   -9   15   16      2.64      0.00
   -8   15   16     -0.11      0.00
   -7   15   16      2.16      0.00
   -6   15   16      2.98      0.00
   -5   15   16     -0.49      0.00
   -4   15   16     -2.51      0.00
   -3   15   16     -1.77      0.00
   -2   15   16      0.84      0.00
   -1   15   16     -0.24      0.00
    0   15   16      1.40      0.00
    1   15   16      3.18      0.00
    2   15   16     -3.66      0.00
    3   15   16      0.65      0.00
    4   15   16      2.13      0.00
    5   15   16      0.43      0.00
    6   15   16      0.52      0.00
  -18   16   16     -0.54      0.00
  -17   16   16      2.06      0.00
  -16   16   16     -0.97      0.00
  -15   16   16      1.02      0.00
  -14   16   16     -1.49      0.00
  -13   16   16     -4.32      0.00
  -12   16   16     -0.48      0.00
  -11   16   16     -1.48      0.00
  -10   16   16     -4.60      0.00
   -9   16   16     -2.52      0.00
   -8   16   16      1.14      0.00
   -7   16   16      3.11      0.00
   -6   16   16     -1.87      0.00
   -5   16   16     -2.36      0.00
   -4   16   16     -1.02      0.00
   -3   16   16     -0.03      0.00
   -2   16   16      2.25      0.00
   -1   16   16      2.67      0.00
    0   16   16     -5.12      0.00
    1   16   16     -0.46      0.00
    2   16   16      4.96      0.00
    3   16   16     -1.08      0.00
    4   16   16     -1.36      0.00
    5   16   16     -1.36      0.00
  -18   17   16      1.46      0.00
  -17   17   16      1.74      0.00
  -16   17   16      0.04      0.00
  -15   17   16     -3.20      0.00
  -14   17   16     -0.73      0.00
  -13   17   16      0.96      0.00
  -12   17   16     -0.54      0.00
  -11   17   16     -2.36      0.00
  -10   17   16     -3.62      0.00
   -9   17   16     -4.07      0.00
   -8   17   16     -0.07      0.00
   -7   17   16     -1.83      0.00
   -6   17   16     -0.32      0.00
   -5   17   16     -3.56      0.00
   -4   17   16      2.97      0.00
   -3   17   16      5.17      0.00
   -2   17   16     -3.24      0.00
   -1   17   16     -3.96      0.00
    0   17   16      2.75      0.00
    1   17   16      1.26      0.00
    2   17   16      0.21      0.00
    3   17   16     -1.75      0.00
    4   17   16     -1.60      0.00
    5   17   16      0.32      0.00
  -17   18   16     -0.07      0.00
  -16   18   16      0.87      0.00
  -15   18   16     -0.42      0.00
  -14   18   16      0.87      0.00
  -13   18   16     -0.59      0.00
  -12   18   16     -1.62      0.00
  -11   18   16     -0.28      0.00
  -10   18   16     -2.01      0.00
   -9   18   16     -3.76      0.00
   -8   18   16     -6.85      0.00
   -7   18   16      0.36      0.00
   -6   18   16      1.51      0.00
   -5   18   16      1.17      0.00
   -4   18   16     -1.40      0.00
   -3   18   16      2.01      0.00
   -2   18   16      1.39      0.00
   -1   18   16     -0.33      0.00
    0   18   16      0.54      0.00
    1   18   16     -1.82      0.00
    2   18   16      0.26      0.00
    3   18   16      1.01      0.00
    4   18   16     -1.14      0.00
  -16   19   16      1.39      0.00
  -15   19   16      1.32      0.00
  -14   19   16     -3.68      0.00
  -13   19   16      0.67      0.00
  -12   19   16      0.76      0.00
  -11   19   16     -1.26      0.00
  -10   19   16     -2.51      0.00
   -8   19   16     -1.26      0.00
   -7   19   16     -2.73      0.00
   -6   19   16      2.94      0.00
   -5   19   16      1.82      0.00
   -4   19   16     -1.13      0.00
   -3   19   16     -0.57      0.00
   -2   19   16      4.75      0.00
   -1   19   16     -0.19      0.00
    0   19   16     -3.86      0.00
    1   19   16      3.69      0.00
    2   19   16      0.80      0.00
    3   19   16     -0.86      0.00
  -16   20   16     -1.06      0.00
  -15   20   16     -1.51      0.00
  -14   20   16      0.14      0.00
  -13   20   16     -1.94      0.00
  -12   20   16      1.27      0.00
  -11   20   16     -0.40      0.00
  -10   20   16     -0.88      0.00
   -9   20   16     -1.69      0.00
   -8   20   16     -1.20      0.00
   -7   20   16      1.41      0.00
   -6   20   16     -1.70      0.00
   -5   20   16     -0.39      0.00
   -4   20   16      0.19      0.00
   -3   20   16      0.56      0.00
   -2   20   16      0.76      0.00
   -1   20   16      3.75      0.00
    0   20   16      0.89      0.00
    1   20   16     -3.57      0.00
    2   20   16      1.87      0.00
  -15   21   16     -0.84      0.00
  -14   21   16     -0.11      0.00
  -13   21   16     -0.39      0.00
  -12   21   16      0.07      0.00
  -11   21   16      2.52      0.00
  -10   21   16     -1.82      0.00
   -9   21   16     -1.11      0.00
   -8   21   16     -0.53      0.00
   -7   21   16     -0.52      0.00
   -6   21   16     -0.29      0.00
   -5   21   16     -1.77      0.00
   -4   21   16     -1.31      0.00
   -3   21   16      2.07      0.00
   -2   21   16      2.49      0.00
   -1   21   16     -0.07      0.00
    0   21   16     -1.39      0.00
    1   21   16      1.43      0.00
  -13   22   16      2.06      0.00
  -12   22   16     -1.15      0.00
  -11   22   16     -1.58      0.00
  -10   22   16      0.54      0.00
   -9   22   16      0.63      0.00
   -8   22   16     -0.41      0.00
   -7   22   16     -2.20      0.00
   -6   22   16      0.29      0.00
   -5   22   16     -0.42      0.00
   -4   22   16     -0.54      0.00
   -3   22   16     -0.54      0.00
   -2   22   16     -0.21      0.00
   -1   22   16      0.05      0.00
    0   22   16      3.36      0.00
  -12   23   16     -0.45      0.00
  -11   23   16     -0.36      0.00
  -10   23   16      1.15      0.00
   -9   23   16      0.67      0.00
   -8   23   16      0.38      0.00
   -7   23   16     -2.06      0.00
   -6   23   16     -0.73      0.00
   -5   23   16      3.54      0.00
   -4   23   16     -1.98      0.00
   -3   23   16     -3.39      0.00
   -2   23   16      0.58      0.00
   -1   23   16      3.67      0.00
  -10   24   16      1.60      0.00
   -9   24   16      0.49      0.00
   -8   24   16     -0.67      0.00
   -7   24   16      1.52      0.00
   -6   24   16      0.12      0.00
   -5   24   16     -1.58      0.00
   -4   24   16      0.16      0.00
  -21    0   17      2.07      0.00
  -19    0   17      4.23      0.00
  -17    0   17     -0.79      0.00
  -15    0   17      2.57      0.00
  -13    0   17     12.12      0.00
  -11    0   17     -2.86      0.00
   -9    0   17     -2.83      0.00
   -7    0   17      1.13      0.00
   -5    0   17     -4.66      0.00
   -3    0   17      6.24      0.00
   -1    0   17     -3.51      0.00
    1    0   17      6.50      0.00
    3    0   17     -0.41      0.00
    5    0   17     -0.05      0.00
    7    0   17      0.20      0.00
  -22    1   17      2.77      0.00
  -21    1   17      0.71      0.00
  -20    1   17      1.64      0.00
  -19    1   17     -1.18      0.00
  -18    1   17      2.94      0.00
  -17    1   17     -3.12      0.00
  -16    1   17      0.52      0.00
  -15    1   17     -0.04      0.00
  -14    1   17      8.32      0.00
  -13    1   17      1.02      0.00
  -12    1   17      4.10      0.00
  -11    1   17     -0.66      0.00
  -10    1   17     -3.82      0.00
   -9    1   17      0.92      0.00
   -8    1   17      2.40      0.00
   -7    1   17      1.72      0.00
   -6    1   17     -3.46      0.00
   -5    1   17     -0.32      0.00
   -4    1   17      0.97      0.00
   -3    1   17     -3.39      0.00
   -2    1   17      1.49      0.00
   -1    1   17     -0.34      0.00
    0    1   17      3.99      0.00
    1    1   17      1.58      0.00
    2    1   17     -0.44      0.00
    3    1   17     -1.78      0.00
    4    1   17      0.87      0.00
    5    1   17     -1.81      0.00
    6    1   17     -0.43      0.00
    7    1   17     -0.04      0.00
    8    1   17      1.61      0.00
  -22    2   17      3.05      0.00
  -21    2   17      1.62      0.00
  -20    2   17     -1.93      0.00
  -19    2   17      0.81      0.00
  -18    2   17     -0.07      0.00
  -17    2   17      3.99      0.00
  -16    2   17     -4.98      0.00
  -15    2   17      3.55      0.00
  -14    2   17     -2.92      0.00
  -13    2   17      3.16      0.00
  -12    2   17      2.84      0.00
  -11    2   17      2.26      0.00
  -10    2   17      1.60      0.00
   -9    2   17     -0.08      0.00
   -8    2   17     -0.87      0.00
   -7    2   17      4.40      0.00
   -6    2   17      2.95      0.00
   -5    2   17     -7.56      0.00
   -4    2   17     -5.05      0.00
   -3    2   17      6.26      0.00
   -2    2   17      1.42      0.00
   -1    2   17      1.86      0.00
    0    2   17     -5.39      0.00
    1    2   17      1.76      0.00
    2    2   17      2.18      0.00
    3    2   17     -0.99      0.00
    4    2   17     -1.84      0.00
    5    2   17     -0.50      0.00
    6    2   17     -1.08      0.00
    7    2   17      3.88      0.00
    8    2   17      1.94      0.00
  -22    3   17      1.72      0.00
  -21    3   17      0.08      0.00
  -20    3   17      1.30      0.00
  -19    3   17     -0.12      0.00
  -18    3   17      0.25      0.00
  -17    3   17      0.12      0.00
  -16    3   17      1.73      0.00
  -15    3   17    -13.08      0.00
  -14    3   17      4.10      0.00
  -13    3   17      2.23      0.00
  -12    3   17      0.84      0.00
  -11    3   17      4.96      0.00
  -10    3   17      3.13      0.00
   -9    3   17     -2.31      0.00
   -8    3   17      0.72      0.00
   -7    3   17      2.09      0.00
   -6    3   17      2.45      0.00
   -5    3   17     -3.12      0.00
   -4    3   17     -0.91      0.00
   -3    3   17      3.22      0.00
   -2    3   17      1.04      0.00
   -1    3   17     -8.30      0.00
    0    3   17      1.96      0.00
    1    3   17      0.97      0.00
    2    3   17      1.64      0.00
    3    3   17     -0.90      0.00
    4    3   17      0.84      0.00
    5    3   17      0.49      0.00
    6    3   17     -0.29      0.00
    7    3   17      0.31      0.00
    8    3   17      1.84      0.00
  -22    4   17     -0.43      0.00
  -21    4   17      2.69      0.00
  -20    4   17     -0.88      0.00
  -19    4   17      0.74      0.00
  -18    4   17     -0.55      0.00
  -17    4   17     -1.04      0.00
  -16    4   17     -4.88      0.00
  -15    4   17     -2.13      0.00
  -14    4   17     -8.10      0.00
  -13    4   17      7.26      0.00
  -12    4   17      2.50      0.00
  -11    4   17     -1.51      0.00
  -10    4   17      0.06      0.00
   -9    4   17      2.66      0.00
   -8    4   17     -1.20      0.00
   -7    4   17      0.18      0.00
   -6    4   17      6.20      0.00
   -5    4   17      5.14      0.00
   -4    4   17     -7.17      0.00
   -3    4   17     -3.88      0.00
   -2    4   17      0.50      0.00
   -1    4   17     -1.29      0.00
    0    4   17     -4.62      0.00
    1    4   17      3.44      0.00
    2    4   17      3.18      0.00
    3    4   17      0.70      0.00
    4    4   17     -1.10      0.00
    5    4   17      1.62      0.00
    6    4   17     -1.37      0.00
    7    4   17     -1.18      0.00
    8    4   17      1.03      0.00
  -22    5   17     -0.04      0.00
  -21    5   17      0.24      0.00
  -20    5   17      0.88      0.00
  -19    5   17     -2.31      0.00
  -18    5   17      0.85      0.00
  -17    5   17     -3.47      0.00
  -16    5   17     -0.52      0.00
  -15    5   17     -2.75      0.00
  -14    5   17     -2.82      0.00
  -13    5   17     -6.51      0.00
  -12    5   17      2.11      0.00
  -11    5   17     -0.65      0.00
  -10    5   17      1.27      0.00
   -9    5   17     -3.07      0.00
   -8    5   17      1.64      0.00
   -7    5   17      5.66      0.00
   -6    5   17      2.89      0.00
   -5    5   17      1.98      0.00
   -4    5   17     -4.83      0.00
   -3    5   17     -9.61      0.00
   -2    5   17      0.89      0.00
   -1    5   17      1.60      0.00
    0    5   17     -1.97      0.00
    1    5   17      1.58      0.00
    2    5   17      1.54      0.00
    3    5   17     -0.54      0.00
    4    5   17      0.17      0.00
    5    5   17      0.23      0.00
    6    5   17      0.50      0.00
    7    5   17     -1.06      0.00
  -21    6   17     -0.22      0.00
  -20    6   17      1.52      0.00
  -19    6   17     -1.37      0.00
  -18    6   17     -3.03      0.00
  -17    6   17      4.45      0.00
  -16    6   17     -1.86      0.00
  -15    6   17     -3.38      0.00
  -14    6   17     -8.19      0.00
  -13    6   17     -6.21      0.00
  -12    6   17     -1.01      0.00
  -11    6   17      3.21      0.00
  -10    6   17     -2.97      0.00
   -9    6   17      0.90      0.00
   -8    6   17     -0.24      0.00
   -7    6   17      2.87      0.00
   -6    6   17      4.97      0.00
   -5    6   17     -4.75      0.00
   -4    6   17     -4.32      0.00
   -3    6   17     -4.16      0.00
   -2    6   17     -0.57      0.00
   -1    6   17      5.81      0.00
    0    6   17     -0.53      0.00
    1    6   17     -8.59      0.00
    2    6   17      1.73      0.00
    3    6   17      2.88      0.00
    4    6   17     -0.04      0.00
    5    6   17      0.32      0.00
    6    6   17      0.51      0.00
    7    6   17     -0.25      0.00
  -21    7   17      1.18      0.00
  -20    7   17     -2.06      0.00
  -19    7   17      1.09      0.00
  -18    7   17      1.10      0.00
  -17    7   17     -1.01      0.00
  -16    7   17      0.92      0.00
  -15    7   17     -9.01      0.00
  -14    7   17     -4.70      0.00
  -13    7   17     -0.26      0.00
  -12    7   17     -1.61      0.00
  -11    7   17     -1.59      0.00
  -10    7   17     -0.30      0.00
   -9    7   17      1.09      0.00
   -8    7   17     -1.85      0.00
   -7    7   17     -2.56      0.00
   -6    7   17      0.45      0.00
   -5    7   17      1.85      0.00
   -4    7   17     -3.75      0.00
   -3    7   17      3.92      0.00
   -2    7   17      0.01      0.00
   -1    7   17     -3.63      0.00
    0    7   17     -5.10      0.00
    1    7   17      0.22      0.00
    2    7   17     -2.05      0.00
    3    7   17      1.50      0.00
    4    7   17      2.05      0.00
    5    7   17      1.89      0.00
    6    7   17     -1.33      0.00
    7    7   17     -1.35      0.00
  -21    8   17     -1.66      0.00
  -20    8   17      2.17      0.00
  -19    8   17      1.36      0.00
  -18    8   17     -1.90      0.00
  -17    8   17     -3.18      0.00
  -16    8   17     -0.23      0.00
  -15    8   17      1.08      0.00
  -14    8   17     -4.44      0.00
  -13    8   17     -0.03      0.00
  -12    8   17     -0.08      0.00
  -11    8   17     -3.41      0.00
  -10    8   17     -0.24      0.00
   -9    8   17     -4.47      0.00
   -8    8   17      1.86      0.00
   -7    8   17     -6.18      0.00
   -6    8   17     -0.17      0.00
   -5    8   17      7.82      0.00
   -4    8   17      3.14      0.00
   -3    8   17     -5.76      0.00
   -2    8   17      0.42      0.00
   -1    8   17     -4.79      0.00
    0    8   17     -1.27      0.00
    1    8   17     -4.97      0.00
    2    8   17      2.25      0.00
    3    8   17      2.24      0.00
    4    8   17      0.72      0.00
    5    8   17      0.30      0.00
    6    8   17     -0.12      0.00
    7    8   17     -2.76      0.00
  -21    9   17      0.96      0.00
  -20    9   17      0.39      0.00
  -19    9   17     -0.48      0.00
  -18    9   17     -1.01      0.00
  -17    9   17     -3.37      0.00
  -16    9   17      0.53      0.00
  -15    9   17      6.31      0.00
  -14    9   17      0.03      0.00
  -13    9   17     -4.00      0.00
  -12    9   17     -3.05      0.00
  -11    9   17     -1.46      0.00
  -10    9   17     -2.35      0.00
   -9    9   17      1.92      0.00
   -8    9   17     -6.02      0.00
   -7    9   17      2.41      0.00
   -6    9   17     -2.16      0.00
   -5    9   17      6.06      0.00
   -4    9   17      4.92      0.00
   -3    9   17     -6.64      0.00
   -2    9   17     -6.96      0.00
   -1    9   17      3.94      0.00
    0    9   17     -3.99      0.00
    1    9   17      1.62      0.00
    2    9   17     -0.87      0.00
    3    9   17      1.16      0.00
    4    9   17      0.12      0.00
    5    9   17     -0.92      0.00
    6    9   17     -0.36      0.00
    7    9   17     -0.77      0.00
  -20   10   17     -0.11      0.00
  -19   10   17      0.03      0.00
  -18   10   17     -1.48      0.00
  -17   10   17      1.12      0.00
  -16   10   17      2.09      0.00
  -15   10   17      3.79      0.00
  -14   10   17      2.55      0.00
  -13   10   17     -9.95      0.00
  -12   10   17     -2.88      0.00
  -11   10   17      2.31      0.00
  -10   10   17      3.99      0.00
   -9   10   17     -1.55      0.00
   -8   10   17     -2.23      0.00
   -7   10   17     -2.54      0.00
   -6   10   17      5.68      0.00
   -5   10   17     -1.77      0.00
   -4   10   17      0.05      0.00
   -3   10   17     -1.38      0.00
   -2   10   17     -4.19      0.00
   -1   10   17      1.23      0.00
    0   10   17      7.35      0.00
    1   10   17     -5.62      0.00
    2   10   17     -2.39      0.00
    3   10   17      0.74      0.00
    4   10   17      1.46      0.00
    5   10   17     -0.23      0.00
    6   10   17     -0.50      0.00
  -20   11   17     -0.87      0.00
  -19   11   17     -1.04      0.00
  -18   11   17      2.56      0.00
  -17   11   17      2.93      0.00
  -16   11   17      2.39      0.00
  -15   11   17     -3.01      0.00
  -14   11   17     -4.41      0.00
  -13   11   17      2.03      0.00
  -12   11   17     -2.68      0.00
  -11   11   17      5.25      0.00
  -10   11   17      1.66      0.00
   -9   11   17     -1.16      0.00
   -8   11   17      2.26      0.00
   -7   11   17     -3.12      0.00
   -6   11   17     -3.13      0.00
   -5   11   17      0.16      0.00
   -4   11   17     -1.29      0.00
   -3   11   17      4.19      0.00
   -2   11   17      3.00      0.00
   -1   11   17     -0.66      0.00
    0   11   17     -2.81      0.00
    1   11   17      0.68      0.00
    2   11   17     -0.78      0.00
    3   11   17     -0.63      0.00
    4   11   17     -0.02      0.00
    5   11   17      2.76      0.00
    6   11   17      1.65      0.00
  -20   12   17     -1.13      0.00
  -19   12   17      2.98      0.00
  -18   12   17      2.30      0.00
  -17   12   17     -0.76      0.00
  -16   12   17     -2.77      0.00
  -15   12   17     -0.92      0.00
  -14   12   17      0.10      0.00
  -13   12   17      2.30      0.00
  -12   12   17      3.01      0.00
  -11   12   17     -3.91      0.00
  -10   12   17      2.72      0.00
   -9   12   17      2.88      0.00
   -8   12   17     -4.08      0.00
   -7   12   17     -0.19      0.00
   -6   12   17     -5.47      0.00
   -5   12   17      4.42      0.00
   -4   12   17      4.20      0.00
   -3   12   17     -0.12      0.00
   -2   12   17      1.16      0.00
   -1   12   17     -1.92      0.00
    0   12   17      1.83      0.00
    1   12   17      0.25      0.00
    2   12   17     -3.70      0.00
    3   12   17      1.26      0.00
    4   12   17      2.70      0.00
    5   12   17      2.17      0.00
    6   12   17      2.91      0.00
  -19   13   17     -0.96      0.00
  -18   13   17      0.99      0.00
  -17   13   17     -2.62      0.00
  -16   13   17     -2.37      0.00
  -15   13   17      3.71      0.00
  -14   13   17      2.82      0.00
  -13   13   17     -1.80      0.00
  -12   13   17     -0.69      0.00
  -11   13   17     -2.38      0.00
  -10   13   17     -1.30      0.00
   -9   13   17      0.04      0.00
   -8   13   17      2.12      0.00
   -7   13   17     -1.78      0.00
   -6   13   17      2.57      0.00
   -5   13   17     -1.63      0.00
   -4   13   17      4.78      0.00
   -3   13   17     -1.29      0.00
   -2   13   17     -0.82      0.00
   -1   13   17      4.06      0.00
    0   13   17     -2.52      0.00
    1   13   17     -1.26      0.00
    2   13   17      2.98      0.00
    3   13   17     -0.04      0.00
    4   13   17      2.06      0.00
    5   13   17      1.60      0.00
  -19   14   17     -0.01      0.00
  -18   14   17     -1.68      0.00
  -17   14   17      1.76      0.00
  -16   14   17     -0.36      0.00
  -15   14   17     -0.02      0.00
  -14   14   17      4.09      0.00
  -13   14   17     -2.11      0.00
  -12   14   17     -7.34      0.00
  -11   14   17     -0.75      0.00
  -10   14   17     -3.53      0.00
   -9   14   17      3.17      0.00
   -8   14   17      2.07      0.00
   -7   14   17      1.26      0.00
   -6   14   17     -2.05      0.00
   -5   14   17      1.27      0.00
   -4   14   17     -0.09      0.00
   -3   14   17      2.96      0.00
   -2   14   17     -2.49      0.00
   -1   14   17     -0.58      0.00
    0   14   17      4.46      0.00
    1   14   17      1.35      0.00
    2   14   17     -2.63      0.00
    3   14   17      0.71      0.00
    4   14   17      1.27      0.00
    5   14   17      0.66      0.00
  -18   15   17     -0.25      0.00
  -17   15   17      0.44      0.00
  -16   15   17      1.83      0.00
  -15   15   17      0.00      0.00
  -14   15   17     -2.91      0.00
  -13   15   17     -0.99      0.00
  -12   15   17     -2.95      0.00
  -11   15   17     -5.01      0.00
  -10   15   17      2.91      0.00
   -9   15   17     -2.55      0.00
   -8   15   17      0.72      0.00
   -7   15   17      0.89      0.00
   -6   15   17      0.13      0.00
   -5   15   17     -2.51      0.00
   -4   15   17     -0.51      0.00
   -3   15   17      1.65      0.00
   -2   15   17      2.53      0.00
   -1   15   17      0.54      0.00
    0   15   17      2.33      0.00
    1   15   17     -1.90      0.00
    2   15   17     -0.14      0.00
    3   15   17      0.58      0.00
    4   15   17     -1.20      0.00
  -18   16   17      1.20      0.00
  -17   16   17     -0.72      0.00
  -16   16   17      0.06      0.00
  -15   16   17     -1.88      0.00
  -14   16   17     -0.85      0.00
  -13   16   17      0.87      0.00
  -12   16   17      0.65      0.00
  -11   16   17     -3.21      0.00
  -10   16   17     -4.81      0.00
   -9   16   17      0.65      0.00
   -8   16   17     -1.29      0.00
   -7   16   17     -2.33      0.00
   -6   16   17     -2.70      0.00
   -5   16   17      1.33      0.00
   -4   16   17      3.50      0.00
   -3   16   17      1.69      0.00
   -2   16   17      1.30      0.00
   -1   16   17     -2.72      0.00
    0   16   17     -0.88      0.00
    1   16   17      5.99      0.00
    2   16   17     -1.65      0.00
    3   16   17     -3.30      0.00
    4   16   17     -0.84      0.00
  -17   17   17      0.31      0.00
  -16   17   17     -3.08      0.00
  -15   17   17      1.26      0.00
  -14   17   17      1.93      0.00
  -13   17   17      0.77      0.00
  -12   17   17     -0.54      0.00
  -11   17   17     -1.49      0.00
  -10   17   17     -3.35      0.00
   -9   17   17     -3.32      0.00
   -8   17   17     -2.09      0.00
   -7   17   17     -0.58      0.00
   -6   17   17     -1.65      0.00
   -5   17   17      2.49      0.00
   -4   17   17      4.67      0.00
   -3   17   17     -1.04      0.00
   -2   17   17     -3.23      0.00
   -1   17   17      3.94      0.00
    0   17   17      1.62      0.00
    1   17   17     -0.66      0.00
    2   17   17     -0.07      0.00
    3   17   17     -0.85      0.00
  -16   18   17      0.93      0.00
  -15   18   17     -1.16      0.00
  -14   18   17      0.13      0.00
  -13   18   17      1.12      0.00
  -12   18   17      1.97      0.00
  -11   18   17     -0.74      0.00
  -10   18   17     -2.69      0.00
   -9   18   17     -4.64      0.00
   -8   18   17     -0.77      0.00
   -7   18   17      1.35      0.00
   -6   18   17      1.67      0.00
   -5   18   17     -2.54      0.00
   -4   18   17      1.42      0.00
   -3   18   17      3.38      0.00
   -2   18   17      1.08      0.00
   -1   18   17     -0.73      0.00
    0   18   17      0.28      0.00
    1   18   17      0.96      0.00
    2   18   17      2.70      0.00
  -16   19   17     -0.36      0.00
  -15   19   17     -2.70      0.00
  -14   19   17      1.02      0.00
  -13   19   17      2.27      0.00
  -12   19   17     -0.23      0.00
  -11   19   17     -0.04      0.00
  -10   19   17     -1.09      0.00
   -9   19   17      0.23      0.00
   -8   19   17     -1.90      0.00
   -7   19   17      1.02      0.00
   -6   19   17      0.17      0.00
   -5   19   17     -0.21      0.00
   -4   19   17     -1.88      0.00
   -3   19   17      3.24      0.00
   -2   19   17      2.00      0.00
   -1   19   17     -1.97      0.00
    0   19   17      2.27      0.00
    1   19   17      2.68      0.00
  -15   20   17      1.23      0.00
  -14   20   17     -2.04      0.00
  -13   20   17      1.04      0.00
  -12   20   17      1.97      0.00
  -11   20   17      0.59      0.00
  -10   20   17      0.04      0.00
   -9   20   17     -0.73      0.00
   -8   20   17      1.11      0.00
   -7   20   17     -2.04      0.00
   -6   20   17     -0.82      0.00
   -5   20   17     -2.19      0.00
   -4   20   17      1.03      0.00
   -3   20   17      0.60      0.00
   -2   20   17      2.43      0.00
   -1   20   17      1.41      0.00
    0   20   17     -2.26      0.00
  -13   21   17     -1.01      0.00
  -12   21   17      1.48      0.00
  -11   21   17     -0.85      0.00
  -10   21   17      0.28      0.00
   -9   21   17      0.52      0.00
   -8   21   17     -1.09      0.00
   -7   21   17      0.38      0.00
   -6   21   17     -2.37      0.00
   -5   21   17     -1.17      0.00
   -4   21   17      0.02      0.00
   -3   21   17      1.38      0.00
   -2   21   17     -0.84      0.00
   -1   21   17     -0.07      0.00
  -12   22   17     -2.08      0.00
  -11   22   17      1.77      0.00
  -10   22   17      1.03      0.00
   -9   22   17      0.83      0.00
   -8   22   17     -1.66      0.00
   -7   22   17     -0.54      0.00
   -6   22   17      1.30      0.00
   -5   22   17     -1.56      0.00
   -4   22   17     -2.10      0.00
   -3   22   17     -0.69      0.00
   -2   22   17      1.17      0.00
   -9   23   17      0.10      0.00
   -8   23   17      0.18      0.00
   -7   23   17     -0.10      0.00
   -6   23   17      1.58      0.00
   -5   23   17     -1.39      0.00
  -20    0   18      2.39      0.00
  -18    0   18     -2.73      0.00
  -16    0   18     -2.53      0.00
  -14    0   18      6.67      0.00
  -12    0   18     -4.41      0.00
  -10    0   18      1.71      0.00
   -8    0   18      4.85      0.00
   -6    0   18     -5.11      0.00
   -4    0   18      2.57      0.00
   -2    0   18     -5.24      0.00
    0    0   18      6.20      0.00
    2    0   18     -0.99      0.00
    4    0   18     -0.63      0.00
    6    0   18      0.28      0.00
  -21    1   18      0.07      0.00
  -20    1   18     -1.37      0.00
  -19    1   18      2.45      0.00
  -18    1   18     -0.05      0.00
  -17    1   18     -3.52      0.00
  -16    1   18     -0.56      0.00
  -15    1   18      1.48      0.00
  -14    1   18     -2.87      0.00
  -13    1   18      1.81      0.00
  -12    1   18     -0.49      0.00
  -11    1   18     -2.19      0.00
  -10    1   18      2.15      0.00
   -9    1   18      4.77      0.00
   -8    1   18      2.14      0.00
   -7    1   18     -0.33      0.00
   -6    1   18      0.42      0.00
   -5    1   18     -2.67      0.00
   -4    1   18     -2.39      0.00
   -3    1   18      1.31      0.00
   -2    1   18      1.43      0.00
   -1    1   18     -0.51      0.00
    0    1   18     -1.60      0.00
    1    1   18      1.22      0.00
    2    1   18     -1.92      0.00
    3    1   18      0.98      0.00
    4    1   18     -1.19      0.00
    5    1   18     -0.61      0.00
    6    1   18      0.63      0.00
    7    1   18      1.82      0.00
  -21    2   18     -2.09      0.00
  -20    2   18      1.25      0.00
  -19    2   18      0.36      0.00
  -18    2   18      2.79      0.00
  -17    2   18     -2.78      0.00
  -16    2   18     -4.21      0.00
  -15    2   18     -5.21      0.00
  -14    2   18      1.44      0.00
  -13    2   18     -0.17      0.00
  -12    2   18      1.37      0.00
  -11    2   18      0.28      0.00
  -10    2   18      0.37      0.00
   -9    2   18      0.22      0.00
   -8    2   18      4.83      0.00
   -7    2   18      5.94      0.00
   -6    2   18     -6.19      0.00
   -5    2   18     -3.84      0.00
   -4    2   18      6.21      0.00
   -3    2   18      1.93      0.00
   -2    2   18     -2.52      0.00
   -1    2   18     -6.64      0.00
    0    2   18      0.89      0.00
    1    2   18      1.63      0.00
    2    2   18      0.78      0.00
    3    2   18     -1.87      0.00
    4    2   18      0.97      0.00
    5    2   18     -1.26      0.00
    6    2   18      2.38      0.00
    7    2   18      0.68      0.00
  -21    3   18      0.43      0.00
  -20    3   18     -0.44      0.00
  -19    3   18      0.08      0.00
  -18    3   18     -0.44      0.00
  -17    3   18      1.15      0.00
  -16    3   18    -10.97      0.00
  -15    3   18     -0.64      0.00
  -14    3   18      1.45      0.00
  -13    3   18     -1.15      0.00
  -12    3   18     -0.80      0.00
  -11    3   18      0.76      0.00
  -10    3   18     -3.51      0.00
   -9    3   18      1.82      0.00
   -8    3   18      3.36      0.00
   -7    3   18      3.35      0.00
   -6    3   18      3.94      0.00
   -5    3   18     -1.62      0.00
   -4    3   18     -1.30      0.00
   -3    3   18      0.27      0.00
   -2    3   18     -7.04      0.00
   -1    3   18      1.83      0.00
    0    3   18     -0.83      0.00
    1    3   18      1.48      0.00
    2    3   18     -0.98      0.00
    3    3   18      0.93      0.00
    4    3   18      0.27      0.00
    5    3   18      0.20      0.00
    6    3   18     -2.20      0.00
  -21    4   18     -0.83      0.00
  -20    4   18     -1.22      0.00
  -19    4   18      0.34      0.00
  -18    4   18     -0.61      0.00
  -17    4   18     -3.05      0.00
  -16    4   18      1.09      0.00
  -15    4   18     -8.85      0.00
  -14    4   18      1.68      0.00
  -13    4   18      0.41      0.00
  -12    4   18     -6.12      0.00
  -11    4   18     -3.56      0.00
  -10    4   18      2.25      0.00
   -9    4   18     -1.44      0.00
   -8    4   18      1.79      0.00
   -7    4   18      7.47      0.00
   -6    4   18      4.84      0.00
   -5    4   18     -5.82      0.00
   -4    4   18     -6.70      0.00
   -3    4   18      0.94      0.00
   -2    4   18      3.07      0.00
   -1    4   18     -6.47      0.00
    0    4   18      2.93      0.00
    1    4   18      0.23      0.00
    2    4   18     -0.57      0.00
    3    4   18     -1.71      0.00
    4    4   18      2.00      0.00
    5    4   18     -1.19      0.00
    6    4   18     -0.41      0.00
  -21    5   18      0.81      0.00
  -20    5   18     -1.69      0.00
  -19    5   18     -0.44      0.00
  -18    5   18     -0.11      0.00
  -17    5   18      0.90      0.00
  -16    5   18     -1.57      0.00
  -15    5   18     -2.02      0.00
  -14    5   18    -10.26      0.00
  -13    5   18     -0.83      0.00
  -12    5   18     -0.20      0.00
  -11    5   18     -1.56      0.00
  -10    5   18     -5.45      0.00
   -9    5   18      0.21      0.00
   -8    5   18      4.60      0.00
   -7    5   18      1.31      0.00
   -6    5   18      0.48      0.00
   -5    5   18     -2.04      0.00
   -4    5   18     -6.94      0.00
   -3    5   18      1.27      0.00
   -2    5   18      3.90      0.00
   -1    5   18      0.58      0.00
    0    5   18     -5.36      0.00
    1    5   18     -0.57      0.00
    2    5   18     -1.13      0.00
    3    5   18      0.26      0.00
    4    5   18      0.03      0.00
    5    5   18      2.08      0.00
    6    5   18     -1.21      0.00
  -21    6   18      0.36      0.00
  -20    6   18     -0.09      0.00
  -19    6   18     -2.53      0.00
  -18    6   18      2.91      0.00
  -17    6   18      0.86      0.00
  -16    6   18     -3.16      0.00
  -15    6   18     -6.58      0.00
  -14    6   18     -2.76      0.00
  -13    6   18     -1.59      0.00
  -12    6   18      2.42      0.00
  -11    6   18     -6.38      0.00
  -10    6   18     -0.99      0.00
   -9    6   18     -2.84      0.00
   -8    6   18     -2.83      0.00
   -7    6   18      3.51      0.00
   -6    6   18     -2.18      0.00
   -5    6   18     -1.51      0.00
   -4    6   18      1.73      0.00
   -3    6   18     -0.62      0.00
   -2    6   18      4.40      0.00
   -1    6   18     -2.23      0.00
    0    6   18     -8.29      0.00
    1    6   18     -1.36      0.00
    2    6   18      2.38      0.00
    3    6   18     -0.30      0.00
    4    6   18      0.81      0.00
    5    6   18      0.06      0.00
    6    6   18     -0.09      0.00
  -21    7   18     -0.86      0.00
  -20    7   18      0.38      0.00
  -19    7   18      1.11      0.00
  -18    7   18     -2.94      0.00
  -17    7   18      0.90      0.00
  -16    7   18     -2.59      0.00
  -15    7   18     -1.43      0.00
  -14    7   18      1.50      0.00
  -13    7   18     -0.50      0.00
  -12    7   18     -4.87      0.00
  -11    7   18      0.33      0.00
  -10    7   18     -4.60      0.00
   -9    7   18     -3.51      0.00
   -8    7   18     -4.39      0.00
   -7    7   18     -2.28      0.00
   -6    7   18      6.29      0.00
   -5    7   18      0.35      0.00
   -4    7   18      2.64      0.00
   -3    7   18      1.06      0.00
   -2    7   18     -6.82      0.00
   -1    7   18     -2.86      0.00
    0    7   18      1.47      0.00
    1    7   18     -2.85      0.00
    2    7   18     -0.13      0.00
    3    7   18      0.77      0.00
    4    7   18      0.43      0.00
    5    7   18     -1.00      0.00
    6    7   18     -1.91      0.00
  -21    8   18      1.56      0.00
  -20    8   18      0.70      0.00
  -19    8   18     -2.63      0.00
  -18    8   18     -2.44      0.00
  -17    8   18      0.69      0.00
  -16    8   18      5.15      0.00
  -15    8   18     -1.70      0.00
  -14    8   18      0.02      0.00
  -13    8   18     -0.53      0.00
  -12    8   18     -2.98      0.00
  -11    8   18     -2.79      0.00
  -10    8   18     -2.80      0.00
   -9    8   18     -1.31      0.00
   -8    8   18     -4.54      0.00
   -7    8   18     -1.27      0.00
   -6    8   18      5.19      0.00
   -5    8   18      5.69      0.00
   -4    8   18     -6.60      0.00
   -3    8   18     -1.46      0.00
   -2    8   18      0.02      0.00
   -1    8   18     -0.63      0.00
    0    8   18     -3.20      0.00
    1    8   18      2.25      0.00
    2    8   18     -0.24      0.00
    3    8   18     -1.33      0.00
    4    8   18     -1.38      0.00
    5    8   18     -0.20      0.00
    6    8   18     -1.35      0.00
  -20    9   18     -0.95      0.00
  -19    9   18      0.22      0.00
  -18    9   18     -0.95      0.00
  -17    9   18      0.28      0.00
  -16    9   18      4.62      0.00
  -15    9   18      3.55      0.00
  -14    9   18     -6.22      0.00
  -13    9   18     -2.22      0.00
  -12    9   18      0.35      0.00
  -11    9   18     -0.06      0.00
  -10    9   18      2.96      0.00
   -9    9   18     -6.89      0.00
   -8    9   18      0.56      0.00
   -7    9   18     -1.83      0.00
   -6    9   18      1.95      0.00
   -5    9   18      3.03      0.00
   -4    9   18     -3.26      0.00
   -3    9   18     -6.09      0.00
   -2    9   18      6.05      0.00
   -1    9   18      0.51      0.00
    0    9   18      1.34      0.00
    1    9   18     -3.22      0.00
    2    9   18     -0.47      0.00
    3    9   18     -1.08      0.00
    4    9   18     -0.62      0.00
    5    9   18     -0.41      0.00
  -20   10   18      0.78      0.00
  -19   10   18      0.25      0.00
  -18   10   18      1.47      0.00
  -17   10   18      1.36      0.00
  -16   10   18      1.50      0.00
  -15   10   18     -0.46      0.00
  -14   10   18     -4.45      0.00
  -13   10   18     -2.18      0.00
  -12   10   18      6.14      0.00
  -11   10   18      4.80      0.00
  -10   10   18     -4.65      0.00
   -9   10   18      0.88      0.00
   -8   10   18     -5.23      0.00
   -7   10   18      3.42      0.00
   -6   10   18     -3.10      0.00
   -5   10   18     -1.86      0.00
   -4   10   18      2.87      0.00
   -3   10   18      0.42      0.00
   -2   10   18     -0.08      0.00
   -1   10   18      7.12      0.00
    0   10   18     -5.53      0.00
    1   10   18     -1.88      0.00
    2   10   18      0.00      0.00
    3   10   18      0.80      0.00
    4   10   18      0.04      0.00
    5   10   18      0.84      0.00
  -20   11   18     -0.32      0.00
  -19   11   18      2.65      0.00
  -18   11   18      2.04      0.00
  -17   11   18      0.40      0.00
  -16   11   18     -4.75      0.00
  -15   11   18     -1.90      0.00
  -14   11   18      4.90      0.00
  -13   11   18      1.23      0.00
  -12   11   18      1.79      0.00
  -11   11   18      0.64      0.00
  -10   11   18      0.00      0.00
   -9   11   18     -1.53      0.00
   -8   11   18      0.62      0.00
   -7   11   18     -6.66      0.00
   -6   11   18      1.61      0.00
   -5   11   18      1.67      0.00
   -4   11   18      3.27      0.00
   -3   11   18      3.73      0.00
   -2   11   18     -1.54      0.00
   -1   11   18     -4.33      0.00
    0   11   18      3.91      0.00
    1   11   18     -1.24      0.00
    2   11   18      0.06      0.00
    3   11   18     -0.01      0.00
    4   11   18      2.20      0.00
    5   11   18      1.91      0.00
  -19   12   18      1.31      0.00
  -18   12   18     -0.86      0.00
  -17   12   18     -3.74      0.00
  -16   12   18      2.70      0.00
  -15   12   18      1.24      0.00
  -14   12   18      1.16      0.00
  -13   12   18      3.25      0.00
  -12   12   18     -5.50      0.00
  -11   12   18      0.60      0.00
  -10   12   18      2.16      0.00
   -9   12   18     -2.49      0.00
   -8   12   18     -0.54      0.00
   -7   12   18     -0.34      0.00
   -6   12   18      2.15      0.00
   -5   12   18      3.92      0.00
   -4   12   18     -1.26      0.00
   -3   12   18     -0.67      0.00
   -2   12   18      0.12      0.00
   -1   12   18      2.52      0.00
    0   12   18     -0.77      0.00
    1   12   18     -0.80      0.00
    2   12   18      0.60      0.00
    3   12   18      2.89      0.00
    4   12   18      0.27      0.00
  -19   13   18     -0.44      0.00
  -18   13   18     -0.86      0.00
  -17   13   18      1.09      0.00
  -16   13   18      1.26      0.00
  -15   13   18      3.33      0.00
  -14   13   18     -2.34      0.00
  -13   13   18     -3.70      0.00
  -12   13   18      0.22      0.00
  -11   13   18     -3.19      0.00
  -10   13   18      1.28      0.00
   -9   13   18      3.17      0.00
   -8   13   18     -1.43      0.00
   -7   13   18      2.35      0.00
   -6   13   18     -2.75      0.00
   -5   13   18      2.92      0.00
   -4   13   18      0.41      0.00
   -3   13   18     -1.74      0.00
   -2   13   18      3.54      0.00
   -1   13   18     -0.92      0.00
    0   13   18      0.05      0.00
    1   13   18      2.14      0.00
    2   13   18     -0.43      0.00
    3   13   18     -0.58      0.00
    4   13   18      1.04      0.00
  -18   14   18      2.33      0.00
  -17   14   18     -0.52      0.00
  -16   14   18      0.16      0.00
  -15   14   18      1.74      0.00
  -14   14   18     -1.77      0.00
  -13   14   18     -5.09      0.00
  -12   14   18     -0.86      0.00
  -11   14   18      1.05      0.00
  -10   14   18      0.40      0.00
   -9   14   18      0.73      0.00
   -8   14   18      0.61      0.00
   -7   14   18     -4.27      0.00
   -6   14   18      2.33      0.00
   -5   14   18     -1.47      0.00
   -4   14   18      3.12      0.00
   -3   14   18     -0.53      0.00
   -2   14   18     -1.28      0.00
   -1   14   18      5.18      0.00
    0   14   18      0.48      0.00
    1   14   18     -3.77      0.00
    2   14   18      0.12      0.00
    3   14   18      0.53      0.00
  -18   15   18     -1.23      0.00
  -17   15   18      2.03      0.00
  -16   15   18     -0.51      0.00
  -15   15   18     -3.25      0.00
  -14   15   18      1.58      0.00
  -13   15   18      0.50      0.00
  -12   15   18     -2.63      0.00
  -11   15   18      1.76      0.00
  -10   15   18     -1.57      0.00
   -9   15   18     -2.65      0.00
   -8   15   18     -1.41      0.00
   -7   15   18      0.81      0.00
   -6   15   18     -3.79      0.00
   -5   15   18      1.80      0.00
   -4   15   18      1.35      0.00
   -3   15   18      3.69      0.00
   -2   15   18     -0.24      0.00
   -1   15   18     -0.36      0.00
    0   15   18      0.05      0.00
    1   15   18      0.10      0.00
    2   15   18     -0.78      0.00
    3   15   18     -1.70      0.00
  -17   16   18     -1.42      0.00
  -16   16   18     -1.14      0.00
  -15   16   18      2.21      0.00
  -14   16   18      1.51      0.00
  -13   16   18      2.45      0.00
  -12   16   18     -1.10      0.00
  -11   16   18     -3.78      0.00
  -10   16   18      0.14      0.00
   -9   16   18     -1.66      0.00
   -8   16   18     -2.30      0.00
   -7   16   18     -3.54      0.00
   -6   16   18      2.83      0.00
   -5   16   18      3.32      0.00
   -4   16   18      1.59      0.00
   -3   16   18     -1.57      0.00
   -2   16   18     -0.71      0.00
   -1   16   18     -0.81      0.00
    0   16   18      5.44      0.00
    1   16   18     -0.82      0.00
    2   16   18     -3.22      0.00
  -16   17   18      1.65      0.00
  -15   17   18      0.88      0.00
  -14   17   18      1.98      0.00
  -13   17   18      0.94      0.00
  -12   17   18      1.12      0.00
  -11   17   18     -1.50      0.00
  -10   17   18     -1.97      0.00
   -9   17   18     -0.80      0.00
   -8   17   18     -0.35      0.00
   -7   17   18      0.53      0.00
   -6   17   18     -0.38      0.00
   -5   17   18      2.52      0.00
   -4   17   18     -0.56      0.00
   -3   17   18     -1.78      0.00
   -2   17   18      2.56      0.00
   -1   17   18      2.30      0.00
    0   17   18     -1.83      0.00
    1   17   18      2.34      0.00
  -15   18   18      0.94      0.00
  -14   18   18      1.90      0.00
  -13   18   18      2.66      0.00
  -12   18   18      0.06      0.00
  -11   18   18      0.47      0.00
  -10   18   18     -1.64      0.00
   -9   18   18      0.14      0.00
   -8   18   18      2.09      0.00
   -7   18   18      0.83      0.00
   -6   18   18     -2.45      0.00
   -5   18   18     -1.10      0.00
   -4   18   18      2.99      0.00
   -3   18   18      1.51      0.00
   -2   18   18     -1.76      0.00
   -1   18   18      0.02      0.00
    0   18   18      2.21      0.00
    1   18   18      2.41      0.00
  -14   19   18      1.62      0.00
  -13   19   18     -0.32      0.00
  -12   19   18      1.93      0.00
  -11   19   18      0.45      0.00
  -10   19   18      2.09      0.00
   -9   19   18     -0.32      0.00
   -8   19   18     -0.02      0.00
   -7   19   18      0.29      0.00
   -6   19   18     -0.62      0.00
   -5   19   18     -2.48      0.00
   -4   19   18      0.91      0.00
   -3   19   18      1.99      0.00
   -2   19   18     -0.85      0.00
   -1   19   18      0.28      0.00
    0   19   18      2.23      0.00
  -13   20   18      2.52      0.00
  -12   20   18     -0.19      0.00
  -11   20   18      1.23      0.00
  -10   20   18     -0.31      0.00
   -9   20   18      1.09      0.00
   -8   20   18     -0.45      0.00
   -7   20   18     -0.80      0.00
   -6   20   18     -2.70      0.00
   -5   20   18      0.82      0.00
   -4   20   18      0.47      0.00
   -3   20   18      0.24      0.00
   -2   20   18      0.88      0.00
  -12   21   18      0.34      0.00
  -11   21   18      0.01      0.00
  -10   21   18      1.84      0.00
   -9   21   18     -0.64      0.00
   -8   21   18      0.38      0.00
   -7   21   18     -1.05      0.00
   -6   21   18     -0.15      0.00
   -5   21   18     -1.37      0.00
   -4   21   18      0.33      0.00
   -3   21   18     -0.57      0.00
   -9   22   18     -0.31      0.00
   -8   22   18     -0.45      0.00
   -7   22   18      2.09      0.00
   -6   22   18     -1.53      0.00
  -21    0   19     -0.09      0.00
  -19    0   19     -1.34      0.00
  -17    0   19     -4.82      0.00
  -15    0   19     -0.21      0.00
  -13    0   19     -8.30      0.00
  -11    0   19      2.95      0.00
   -9    0   19      7.20      0.00
   -7    0   19     -2.40      0.00
   -5    0   19      1.62      0.00
   -3    0   19     -3.92      0.00
   -1    0   19      2.94      0.00
    1    0   19     -2.30      0.00
    3    0   19     -1.60      0.00
    5    0   19      0.08      0.00
  -21    1   19     -1.20      0.00
  -20    1   19      1.36      0.00
  -19    1   19      1.37      0.00
  -18    1   19     -3.69      0.00
  -17    1   19     -0.02      0.00
  -16    1   19     -3.84      0.00
  -15    1   19     -2.87      0.00
  -14    1   19     -1.87      0.00
  -13    1   19      0.71      0.00
  -12    1   19     -5.16      0.00
  -11    1   19      0.22      0.00
  -10    1   19      5.57      0.00
   -9    1   19      0.40      0.00
   -8    1   19      3.74      0.00
   -7    1   19      1.19      0.00
   -6    1   19     -3.23      0.00
   -5    1   19     -0.63      0.00
   -4    1   19      2.94      0.00
   -3    1   19      2.52      0.00
   -2    1   19     -4.16      0.00
   -1    1   19     -3.45      0.00
    0    1   19      1.53      0.00
    1    1   19     -0.88      0.00
    2    1   19     -0.27      0.00
    3    1   19     -0.36      0.00
    4    1   19     -1.56      0.00
    5    1   19      0.51      0.00
  -21    2   19      0.07      0.00
  -20    2   19     -0.65      0.00
  -19    2   19      0.94      0.00
  -18    2   19      0.53      0.00
  -17    2   19     -7.02      0.00
  -16    2   19     -3.07      0.00
  -15    2   19      0.63      0.00
  -14    2   19     -0.29      0.00
  -13    2   19     -2.92      0.00
  -12    2   19     -1.80      0.00
  -11    2   19     -2.89      0.00
  -10    2   19     -1.35      0.00
   -9    2   19      5.59      0.00
   -8    2   19      5.14      0.00
   -7    2   19     -1.90      0.00
   -6    2   19     -1.73      0.00
   -5    2   19      4.92      0.00
   -4    2   19      2.46      0.00
   -3    2   19     -4.75      0.00
   -2    2   19     -4.40      0.00
   -1    2   19      0.37      0.00
    0    2   19      0.94      0.00
    1    2   19      1.17      0.00
    2    2   19     -2.06      0.00
    3    2   19     -0.07      0.00
    4    2   19     -1.22      0.00
    5    2   19      0.43      0.00
  -21    3   19     -1.91      0.00
  -20    3   19     -0.75      0.00
  -19    3   19     -0.90      0.00
  -18    3   19      0.44      0.00
  -17    3   19     -3.50      0.00
  -16    3   19     -2.96      0.00
  -15    3   19      1.93      0.00
  -14    3   19     -1.76      0.00
  -13    3   19     -4.11      0.00
  -12    3   19     -3.01      0.00
  -11    3   19     -4.88      0.00
  -10    3   19      0.13      0.00
   -9    3   19      1.71      0.00
   -8    3   19      4.04      0.00
   -7    3   19      6.29      0.00
   -6    3   19     -1.70      0.00
   -5    3   19     -4.90      0.00
   -4    3   19      0.37      0.00
   -3    3   19     -1.35      0.00
   -2    3   19      1.53      0.00
   -1    3   19     -0.79      0.00
    0    3   19     -0.04      0.00
    1    3   19     -2.10      0.00
    2    3   19     -0.20      0.00
    3    3   19     -0.24      0.00
    4    3   19      0.41      0.00
    5    3   19     -2.72      0.00
  -21    4   19     -2.01      0.00
  -20    4   19     -0.65      0.00
  -19    4   19     -0.41      0.00
  -18    4   19     -0.87      0.00
  -17    4   19      2.65      0.00
  -16    4   19     -4.68      0.00
  -15    4   19     -2.55      0.00
  -14    4   19      1.21      0.00
  -13    4   19     -5.73      0.00
  -12    4   19     -4.71      0.00
  -11    4   19      0.46      0.00
  -10    4   19     -4.59      0.00
   -9    4   19      0.44      0.00
   -8    4   19      4.40      0.00
   -7    4   19      2.04      0.00
   -6    4   19     -4.12      0.00
   -5    4   19     -5.79      0.00
   -4    4   19      2.07      0.00
   -3    4   19      6.52      0.00
   -2    4   19     -4.75      0.00
   -1    4   19      0.90      0.00
    0    4   19     -1.73      0.00
    1    4   19     -1.74      0.00
    2    4   19     -1.86      0.00
    3    4   19      1.70      0.00
    4    4   19     -0.99      0.00
    5    4   19      0.53      0.00
  -21    5   19     -0.53      0.00
  -20    5   19     -1.94      0.00
  -19    5   19      0.33      0.00
  -18    5   19      1.03      0.00
  -17    5   19     -0.27      0.00
  -16    5   19     -0.35      0.00
  -15    5   19     -7.43      0.00
  -14    5   19     -1.29      0.00
  -13    5   19      4.38      0.00
  -12    5   19     -2.90      0.00
  -11    5   19     -7.88      0.00
  -10    5   19     -2.10      0.00
   -9    5   19     -1.37      0.00
   -8    5   19     -1.24      0.00
   -7    5   19     -0.98      0.00
   -6    5   19      0.12      0.00
   -5    5   19     -2.90      0.00
   -4    5   19      1.11      0.00
   -3    5   19      4.91      0.00
   -2    5   19      2.94      0.00
   -1    5   19     -8.89      0.00
    0    5   19     -1.21      0.00
    1    5   19     -0.05      0.00
    2    5   19      0.24      0.00
    3    5   19     -1.24      0.00
    4    5   19      2.47      0.00
    5    5   19     -1.34      0.00
  -20    6   19     -1.38      0.00
  -19    6   19     -0.22      0.00
  -18    6   19      1.57      0.00
  -17    6   19     -1.77      0.00
  -16    6   19     -3.33      0.00
  -15    6   19      1.43      0.00
  -14    6   19      1.27      0.00
  -13    6   19      0.98      0.00
  -12    6   19     -4.71      0.00
  -11    6   19     -2.45      0.00
  -10    6   19     -5.44      0.00
   -9    6   19     -5.94      0.00
   -8    6   19     -0.14      0.00
   -7    6   19      0.26      0.00
   -6    6   19     -0.80      0.00
   -5    6   19      3.73      0.00
   -4    6   19     -0.61      0.00
   -3    6   19      1.01      0.00
   -2    6   19     -2.02      0.00
   -1    6   19     -3.18      0.00
    0    6   19     -2.28      0.00
    1    6   19      2.25      0.00
    2    6   19     -0.80      0.00
    3    6   19      0.05      0.00
    4    6   19     -1.55      0.00
    5    6   19     -0.14      0.00
  -20    7   19      0.37      0.00
  -19    7   19     -2.60      0.00
  -18    7   19     -0.59      0.00
  -17    7   19      2.02      0.00
  -16    7   19      0.24      0.00
  -15    7   19      2.40      0.00
  -14    7   19      0.60      0.00
  -13    7   19     -3.96      0.00
  -12    7   19      2.09      0.00
  -11    7   19     -4.97      0.00
  -10    7   19     -2.67      0.00
   -9    7   19     -4.42      0.00
   -8    7   19     -4.55      0.00
   -7    7   19      4.96      0.00
   -6    7   19      2.05      0.00
   -5    7   19     -1.77      0.00
   -4    7   19      0.42      0.00
   -3    7   19     -6.30      0.00
   -2    7   19      0.46      0.00
   -1    7   19      3.80      0.00
    0    7   19     -0.65      0.00
    1    7   19     -1.75      0.00
    2    7   19     -0.31      0.00
    3    7   19     -1.50      0.00
    4    7   19     -1.26      0.00
  -20    8   19     -1.83      0.00
  -19    8   19     -1.03      0.00
  -18    8   19      1.09      0.00
  -17    8   19      3.53      0.00
  -16    8   19      0.84      0.00
  -15    8   19     -1.73      0.00
  -14    8   19      0.69      0.00
  -13    8   19     -0.11      0.00
  -12    8   19     -2.08      0.00
  -11    8   19      3.28      0.00
  -10    8   19     -2.91      0.00
   -9    8   19     -3.13      0.00
   -8    8   19     -2.15      0.00
   -7    8   19      0.07      0.00
   -6    8   19      4.09      0.00
   -5    8   19     -6.16      0.00
   -4    8   19     -3.73      0.00
   -3    8   19      4.74      0.00
   -2    8   19      0.56      0.00
   -1    8   19     -0.66      0.00
    0    8   19      2.26      0.00
    1    8   19     -0.46      0.00
    2    8   19     -2.56      0.00
    3    8   19     -1.87      0.00
    4    8   19     -0.46      0.00
  -20    9   19      1.57      0.00
  -19    9   19      0.59      0.00
  -18    9   19     -1.10      0.00
  -17    9   19      2.57      0.00
  -16    9   19      2.75      0.00
  -15    9   19     -4.79      0.00
  -14    9   19     -1.76      0.00
  -13    9   19      4.32      0.00
  -12    9   19      4.36      0.00
  -11    9   19      1.14      0.00
  -10    9   19     -3.24      0.00
   -9    9   19     -1.85      0.00
   -8    9   19     -1.19      0.00
   -7    9   19     -0.63      0.00
   -6    9   19     -0.79      0.00
   -5    9   19     -0.13      0.00
   -4    9   19     -4.47      0.00
   -3    9   19      4.18      0.00
   -2    9   19      4.31      0.00
   -1    9   19      0.17      0.00
    0    9   19     -3.00      0.00
    1    9   19      0.06      0.00
    2    9   19     -0.07      0.00
    3    9   19     -0.31      0.00
    4    9   19     -0.70      0.00
  -19   10   19      1.11      0.00
  -18   10   19      1.59      0.00
  -17   10   19     -1.29      0.00
  -16   10   19     -1.67      0.00
  -15   10   19      0.01      0.00
  -14   10   19      0.04      0.00
  -13   10   19      6.67      0.00
  -12   10   19      3.88      0.00
  -11   10   19     -4.27      0.00
  -10   10   19      1.48      0.00
   -9   10   19     -2.67      0.00
   -8   10   19      0.78      0.00
   -7   10   19     -2.71      0.00
   -6   10   19     -1.46      0.00
   -5   10   19      3.00      0.00
   -4   10   19      2.54      0.00
   -3   10   19     -2.75      0.00
   -2   10   19      3.26      0.00
   -1   10   19     -2.16      0.00
    0   10   19     -0.28      0.00
    1   10   19      1.43      0.00
    2   10   19      1.07      0.00
    3   10   19     -0.31      0.00
    4   10   19      1.04      0.00
  -19   11   19      1.86      0.00
  -18   11   19     -1.43      0.00
  -17   11   19     -2.66      0.00
  -16   11   19      0.06      0.00
  -15   11   19      4.41      0.00
  -14   11   19      3.25      0.00
  -13   11   19     -2.65      0.00
  -12   11   19      0.29      0.00
  -11   11   19      2.00      0.00
  -10   11   19     -2.32      0.00
   -9   11   19      3.55      0.00
   -8   11   19     -5.67      0.00
   -7   11   19      2.06      0.00
   -6   11   19      3.02      0.00
   -5   11   19      0.73      0.00
   -4   11   19      1.03      0.00
   -3   11   19     -2.15      0.00
   -2   11   19     -4.21      0.00
   -1   11   19      4.87      0.00
    0   11   19      0.40      0.00
    1   11   19      0.25      0.00
    2   11   19      0.73      0.00
    3   11   19      1.08      0.00
  -18   12   19     -1.27      0.00
  -17   12   19      3.36      0.00
  -16   12   19      1.40      0.00
  -15   12   19     -0.75      0.00
  -14   12   19      0.26      0.00
  -13   12   19     -2.94      0.00
  -12   12   19     -1.37      0.00
  -11   12   19      3.76      0.00
  -10   12   19      0.95      0.00
   -9   12   19     -2.27      0.00
   -8   12   19      4.02      0.00
   -7   12   19     -1.04      0.00
   -6   12   19      1.69      0.00
   -5   12   19     -1.43      0.00
   -4   12   19     -2.48      0.00
   -3   12   19      1.52      0.00
   -2   12   19      2.22      0.00
   -1   12   19     -1.98      0.00
    0   12   19      0.47      0.00
    1   12   19      0.34      0.00
    2   12   19      1.76      0.00
    3   12   19     -0.87      0.00
  -18   13   19      1.63      0.00
  -17   13   19     -0.68      0.00
  -16   13   19      2.55      0.00
  -15   13   19     -2.70      0.00
  -14   13   19     -3.91      0.00
  -13   13   19      1.60      0.00
  -12   13   19     -0.01      0.00
  -11   13   19      0.92      0.00
  -10   13   19      3.24      0.00
   -9   13   19     -0.67      0.00
   -8   13   19     -1.73      0.00
   -7   13   19     -1.74      0.00
   -6   13   19      0.45      0.00
   -5   13   19      1.59      0.00
   -4   13   19     -1.23      0.00
   -3   13   19      0.83      0.00
   -2   13   19      0.10      0.00
   -1   13   19     -0.06      0.00
    0   13   19     -0.34      0.00
    1   13   19     -0.46      0.00
    2   13   19     -1.62      0.00
  -17   14   19      0.71      0.00
  -16   14   19     -0.52      0.00
  -15   14   19      0.07      0.00
  -14   14   19     -2.25      0.00
  -13   14   19      0.04      0.00
  -12   14   19      3.07      0.00
  -11   14   19     -0.11      0.00
  -10   14   19     -1.21      0.00
   -9   14   19     -0.64      0.00
   -8   14   19     -3.70      0.00
   -7   14   19      1.01      0.00
   -6   14   19     -1.68      0.00
   -5   14   19      1.84      0.00
   -4   14   19      0.94      0.00
   -3   14   19     -1.65      0.00
   -2   14   19      2.53      0.00
   -1   14   19     -0.50      0.00
    0   14   19     -3.37      0.00
    1   14   19     -0.25      0.00
    2   14   19      0.81      0.00
  -17   15   19     -0.88      0.00
  -16   15   19     -1.12      0.00
  -15   15   19      2.38      0.00
  -14   15   19      2.49      0.00
  -13   15   19     -1.37      0.00
  -12   15   19      0.66      0.00
  -11   15   19      0.03      0.00
  -10   15   19     -3.29      0.00
   -9   15   19     -1.01      0.00
   -8   15   19      1.28      0.00
   -7   15   19     -4.28      0.00
   -6   15   19      1.99      0.00
   -5   15   19      0.67      0.00
   -4   15   19      2.43      0.00
   -3   15   19     -1.15      0.00
   -2   15   19     -2.65      0.00
   -1   15   19      1.52      0.00
    0   15   19      0.80      0.00
    1   15   19     -1.55      0.00
  -16   16   19      2.74      0.00
  -15   16   19      1.36      0.00
  -14   16   19      2.03      0.00
  -13   16   19      0.38      0.00
  -12   16   19     -2.57      0.00
  -11   16   19      0.74      0.00
  -10   16   19      1.38      0.00
   -9   16   19     -1.46      0.00
   -8   16   19     -2.53      0.00
   -7   16   19      3.23      0.00
   -6   16   19      0.93      0.00
   -5   16   19      0.37      0.00
   -4   16   19     -3.94      0.00
   -3   16   19      0.26      0.00
   -2   16   19      0.16      0.00
   -1   16   19      2.72      0.00
    0   16   19      0.30      0.00
  -15   17   19      1.94      0.00
  -14   17   19      1.14      0.00
  -13   17   19      1.15      0.00
  -12   17   19      0.41      0.00
  -11   17   19      0.23      0.00
  -10   17   19      0.32      0.00
   -9   17   19      1.59      0.00
   -8   17   19      2.42      0.00
   -7   17   19     -2.35      0.00
   -6   17   19     -0.06      0.00
   -5   17   19     -1.31      0.00
   -4   17   19      0.27      0.00
   -3   17   19      0.30      0.00
   -2   17   19      1.44      0.00
   -1   17   19     -2.33      0.00
  -14   18   19      1.06      0.00
  -13   18   19      0.30      0.00
  -12   18   19      1.34      0.00
  -11   18   19      0.00      0.00
  -10   18   19      1.86      0.00
   -9   18   19      2.26      0.00
   -8   18   19      0.47      0.00
   -7   18   19     -0.88      0.00
   -6   18   19     -2.63      0.00
   -5   18   19      1.80      0.00
   -4   18   19      0.74      0.00
   -3   18   19     -1.60      0.00
   -2   18   19     -1.30      0.00
  -13   19   19      1.20      0.00
  -12   19   19      0.38      0.00
  -11   19   19      2.56      0.00
  -10   19   19     -0.06      0.00
   -9   19   19     -0.07      0.00
   -8   19   19      1.21      0.00
   -7   19   19     -0.80      0.00
   -6   19   19     -1.49      0.00
   -5   19   19     -0.56      0.00
   -4   19   19      1.18      0.00
   -3   19   19     -0.03      0.00
  -11   20   19     -0.67      0.00
  -10   20   19      1.30      0.00
   -9   20   19      0.58      0.00
   -8   20   19     -0.76      0.00
   -7   20   19     -1.29      0.00
   -6   20   19      0.51      0.00
   -5   20   19      0.92      0.00
  -20    0   20     -0.59      0.00
  -18    0   20     -2.84      0.00
  -16    0   20     -2.09      0.00
  -14    0   20     -7.52      0.00
  -12    0   20      0.30      0.00
  -10    0   20      4.27      0.00
   -8    0   20     -0.06      0.00
   -6    0   20      1.55      0.00
   -4    0   20     -0.59      0.00
   -2    0   20     -0.09      0.00
    0    0   20     -2.29      0.00
    2    0   20     -1.93      0.00
    4    0   20     -0.76      0.00
  -20    1   20      0.63      0.00
  -19    1   20     -1.77      0.00
  -18    1   20      0.23      0.00
  -17    1   20     -3.88      0.00
  -16    1   20     -0.51      0.00
  -15    1   20     -1.69      0.00
  -14    1   20      2.65      0.00
  -13    1   20     -7.27      0.00
  -12    1   20     -2.30      0.00
  -11    1   20      2.69      0.00
  -10    1   20     -1.61      0.00
   -9    1   20      4.26      0.00
   -8    1   20      1.74      0.00
   -7    1   20     -2.83      0.00
   -6    1   20     -0.42      0.00
   -5    1   20      4.90      0.00
   -4    1   20      1.84      0.00
   -3    1   20     -4.98      0.00
   -2    1   20     -3.30      0.00
   -1    1   20      1.75      0.00
    0    1   20      0.85      0.00
    1    1   20     -1.13      0.00
    2    1   20     -0.01      0.00
    3    1   20     -2.75      0.00
    4    1   20      0.23      0.00
  -20    2   20     -0.71      0.00
  -19    2   20      1.15      0.00
  -18    2   20     -4.85      0.00
  -17    2   20      0.06      0.00
  -16    2   20      1.34      0.00
  -15    2   20      1.61      0.00
  -14    2   20     -4.89      0.00
  -13    2   20     -0.70      0.00
  -12    2   20     -5.37      0.00
  -11    2   20     -3.50      0.00
  -10    2   20      3.73      0.00
   -9    2   20      2.20      0.00
   -8    2   20      0.85      0.00
   -7    2   20     -0.67      0.00
   -6    2   20      1.89      0.00
   -5    2   20      0.59      0.00
   -4    2   20     -3.42      0.00
   -3    2   20     -1.34      0.00
   -2    2   20      0.89      0.00
   -1    2   20      0.68      0.00
    0    2   20      0.90      0.00
    1    2   20     -1.66      0.00
    2    2   20     -1.64      0.00
    3    2   20     -0.32      0.00
    4    2   20     -0.84      0.00
  -20    3   20     -1.22      0.00
  -19    3   20     -0.26      0.00
  -18    3   20      1.78      0.00
  -17    3   20     -2.98      0.00
  -16    3   20      1.83      0.00
  -15    3   20     -0.23      0.00
  -14    3   20     -2.04      0.00
  -13    3   20     -3.82      0.00
  -12    3   20     -2.46      0.00
  -11    3   20     -2.66      0.00
  -10    3   20     -1.69      0.00
   -9    3   20      2.36      0.00
   -8    3   20      3.97      0.00
   -7    3   20     -2.21      0.00
   -6    3   20     -7.45      0.00
   -5    3   20      0.51      0.00
   -4    3   20      3.45      0.00
   -3    3   20      1.44      0.00
   -2    3   20     -0.29      0.00
   -1    3   20     -1.38      0.00
    0    3   20     -2.25      0.00
    1    3   20      0.05      0.00
    2    3   20      0.88      0.00
    3    3   20     -0.01      0.00
    4    3   20     -1.98      0.00
  -20    4   20      0.11      0.00
  -19    4   20     -0.26      0.00
  -18    4   20      1.36      0.00
  -17    4   20     -0.37      0.00
  -16    4   20     -3.93      0.00
  -15    4   20      2.47      0.00
  -14    4   20     -0.94      0.00
  -13    4   20     -1.56      0.00
  -12    4   20     -0.52      0.00
  -11    4   20     -5.25      0.00
  -10    4   20     -3.29      0.00
   -9    4   20     -0.57      0.00
   -8    4   20     -0.62      0.00
   -7    4   20     -2.88      0.00
   -6    4   20     -3.26      0.00
   -5    4   20      0.74      0.00
   -4    4   20      6.56      0.00
   -3    4   20     -2.04      0.00
   -2    4   20     -1.85      0.00
   -1    4   20     -1.20      0.00
    0    4   20     -0.52      0.00
    1    4   20      0.13      0.00
    2    4   20      1.22      0.00
    3    4   20     -0.47      0.00
  -20    5   20     -0.51      0.00
  -19    5   20      0.51      0.00
  -18    5   20      0.35      0.00
  -17    5   20     -0.10      0.00
  -16    5   20     -3.04      0.00
  -15    5   20     -0.54      0.00
  -14    5   20      7.92      0.00
  -13    5   20     -1.70      0.00
  -12    5   20     -6.45      0.00
  -11    5   20     -2.44      0.00
  -10    5   20     -4.78      0.00
   -9    5   20     -2.83      0.00
   -8    5   20     -1.53      0.00
   -7    5   20      1.05      0.00
   -6    5   20     -1.51      0.00
   -5    5   20     -0.47      0.00
   -4    5   20      2.09      0.00
   -3    5   20      3.10      0.00
   -2    5   20     -7.46      0.00
   -1    5   20     -0.64      0.00
    0    5   20      2.87      0.00
    1    5   20      1.28      0.00
    2    5   20     -1.21      0.00
    3    5   20      1.76      0.00
  -20    6   20     -0.85      0.00
  -19    6   20      1.06      0.00
  -18    6   20     -0.70      0.00
  -17    6   20     -1.73      0.00
  -16    6   20      2.84      0.00
  -15    6   20      3.46      0.00
  -14    6   20     -1.15      0.00
  -13    6   20     -0.10      0.00
  -12    6   20     -1.31      0.00
  -11    6   20     -3.14      0.00
  -10    6   20     -3.83      0.00
   -9    6   20     -3.20      0.00
   -8    6   20      1.40      0.00
   -7    6   20     -1.30      0.00
   -6    6   20      2.04      0.00
   -5    6   20     -2.59      0.00
   -4    6   20     -3.21      0.00
   -3    6   20     -1.30      0.00
   -2    6   20      2.53      0.00
   -1    6   20     -0.97      0.00
    0    6   20      2.07      0.00
    1    6   20      0.43      0.00
    2    6   20      0.47      0.00
    3    6   20     -2.70      0.00
  -19    7   20     -1.07      0.00
  -18    7   20      2.52      0.00
  -17    7   20      0.78      0.00
  -16    7   20      0.93      0.00
  -15    7   20      0.36      0.00
  -14    7   20     -0.87      0.00
  -13    7   20      2.28      0.00
  -12    7   20      0.34      0.00
  -11    7   20      0.15      0.00
  -10    7   20     -2.34      0.00
   -9    7   20     -3.86      0.00
   -8    7   20      0.89      0.00
   -7    7   20      2.89      0.00
   -6    7   20     -5.66      0.00
   -5    7   20     -1.51      0.00
   -4    7   20     -4.02      0.00
   -3    7   20      1.15      0.00
   -2    7   20      4.80      0.00
   -1    7   20      2.08      0.00
    0    7   20     -1.88      0.00
    1    7   20      0.12      0.00
    2    7   20     -0.94      0.00
    3    7   20     -0.11      0.00
  -19    8   20      1.10      0.00
  -18    8   20      1.17      0.00
  -17    8   20      1.43      0.00
  -16    8   20     -2.92      0.00
  -15    8   20      1.00      0.00
  -14    8   20      1.82      0.00
  -13    8   20      0.61      0.00
  -12    8   20      6.24      0.00
  -11    8   20     -1.49      0.00
  -10    8   20     -1.30      0.00
   -9    8   20     -1.21      0.00
   -8    8   20     -2.05      0.00
   -7    8   20      1.09      0.00
   -6    8   20     -2.49      0.00
   -5    8   20     -5.28      0.00
   -4    8   20      4.98      0.00
   -3    8   20      1.17      0.00
   -2    8   20     -0.42      0.00
   -1    8   20      1.77      0.00
    0    8   20      1.29      0.00
    1    8   20     -1.10      0.00
    2    8   20     -0.02      0.00
    3    8   20     -0.09      0.00
  -19    9   20     -1.16      0.00
  -18    9   20      1.21      0.00
  -17    9   20      0.98      0.00
  -16    9   20     -1.91      0.00
  -15    9   20     -2.41      0.00
  -14    9   20      6.12      0.00
  -13    9   20      5.47      0.00
  -12    9   20     -1.73      0.00
  -11    9   20      0.79      0.00
  -10    9   20     -1.41      0.00
   -9    9   20      0.43      0.00
   -8    9   20     -0.09      0.00
   -7    9   20     -1.77      0.00
   -6    9   20      1.50      0.00
   -5    9   20     -1.99      0.00
   -4    9   20      0.19      0.00
   -3    9   20      3.82      0.00
   -2    9   20     -1.01      0.00
   -1    9   20     -1.68      0.00
    0    9   20      1.65      0.00
    1    9   20      2.44      0.00
    2    9   20      0.44      0.00
  -18   10   20     -1.87      0.00
  -17   10   20     -0.95      0.00
  -16   10   20      1.05      0.00
  -15   10   20      1.97      0.00
  -14   10   20      2.36      0.00
  -13   10   20      1.70      0.00
  -12   10   20     -2.07      0.00
  -11   10   20      0.53      0.00
  -10   10   20      2.52      0.00
   -9   10   20     -0.05      0.00
   -8   10   20     -1.36      0.00
   -7   10   20      0.71      0.00
   -6   10   20      1.84      0.00
   -5   10   20      3.03      0.00
   -4   10   20     -4.81      0.00
   -3   10   20     -1.16      0.00
   -2   10   20      1.04      0.00
   -1   10   20      0.94      0.00
    0   10   20      2.22      0.00
    1   10   20      1.19      0.00
    2   10   20      0.34      0.00
  -18   11   20     -0.09      0.00
  -17   11   20      0.55      0.00
  -16   11   20      2.57      0.00
  -15   11   20      1.39      0.00
  -14   11   20     -4.21      0.00
  -13   11   20     -1.14      0.00
  -12   11   20      3.64      0.00
  -11   11   20     -0.06      0.00
  -10   11   20      3.23      0.00
   -9   11   20     -1.70      0.00
   -8   11   20      1.14      0.00
   -7   11   20      2.47      0.00
   -6   11   20     -0.08      0.00
   -5   11   20     -1.91      0.00
   -4   11   20     -0.33      0.00
   -3   11   20     -3.17      0.00
   -2   11   20      2.50      0.00
   -1   11   20      1.23      0.00
    0   11   20     -0.65      0.00
    1   11   20      1.30      0.00
  -18   12   20      1.52      0.00
  -17   12   20      1.41      0.00
  -16   12   20     -2.25      0.00
  -15   12   20     -1.98      0.00
  -14   12   20     -0.26      0.00
  -13   12   20     -1.38      0.00
  -12   12   20      3.81      0.00
  -11   12   20      2.92      0.00
  -10   12   20     -3.14      0.00
   -9   12   20      4.47      0.00
   -8   12   20     -2.29      0.00
   -7   12   20     -1.02      0.00
   -6   12   20     -0.62      0.00
   -5   12   20     -1.09      0.00
   -4   12   20      1.23      0.00
   -3   12   20      1.62      0.00
   -2   12   20     -3.08      0.00
   -1   12   20     -0.85      0.00
    0   12   20      0.59      0.00
    1   12   20      0.34      0.00
  -17   13   20      0.93      0.00
  -16   13   20     -1.35      0.00
  -15   13   20     -2.37      0.00
  -14   13   20      1.41      0.00
  -13   13   20      2.54      0.00
  -12   13   20     -1.32      0.00
  -11   13   20      1.85      0.00
  -10   13   20      0.42      0.00
   -9   13   20     -4.58      0.00
   -8   13   20      0.13      0.00
   -7   13   20     -0.92      0.00
   -6   13   20      1.81      0.00
   -5   13   20     -0.44      0.00
   -4   13   20     -0.78      0.00
   -3   13   20      0.06      0.00
   -2   13   20     -0.61      0.00
   -1   13   20     -1.84      0.00
    0   13   20     -0.44      0.00
  -16   14   20      1.44      0.00
  -15   14   20     -0.37      0.00
  -14   14   20      0.02      0.00
  -13   14   20      1.33      0.00
  -12   14   20      0.53      0.00
  -11   14   20     -3.13      0.00
  -10   14   20     -0.33      0.00
   -9   14   20      0.00      0.00
   -8   14   20     -0.81      0.00
   -7   14   20     -1.16      0.00
   -6   14   20     -0.19      0.00
   -5   14   20      1.96      0.00
   -4   14   20     -1.44      0.00
   -3   14   20     -0.40      0.00
   -2   14   20     -0.29      0.00
   -1   14   20     -1.48      0.00
    0   14   20     -0.54      0.00
  -16   15   20      1.85      0.00
  -15   15   20      2.23      0.00
  -14   15   20     -1.32      0.00
  -13   15   20     -0.20      0.00
  -12   15   20     -0.20      0.00
  -11   15   20     -0.80      0.00
  -10   15   20      0.23      0.00
   -9   15   20      1.76      0.00
   -8   15   20     -2.18      0.00
   -7   15   20      0.83      0.00
   -6   15   20      0.39      0.00
   -5   15   20     -0.36      0.00
   -4   15   20     -1.02      0.00
   -3   15   20     -2.35      0.00
   -2   15   20      1.86      0.00
   -1   15   20      0.89      0.00
  -15   16   20      1.00      0.00
  -14   16   20      0.48      0.00
  -13   16   20     -2.20      0.00
  -12   16   20      1.76      0.00
  -11   16   20      2.63      0.00
  -10   16   20     -0.39      0.00
   -9   16   20     -0.34      0.00
   -8   16   20      3.44      0.00
   -7   16   20     -0.44      0.00
   -6   16   20     -1.53      0.00
   -5   16   20     -3.56      0.00
   -4   16   20      0.62      0.00
   -3   16   20      1.31      0.00
   -2   16   20     -0.20      0.00
  -13   17   20      1.28      0.00
  -12   17   20     -0.06      0.00
  -11   17   20      0.76      0.00
  -10   17   20      2.57      0.00
   -9   17   20      2.83      0.00
   -8   17   20     -1.96      0.00
   -7   17   20     -0.98      0.00
   -6   17   20     -0.95      0.00
   -5   17   20      1.61      0.00
   -4   17   20     -0.78      0.00
   -3   17   20     -0.10      0.00
  -12   18   20      0.74      0.00
  -11   18   20      1.72      0.00
  -10   18   20      1.15      0.00
   -9   18   20      0.31      0.00
   -8   18   20      0.87      0.00
   -7   18   20     -1.64      0.00
   -6   18   20      0.94      0.00
   -5   18   20     -0.30      0.00
   -9   19   20      1.20      0.00
   -8   19   20     -0.53      0.00
  -19    0   21     -0.37      0.00
  -17    0   21      0.11      0.00
  -15    0   21     -2.02      0.00
  -13    0   21     -1.30      0.00
  -11    0   21     -0.96      0.00
   -9    0   21      1.04      0.00
   -7    0   21     -0.25      0.00
   -5    0   21      1.22      0.00
   -3    0   21     -1.63      0.00
   -1    0   21     -0.89      0.00
    1    0   21     -1.22      0.00
  -19    1   21     -0.24      0.00
  -18    1   21     -1.19      0.00
  -17    1   21      0.83      0.00
  -16    1   21      1.28      0.00
  -15    1   21      2.98      0.00
  -14    1   21     -4.59      0.00
  -13    1   21     -2.80      0.00
  -12    1   21      0.20      0.00
  -11    1   21     -1.71      0.00
  -10    1   21      1.48      0.00
   -9    1   21      2.02      0.00
   -8    1   21     -2.67      0.00
   -7    1   21     -1.25      0.00
   -6    1   21      4.16      0.00
   -5    1   21      0.46      0.00
   -4    1   21     -4.26      0.00
   -3    1   21     -2.06      0.00
   -2    1   21      2.15      0.00
   -1    1   21      1.98      0.00
    0    1   21     -1.11      0.00
    1    1   21     -0.27      0.00
    2    1   21     -2.55      0.00
  -19    2   21     -1.35      0.00
  -18    2   21      0.72      0.00
  -17    2   21      1.94      0.00
  -16    2   21      2.27      0.00
  -15    2   21     -2.97      0.00
  -14    2   21      1.65      0.00
  -13    2   21     -2.77      0.00
  -12    2   21     -3.19      0.00
  -11    2   21      1.12      0.00
  -10    2   21     -0.29      0.00
   -9    2   21      0.31      0.00
   -8    2   21      0.27      0.00
   -7    2   21     -1.79      0.00
   -6    2   21     -2.38      0.00
   -5    2   21     -0.80      0.00
   -4    2   21      0.82      0.00
   -3    2   21      1.44      0.00
   -2    2   21     -0.07      0.00
   -1    2   21      0.17      0.00
    0    2   21     -0.62      0.00
    1    2   21     -1.19      0.00
    2    2   21      1.08      0.00
  -19    3   21      2.28      0.00
  -18    3   21     -1.69      0.00
  -17    3   21      0.26      0.00
  -16    3   21      1.52      0.00
  -15    3   21      1.30      0.00
  -14    3   21     -1.59      0.00
  -13    3   21      1.60      0.00
  -12    3   21     -2.15      0.00
  -11    3   21     -3.36      0.00
  -10    3   21     -0.76      0.00
   -9    3   21      1.28      0.00
   -8    3   21     -2.82      0.00
   -7    3   21     -6.63      0.00
   -6    3   21      0.16      0.00
   -5    3   21      4.53      0.00
   -4    3   21      1.33      0.00
   -3    3   21     -1.15      0.00
   -2    3   21     -2.08      0.00
   -1    3   21     -1.45      0.00
    0    3   21      2.01      0.00
    1    3   21      2.84      0.00
    2    3   21     -0.27      0.00
  -19    4   21      0.28      0.00
  -18    4   21      1.27      0.00
  -17    4   21     -2.99      0.00
  -16    4   21      1.61      0.00
  -15    4   21      3.46      0.00
  -14    4   21      1.49      0.00
  -13    4   21     -0.22      0.00
  -12    4   21     -2.13      0.00
  -11    4   21     -4.55      0.00
  -10    4   21     -2.21      0.00
   -9    4   21     -1.92      0.00
   -8    4   21     -0.47      0.00
   -7    4   21     -1.01      0.00
   -6    4   21     -1.48      0.00
   -5    4   21      3.37      0.00
   -4    4   21     -1.04      0.00
   -3    4   21     -3.51      0.00
   -2    4   21      0.13      0.00
   -1    4   21      1.48      0.00
    0    4   21      2.08      0.00
    1    4   21      1.21      0.00
    2    4   21      0.86      0.00
  -19    5   21      0.89      0.00
  -18    5   21     -0.55      0.00
  -17    5   21     -0.75      0.00
  -16    5   21      0.58      0.00
  -15    5   21      6.53      0.00
  -14    5   21      0.13      0.00
  -13    5   21     -3.57      0.00
  -12    5   21      0.04      0.00
  -11    5   21     -1.21      0.00
  -10    5   21     -2.71      0.00
   -9    5   21     -0.29      0.00
   -8    5   21      0.73      0.00
   -7    5   21     -1.06      0.00
   -6    5   21     -2.00      0.00
   -5    5   21     -2.31      0.00
   -4    5   21      1.70      0.00
   -3    5   21     -3.61      0.00
   -2    5   21     -0.56      0.00
   -1    5   21      4.31      0.00
    0    5   21      1.93      0.00
    1    5   21      0.38      0.00
    2    5   21      0.93      0.00
  -19    6   21     -0.17      0.00
  -18    6   21     -0.85      0.00
  -17    6   21      2.38      0.00
  -16    6   21      3.00      0.00
  -15    6   21     -2.33      0.00
  -14    6   21      2.03      0.00
  -13    6   21      1.10      0.00
  -12    6   21      1.52      0.00
  -11    6   21      0.41      0.00
  -10    6   21     -2.64      0.00
   -9    6   21      0.59      0.00
   -8    6   21     -0.34      0.00
   -7    6   21      0.10      0.00
   -6    6   21     -3.54      0.00
   -5    6   21     -4.59      0.00
   -4    6   21     -1.54      0.00
   -3    6   21      5.17      0.00
   -2    6   21      0.66      0.00
   -1    6   21      0.11      0.00
    0    6   21      1.40      0.00
    1    6   21      1.49      0.00
  -19    7   21      1.50      0.00
  -18    7   21      1.50      0.00
  -17    7   21     -0.91      0.00
  -16    7   21     -0.25      0.00
  -15    7   21      1.19      0.00
  -14    7   21      0.94      0.00
  -13    7   21      4.48      0.00
  -12    7   21      1.50      0.00
  -11    7   21      0.37      0.00
  -10    7   21     -1.09      0.00
   -9    7   21     -1.28      0.00
   -8    7   21      3.08      0.00
   -7    7   21     -4.39      0.00
   -6    7   21     -1.57      0.00
   -5    7   21     -1.24      0.00
   -4    7   21      0.28      0.00
   -3    7   21      3.17      0.00
   -2    7   21      2.63      0.00
   -1    7   21     -1.57      0.00
    0    7   21      0.02      0.00
    1    7   21      1.04      0.00
  -18    8   21      0.71      0.00
  -17    8   21     -1.65      0.00
  -16    8   21     -0.21      0.00
  -15    8   21      1.97      0.00
  -14    8   21      2.30      0.00
  -13    8   21      3.43      0.00
  -12    8   21      0.57      0.00
  -11    8   21     -0.18      0.00
  -10    8   21      1.00      0.00
   -9    8   21     -0.61      0.00
   -8    8   21     -0.27      0.00
   -7    8   21      2.39      0.00
   -6    8   21     -3.63      0.00
   -5    8   21      3.41      0.00
   -4    8   21      1.51      0.00
   -3    8   21     -2.30      0.00
   -2    8   21      0.53      0.00
   -1    8   21      2.26      0.00
    0    8   21      0.68      0.00
    1    8   21      0.99      0.00
  -18    9   21      0.88      0.00
  -17    9   21     -0.44      0.00
  -16    9   21     -2.29      0.00
  -15    9   21      4.33      0.00
  -14    9   21      3.28      0.00
  -13    9   21     -3.35      0.00
  -12    9   21      1.18      0.00
  -11    9   21      1.20      0.00
  -10    9   21      1.77      0.00
   -9    9   21      1.61      0.00
   -8    9   21     -0.46      0.00
   -7    9   21      1.62      0.00
   -6    9   21      2.00      0.00
   -5    9   21     -1.68      0.00
   -4    9   21      1.24      0.00
   -3    9   21     -0.86      0.00
   -2    9   21     -1.12      0.00
   -1    9   21      1.98      0.00
    0    9   21      2.56      0.00
  -17   10   21      0.63      0.00
  -16   10   21      2.26      0.00
  -15   10   21     -1.80      0.00
  -14   10   21     -0.51      0.00
  -13   10   21     -0.45      0.00
  -12   10   21     -0.14      0.00
  -11   10   21      4.81      0.00
  -10   10   21      0.68      0.00
   -9   10   21     -1.21      0.00
   -8   10   21      2.21      0.00
   -7   10   21      1.48      0.00
   -6   10   21      2.44      0.00
   -5   10   21     -3.15      0.00
   -4   10   21     -2.32      0.00
   -3   10   21      1.87      0.00
   -2   10   21      1.06      0.00
   -1   10   21      0.60      0.00
    0   10   21      0.30      0.00
  -17   11   21      1.03      0.00
  -16   11   21     -1.10      0.00
  -15   11   21     -2.52      0.00
  -14   11   21     -2.44      0.00
  -13   11   21      3.69      0.00
  -12   11   21      1.53      0.00
  -11   11   21      0.43      0.00
  -10   11   21      1.01      0.00
   -9   11   21      0.38      0.00
   -8   11   21      0.08      0.00
   -7   11   21      0.26      0.00
   -6   11   21     -2.19      0.00
   -5   11   21      2.65      0.00
   -4   11   21     -1.33      0.00
   -3   11   21     -0.40      0.00
   -2   11   21      0.31      0.00
   -1   11   21     -1.23      0.00
  -16   12   21     -1.61      0.00
  -15   12   21      0.71      0.00
  -14   12   21      0.39      0.00
  -13   12   21      0.60      0.00
  -12   12   21      2.01      0.00
  -11   12   21     -2.99      0.00
  -10   12   21      2.04      0.00
   -9   12   21     -1.24      0.00
   -8   12   21     -2.42      0.00
   -7   12   21     -0.17      0.00
   -6   12   21      1.46      0.00
   -5   12   21      0.03      0.00
   -4   12   21      1.98      0.00
   -3   12   21     -2.74      0.00
   -2   12   21     -2.08      0.00
   -1   12   21      1.02      0.00
  -16   13   21     -0.71      0.00
  -15   13   21      0.85      0.00
  -14   13   21      1.64      0.00
  -13   13   21     -2.47      0.00
  -12   13   21     -1.15      0.00
  -11   13   21      1.11      0.00
  -10   13   21     -3.90      0.00
   -9   13   21      1.32      0.00
   -8   13   21     -0.42      0.00
   -7   13   21      0.65      0.00
   -6   13   21     -0.33      0.00
   -5   13   21     -0.25      0.00
   -4   13   21     -0.38      0.00
   -3   13   21      0.22      0.00
   -2   13   21     -1.01      0.00
  -15   14   21     -0.64      0.00
  -14   14   21     -0.15      0.00
  -13   14   21      0.43      0.00
  -12   14   21     -3.25      0.00
  -11   14   21     -0.06      0.00
  -10   14   21      3.06      0.00
   -9   14   21     -1.29      0.00
   -8   14   21     -0.55      0.00
   -7   14   21     -1.04      0.00
   -6   14   21      1.92      0.00
   -5   14   21     -1.16      0.00
   -4   14   21     -0.96      0.00
   -3   14   21      0.78      0.00
  -14   15   21     -0.59      0.00
  -13   15   21     -0.31      0.00
  -12   15   21      1.21      0.00
  -11   15   21     -0.02      0.00
  -10   15   21      1.07      0.00
   -9   15   21      0.76      0.00
   -8   15   21      0.50      0.00
   -7   15   21      0.30      0.00
   -6   15   21     -2.46      0.00
   -5   15   21      0.05      0.00
   -4   15   21     -0.58      0.00
  -12   16   21      1.48      0.00
  -11   16   21     -0.13      0.00
  -10   16   21      0.36      0.00
   -9   16   21      2.93      0.00
   -8   16   21     -0.11      0.00
   -7   16   21     -2.06      0.00
   -6   16   21     -1.15      0.00
   -5   16   21      0.39      0.00
  -10   17   21      1.50      0.00
   -9   17   21     -0.97      0.00
   -8   17   21     -0.17      0.00
   -7   17   21      0.63      0.00
  -18    0   22      1.34      0.00
  -16    0   22      2.16      0.00
  -14    0   22     -0.77      0.00
  -12    0   22     -2.45      0.00
  -10    0   22      2.04      0.00
   -8    0   22     -2.69      0.00
   -6    0   22      1.04      0.00
   -4    0   22     -1.82      0.00
   -2    0   22      0.44      0.00
    0    0   22     -0.81      0.00
  -18    1   22      0.33      0.00
  -17    1   22      2.91      0.00
  -16    1   22      1.56      0.00
  -15    1   22     -0.72      0.00
  -14    1   22     -1.60      0.00
  -13    1   22      0.83      0.00
  -12    1   22      0.20      0.00
  -11    1   22     -0.67      0.00
  -10    1   22      1.31      0.00
   -9    1   22     -1.80      0.00
   -8    1   22     -1.60      0.00
   -7    1   22      1.20      0.00
   -6    1   22      0.11      0.00
   -5    1   22     -3.08      0.00
   -4    1   22     -0.56      0.00
   -3    1   22      2.25      0.00
   -2    1   22      1.65      0.00
   -1    1   22     -1.12      0.00
    0    1   22     -0.59      0.00
  -18    2   22      1.36      0.00
  -17    2   22      1.08      0.00
  -16    2   22     -0.09      0.00
  -15    2   22      2.06      0.00
  -14    2   22      1.54      0.00
  -13    2   22     -1.27      0.00
  -12    2   22      0.68      0.00
  -11    2   22     -1.06      0.00
  -10    2   22     -0.84      0.00
   -9    2   22      1.13      0.00
   -8    2   22     -3.61      0.00
   -7    2   22     -3.58      0.00
   -6    2   22      0.89      0.00
   -5    2   22      2.59      0.00
   -4    2   22      1.04      0.00
   -3    2   22     -1.37      0.00
   -2    2   22     -0.66      0.00
   -1    2   22      0.42      0.00
    0    2   22      0.44      0.00
  -18    3   22     -1.16      0.00
  -17    3   22      1.74      0.00
  -16    3   22      2.51      0.00
  -15    3   22      0.41      0.00
  -14    3   22      2.40      0.00
  -13    3   22      0.86      0.00
  -12    3   22     -2.54      0.00
  -11    3   22     -1.22      0.00
  -10    3   22      0.40      0.00
   -9    3   22     -2.41      0.00
   -8    3   22     -3.00      0.00
   -7    3   22     -0.16      0.00
   -6    3   22      3.19      0.00
   -5    3   22      0.46      0.00
   -4    3   22     -2.17      0.00
   -3    3   22     -1.51      0.00
   -2    3   22     -0.66      0.00
   -1    3   22      3.28      0.00
    0    3   22      3.17      0.00
  -18    4   22     -1.33      0.00
  -17    4   22     -0.17      0.00
  -16    4   22      4.45      0.00
  -15    4   22      1.80      0.00
  -14    4   22     -0.24      0.00
  -13    4   22      0.50      0.00
  -12    4   22     -1.23      0.00
  -11    4   22     -0.16      0.00
  -10    4   22     -1.23      0.00
   -9    4   22      1.91      0.00
   -8    4   22     -0.12      0.00
   -7    4   22     -2.37      0.00
   -6    4   22     -0.46      0.00
   -5    4   22     -0.83      0.00
   -4    4   22     -2.81      0.00
   -3    4   22      0.88      0.00
   -2    4   22      2.61      0.00
   -1    4   22      1.28      0.00
    0    4   22      0.93      0.00
  -18    5   22     -0.16      0.00
  -17    5   22      1.47      0.00
  -16    5   22      2.53      0.00
  -15    5   22      1.12      0.00
  -14    5   22     -2.25      0.00
  -13    5   22      2.61      0.00
  -12    5   22      4.07      0.00
  -11    5   22     -1.24      0.00
  -10    5   22      1.28      0.00
   -9    5   22     -0.47      0.00
   -8    5   22     -0.36      0.00
   -7    5   22     -2.13      0.00
   -6    5   22     -3.64      0.00
   -5    5   22      0.33      0.00
   -4    5   22     -0.05      0.00
   -3    5   22     -0.37      0.00
   -2    5   22      2.87      0.00
   -1    5   22      1.14      0.00
    0    5   22      0.58      0.00
  -18    6   22      1.69      0.00
  -17    6   22      1.12      0.00
  -16    6   22     -1.59      0.00
  -15    6   22      0.89      0.00
  -14    6   22      2.95      0.00
  -13    6   22      2.88      0.00
  -12    6   22      2.36      0.00
  -11    6   22      0.13      0.00
  -10    6   22     -1.13      0.00
   -9    6   22      1.66      0.00
   -8    6   22     -0.28      0.00
   -7    6   22     -1.99      0.00
   -6    6   22     -2.60      0.00
   -5    6   22     -1.42      0.00
   -4    6   22      4.87      0.00
   -3    6   22      1.62      0.00
   -2    6   22     -2.19      0.00
   -1    6   22      0.29      0.00
  -17    7   22     -0.49      0.00
  -16    7   22      1.16      0.00
  -15    7   22      0.35      0.00
  -14    7   22      3.83      0.00
  -13    7   22      0.90      0.00
  -12    7   22      1.10      0.00
  -11    7   22      0.95      0.00
  -10    7   22     -0.19      0.00
   -9    7   22      2.23      0.00
   -8    7   22     -0.23      0.00
   -7    7   22     -0.24      0.00
   -6    7   22      1.35      0.00
   -5    7   22      0.60      0.00
   -4    7   22      0.34      0.00
   -3    7   22      1.80      0.00
   -2    7   22     -0.95      0.00
   -1    7   22     -0.85      0.00
  -17    8   22     -1.55      0.00
  -16    8   22      1.34      0.00
  -15    8   22      2.33      0.00
  -14    8   22     -0.41      0.00
  -13    8   22      0.81      0.00
  -12    8   22     -0.10      0.00
  -11    8   22      2.63      0.00
  -10    8   22      1.63      0.00
   -9    8   22     -0.32      0.00
   -8    8   22      4.03      0.00
   -7    8   22     -0.18      0.00
   -6    8   22      2.19      0.00
   -5    8   22      1.83      0.00
   -4    8   22     -2.94      0.00
   -3    8   22     -0.72      0.00
   -2    8   22      2.32      0.00
   -1    8   22      0.97      0.00
  -16    9   22      1.36      0.00
  -15    9   22      1.06      0.00
  -14    9   22     -2.92      0.00
  -13    9   22     -0.50      0.00
  -12    9   22      3.16      0.00
  -11    9   22      1.87      0.00
  -10    9   22      1.81      0.00
   -9    9   22      0.75      0.00
   -8    9   22      0.40      0.00
   -7    9   22      3.78      0.00
   -6    9   22     -1.00      0.00
   -5    9   22     -0.16      0.00
   -4    9   22      0.28      0.00
   -3    9   22     -0.87      0.00
   -2    9   22      1.02      0.00
  -16   10   22     -2.22      0.00
  -15   10   22     -1.67      0.00
  -14   10   22      0.56      0.00
  -13   10   22      0.16      0.00
  -12   10   22      2.87      0.00
  -11   10   22      1.20      0.00
  -10   10   22     -1.65      0.00
   -9   10   22      1.57      0.00
   -8   10   22      1.23      0.00
   -7   10   22      0.51      0.00
   -6   10   22     -0.15      0.00
   -5   10   22     -1.05      0.00
   -4   10   22      1.21      0.00
   -3   10   22      0.68      0.00
   -2   10   22     -1.19      0.00
  -15   11   22     -1.50      0.00
  -14   11   22      2.04      0.00
  -13   11   22      1.20      0.00
  -12   11   22     -1.88      0.00
  -11   11   22      0.78      0.00
  -10   11   22      0.62      0.00
   -9   11   22     -2.13      0.00
   -8   11   22      0.14      0.00
   -7   11   22     -1.04      0.00
   -6   11   22      2.86      0.00
   -5   11   22      0.41      0.00
   -4   11   22     -1.52      0.00
   -3   11   22     -0.70      0.00
  -15   12   22      1.50      0.00
  -14   12   22     -1.95      0.00
  -13   12   22     -0.01      0.00
  -12   12   22     -2.15      0.00
  -11   12   22     -0.31      0.00
  -10   12   22      0.25      0.00
   -9   12   22     -1.51      0.00
   -8   12   22     -0.81      0.00
   -7   12   22      1.97      0.00
   -6   12   22     -1.08      0.00
   -5   12   22      1.86      0.00
   -4   12   22     -0.98      0.00
  -14   13   22     -1.21      0.00
  -13   13   22     -2.83      0.00
  -12   13   22      1.28      0.00
  -11   13   22     -1.58      0.00
  -10   13   22      0.96      0.00
   -9   13   22      0.54      0.00
   -8   13   22     -0.36      0.00
   -7   13   22     -0.81      0.00
   -6   13   22      0.23      0.00
   -5   13   22     -0.88      0.00
  -12   14   22     -0.72      0.00
  -11   14   22      2.88      0.00
  -10   14   22     -0.95      0.00
   -9   14   22     -0.28      0.00
   -8   14   22     -0.40      0.00
   -7   14   22      0.84      0.00
   -6   14   22     -1.08      0.00
  -17    0   23      2.22      0.00
  -15    0   23     -0.66      0.00
  -13    0   23     -0.05      0.00
  -11    0   23      2.95      0.00
   -9    0   23     -3.43      0.00
   -7    0   23      0.96      0.00
   -5    0   23     -1.00      0.00
   -3    0   23      0.71      0.00
  -17    1   23      0.35      0.00
  -16    1   23      0.48      0.00
  -15    1   23     -0.15      0.00
  -14    1   23      1.69      0.00
  -13    1   23      1.65      0.00
  -12    1   23     -0.48      0.00
  -11    1   23     -0.03      0.00
  -10    1   23      0.21      0.00
   -9    1   23     -1.04      0.00
   -8    1   23     -1.14      0.00
   -7    1   23      0.48      0.00
   -6    1   23     -1.22      0.00
   -5    1   23      0.37      0.00
   -4    1   23      1.75      0.00
   -3    1   23      0.68      0.00
   -2    1   23     -1.30      0.00
  -17    2   23      1.06      0.00
  -16    2   23      1.13      0.00
  -15    2   23      2.37      0.00
  -14    2   23     -0.32      0.00
  -13    2   23      1.01      0.00
  -12    2   23     -0.47      0.00
  -11    2   23     -0.18      0.00
  -10    2   23      1.36      0.00
   -9    2   23     -2.53      0.00
   -8    2   23     -2.77      0.00
   -7    2   23      1.34      0.00
   -6    2   23      3.35      0.00
   -5    2   23     -0.07      0.00
   -4    2   23     -2.06      0.00
   -3    2   23     -0.84      0.00
   -2    2   23      1.23      0.00
  -17    3   23      1.78      0.00
  -16    3   23      0.70      0.00
  -15    3   23      0.36      0.00
  -14    3   23      2.13      0.00
  -13    3   23     -1.35      0.00
  -12    3   23      0.92      0.00
  -11    3   23      0.65      0.00
  -10    3   23     -0.51      0.00
   -9    3   23      0.09      0.00
   -8    3   23     -0.08      0.00
   -7    3   23      0.90      0.00
   -6    3   23     -0.92      0.00
   -5    3   23     -1.87      0.00
   -4    3   23     -0.14      0.00
   -3    3   23      0.18      0.00
   -2    3   23      2.66      0.00
  -17    4   23      2.62      0.00
  -16    4   23      1.05      0.00
  -15    4   23     -0.82      0.00
  -14    4   23      0.33      0.00
  -13    4   23      2.52      0.00
  -12    4   23      1.27      0.00
  -11    4   23      0.73      0.00
  -10    4   23      2.12      0.00
   -9    4   23      0.00      0.00
   -8    4   23     -2.32      0.00
   -7    4   23     -2.14      0.00
   -6    4   23     -0.44      0.00
   -5    4   23     -1.15      0.00
   -4    4   23      1.07      0.00
   -3    4   23      2.77      0.00
   -2    4   23     -0.93      0.00
  -16    5   23      0.82      0.00
  -15    5   23     -1.66      0.00
  -14    5   23      2.85      0.00
  -13    5   23      4.77      0.00
  -12    5   23      0.01      0.00
  -11    5   23      0.82      0.00
  -10    5   23     -0.69      0.00
   -9    5   23      0.29      0.00
   -8    5   23     -0.75      0.00
   -7    5   23     -2.17      0.00
   -6    5   23     -0.43      0.00
   -5    5   23      1.77      0.00
   -4    5   23      0.20      0.00
   -3    5   23      0.46      0.00
  -16    6   23     -0.65      0.00
  -15    6   23      3.25      0.00
  -14    6   23      0.92      0.00
  -13    6   23      1.17      0.00
  -12    6   23      1.33      0.00
  -11    6   23     -1.63      0.00
  -10    6   23      3.07      0.00
   -9    6   23      0.98      0.00
   -8    6   23     -0.52      0.00
   -7    6   23     -0.13      0.00
   -6    6   23     -0.26      0.00
   -5    6   23      2.72      0.00
   -4    6   23      1.67      0.00
   -3    6   23     -2.45      0.00
  -16    7   23      0.79      0.00
  -15    7   23      0.99      0.00
  -14    7   23      0.21      0.00
  -13    7   23     -0.23      0.00
  -12    7   23      1.28      0.00
  -11    7   23      2.08      0.00
  -10    7   23      1.19      0.00
   -9    7   23      2.16      0.00
   -8    7   23      0.98      0.00
   -7    7   23      1.91      0.00
   -6    7   23      1.21      0.00
   -5    7   23     -1.47      0.00
   -4    7   23      0.70      0.00
   -3    7   23      0.20      0.00
  -15    8   23     -1.63      0.00
  -14    8   23     -0.41      0.00
  -13    8   23      0.13      0.00
  -12    8   23      2.65      0.00
  -11    8   23      2.18      0.00
  -10    8   23      0.08      0.00
   -9    8   23      2.78      0.00
   -8    8   23      1.43      0.00
   -7    8   23      0.86      0.00
   -6    8   23      1.34      0.00
   -5    8   23     -1.88      0.00
   -4    8   23     -1.56      0.00
  -14    9   23     -1.01      0.00
  -13    9   23      2.85      0.00
  -12    9   23      0.98      0.00
  -11    9   23      0.71      0.00
  -10    9   23      1.29      0.00
   -9    9   23     -0.86      0.00
   -8    9   23      2.39      0.00
   -7    9   23     -0.10      0.00
   -6    9   23     -0.79      0.00
   -5    9   23      0.65      0.00
  -14   10   23      0.55      0.00
  -13   10   23      0.14      0.00
  -12   10   23      0.73      0.00
  -11   10   23     -1.35      0.00
  -10   10   23     -0.11      0.00
   -9   10   23      1.48      0.00
   -8   10   23     -1.04      0.00
   -7   10   23      0.42      0.00
   -6   10   23     -0.11      0.00
   -5   10   23      0.20      0.00
  -13   11   23     -1.92      0.00
  -12   11   23     -0.56      0.00
  -11   11   23      1.01      0.00
  -10   11   23     -1.84      0.00
   -9   11   23     -0.47      0.00
   -8   11   23      0.16      0.00
   -7   11   23      0.83      0.00
  -11   12   23      0.69      0.00
  -10   12   23      0.04      0.00
   -9   12   23     -1.17      0.00
  -14    0   24      1.54      0.00
  -12    0   24      2.40      0.00
  -10    0   24     -2.33      0.00
   -8    0   24      1.50      0.00
   -6    0   24      0.00      0.00
  -15    1   24      0.68      0.00
  -14    1   24      1.04      0.00
  -13    1   24     -0.10      0.00
  -12    1   24     -0.90      0.00
  -11    1   24      1.76      0.00
  -10    1   24      0.09      0.00
   -9    1   24     -1.65      0.00
   -8    1   24      0.46      0.00
   -7    1   24      0.82      0.00
   -6    1   24      0.12      0.00
   -5    1   24      0.84      0.00
  -15    2   24     -0.31      0.00
  -14    2   24      0.08      0.00
  -13    2   24      0.09      0.00
  -12    2   24      0.68      0.00
  -11    2   24      1.16      0.00
  -10    2   24     -0.38      0.00
   -9    2   24     -1.24      0.00
   -8    2   24      1.02      0.00
   -7    2   24      2.17      0.00
   -6    2   24     -0.72      0.00
   -5    2   24     -1.94      0.00
  -15    3   24      0.98      0.00
  -14    3   24     -0.71      0.00
  -13    3   24      1.59      0.00
  -12    3   24      0.63      0.00
  -11    3   24      0.76      0.00
  -10    3   24      1.14      0.00
   -9    3   24      0.13      0.00
   -8    3   24     -1.01      0.00
   -7    3   24     -1.52      0.00
   -6    3   24     -1.06      0.00
   -5    3   24      0.75      0.00
  -14    4   24      3.08      0.00
  -13    4   24      0.24      0.00
  -12    4   24      1.07      0.00
  -11    4   24      0.50      0.00
  -10    4   24      0.20      0.00
   -9    4   24     -1.59      0.00
   -8    4   24     -1.27      0.00
   -7    4   24     -0.24      0.00
   -6    4   24     -0.04      0.00
  -14    5   24      2.03      0.00
  -13    5   24     -0.04      0.00
  -12    5   24     -1.38      0.00
  -11    5   24      0.33      0.00
  -10    5   24      0.91      0.00
   -9    5   24      1.00      0.00
   -8    5   24     -0.71      0.00
   -7    5   24     -0.18      0.00
   -6    5   24      1.55      0.00
  -13    6   24      0.53      0.00
  -12    6   24     -0.56      0.00
  -11    6   24      2.69      0.00
  -10    6   24      2.32      0.00
   -9    6   24     -0.28      0.00
   -8    6   24      1.06      0.00
   -7    6   24      0.67      0.00
  -13    7   24      0.86      0.00
  -12    7   24      2.58      0.00
  -11    7   24      0.33      0.00
  -10    7   24      1.90      0.00
   -9    7   24      1.79      0.00
   -8    7   24      0.48      0.00
   -7    7   24      1.02      0.00
  -11    8   24      0.29      0.00
  -10    8   24      1.13      0.00
   -9    8   24      0.92      0.00
    1    1    0    177.24      0.00
    0    2    0     65.72      0.00
   21    3    0      0.82      0.00
   21    4    0      0.24      0.00
   19   14    0     -0.93      0.00
   18   17    0     -0.77      0.00
   17   19    0      1.01      0.00
   16   21    0      0.38      0.00
   14   24    0     -0.02      0.00
    6   31    0      1.05      0.00
    2   32    0     -2.40      0.00
    3   32    0     -0.48      0.00
   -1    0    1    355.73      0.00
    1    0    1   -104.52      0.00
   -1    1    1   -157.86      0.00
    0    1    1    160.10      0.00
    0    2    1    -53.96      0.00
   -4    3    1     16.20      0.00
  -21    7    1     -1.81      0.00
   20    8    1     -0.20      0.00
  -20   12    1     -1.47      0.00
   19   13    1     -0.33      0.00
   18   16    1      0.18      0.00
  -18   18    1      2.05      0.00
  -17   20    1      0.13      0.00
   15   22    1      0.33      0.00
   13   25    1      1.03      0.00
  -13   26    1      0.09      0.00
   12   26    1      2.32      0.00
  -12   27    1      1.11      0.00
   11   27    1     -1.02      0.00
  -11   28    1      3.37      0.00
   10   28    1     -0.20      0.00
   -8   30    1      0.98      0.00
   -6   31    1      0.19      0.00
    5   31    1      0.69      0.00
   -3   32    1     -1.48      0.00
   -2   32    1     -1.33      0.00
    2   32    1     -0.90      0.00
  -22    0    2     -1.09      0.00
   20    5    2      0.93      0.00
  -21    9    2      1.20      0.00
   19   11    2     -0.58      0.00
   17   17    2      1.45      0.00
   14   23    2     -0.44      0.00
  -14   25    2     -0.56      0.00
  -11   28    2     -0.24      0.00
  -10   29    2     -0.82      0.00
    5   31    2      1.56      0.00
   -3   32    2     -0.60      0.00
   -2   32    2      1.33      0.00
   -1   32    2      0.81      0.00
    0   32    2     -0.81      0.00
    1   32    2     -1.51      0.00
  -22    5    3     -1.14      0.00
   19    9    3     -1.92      0.00
  -21   11    3      3.41      0.00
   18   13    3      1.01      0.00
   17   16    3      0.36      0.00
  -19   17    3     -0.45      0.00
  -17   21    3     -2.54      0.00
   14   22    3     -0.67      0.00
   11   26    3     -0.87      0.00
   10   27    3     -3.15      0.00
    9   28    3     -2.29      0.00
  -10   29    3     -0.98      0.00
    6   30    3     -2.36      0.00
    4   31    3      2.28      0.00
   -3   32    3      0.63      0.00
   -2   32    3      0.05      0.00
   -1   32    3     -0.02      0.00
    0   32    3     -1.30      0.00
   19    4    4      1.54      0.00
   19    5    4      2.45      0.00
  -22    7    4     -0.64      0.00
  -21   11    4     -1.31      0.00
   18   11    4      0.76      0.00
  -21   12    4      0.39      0.00
  -20   15    4     -1.74      0.00
   16   17    4     -0.88      0.00
  -18   18    4     -0.41      0.00
   15   19    4     -0.78      0.00
  -18   20    4      0.21      0.00
   14   21    4     -1.02      0.00
   13   22    4     -0.01      0.00
  -16   23    4      0.23      0.00
   12   24    4      0.09      0.00
    7   29    4     -0.93      0.00
   -6   31    4     -1.81      0.00
    3   31    4      2.02      0.00
   18    8    5     -1.01      0.00
  -22    9    5     -2.03      0.00
  -21   13    5      0.76      0.00
  -20   16    5     -0.68      0.00
   13   18    5     -3.72      0.00
   15   18    5      0.27      0.00
   14   20    5     -0.19      0.00
   10   21    5      2.52      0.00
  -17   22    5      0.67      0.00
    6   29    5     -0.97      0.00
   -6   31    5     -2.16      0.00
    2   31    5      0.17      0.00
   18    0    6     -1.08      0.00
  -23    1    6      0.27      0.00
   18    1    6      0.51      0.00
  -23    2    6     -0.21      0.00
   18    2    6     -1.39      0.00
  -23    3    6     -0.97      0.00
   18    3    6      0.45      0.00
  -22   10    6     -2.46      0.00
   17   10    6      0.98      0.00
  -17   22    6     -1.07      0.00
   12   22    6      0.16      0.00
   11   23    6     -0.51      0.00
   10   25    6      0.17      0.00
  -14   26    6      0.01      0.00
    9   26    6      0.10      0.00
  -13   27    6     -1.75      0.00
    8   27    6     -0.41      0.00
  -10   29    6      1.88      0.00
    5   29    6      0.03      0.00
   -5   31    6      0.27      0.00
    0   31    6     -0.67      0.00
  -23    0    7      2.12      0.00
  -23    1    7     -0.29      0.00
  -23    2    7     -1.68      0.00
  -23    3    7      0.94      0.00
  -22    3    7      0.40      0.00
  -23    4    7      0.32      0.00
  -23    5    7      0.90      0.00
   17    6    7      1.08      0.00
  -22    7    7      2.79      0.00
   16   11    7      0.02      0.00
  -21   14    7      2.01      0.00
   14   17    7     -0.30      0.00
  -19   19    7      1.10      0.00
   12   21    7     -0.78      0.00
   10   24    7      0.66      0.00
  -15   25    7      0.42      0.00
    9   25    7     -0.40      0.00
  -14   26    7      0.41      0.00
    7   26    7      2.61      0.00
    8   26    7     -1.29      0.00
    7   27    7     -2.46      0.00
  -10   29    7     -0.42      0.00
    4   29    7      0.68      0.00
   -8   30    7     -1.69      0.00
    2   30    7     -4.35      0.00
   -4   31    7     -2.09      0.00
   -3   31    7     -1.16      0.00
   -2   31    7      1.75      0.00
  -22    0    8     -4.85      0.00
  -23    1    8      0.03      0.00
  -22    1    8      1.10      0.00
  -23    2    8      1.98      0.00
  -23    3    8      0.01      0.00
  -23    4    8      1.03      0.00
  -23    5    8      0.69      0.00
  -23    6    8      0.44      0.00
   16    8    8      0.30      0.00
  -22   11    8      1.04      0.00
  -20   17    8     -0.60      0.00
  -19   19    8     -0.49      0.00
    9   22    8     -2.11      0.00
    9   24    8      0.42      0.00
    6   25    8     -0.60      0.00
    6   27    8     -3.63      0.00
    3   29    8      0.48      0.00
   -7   30    8      0.56      0.00
    0   30    8     -0.37      0.00
  -23    0    9     -2.71      0.00
  -23    1    9      1.89      0.00
   16    1    9     -0.64      0.00
  -23    2    9      0.82      0.00
   16    2    9      0.99      0.00
  -23    3    9      0.57      0.00
  -23    4    9     -0.70      0.00
  -23    6    9      2.78      0.00
  -23    7    9     -0.61      0.00
   14   13    9     -0.04      0.00
   13   16    9     -1.40      0.00
  -20   17    9      2.23      0.00
   12   18    9      0.89      0.00
  -19   19    9     -2.87      0.00
   11   20    9      2.35      0.00
    9   23    9     -0.61      0.00
    6   26    9     -1.46      0.00
    5   27    9     -2.90      0.00
  -11   28    9     -3.21      0.00
   -9   29    9     -0.21      0.00
   -6   30    9     -1.89      0.00
   -5   30    9      0.81      0.00
   -4   30    9      0.34      0.00
   -3   30    9     -0.64      0.00
   -2   30    9      0.96      0.00
   15    4   10     -0.96      0.00
  -23    5   10      0.31      0.00
   15    5   10      0.79      0.00
  -23    7   10      0.56      0.00
   13   14   10     -0.50      0.00
  -20   17   10     -1.40      0.00
  -19   19   10      0.07      0.00
   10   20   10      2.12      0.00
  -17   22   10      0.80      0.00
    8   23   10     -0.81      0.00
    7   24   10     -0.72      0.00
    5   26   10     -0.31      0.00
  -12   27   10     -0.58      0.00
    1   28   10     -2.75      0.00
    2   28   10     -0.80      0.00
   -8   29   10     -0.72      0.00
   -1   29   10     -2.20      0.00
   14    6   11     -2.01      0.00
  -23    7   11      1.48      0.00
   13   11   11     -0.38      0.00
   12   14   11     -0.67      0.00
  -20   17   11      0.54      0.00
  -19   19   11      1.25      0.00
  -17   22   11      2.19      0.00
  -16   23   11      0.72      0.00
    7   23   11     -0.87      0.00
    6   24   11     -0.41      0.00
  -14   25   11     -2.30      0.00
    5   25   11     -1.14      0.00
  -13   26   11      0.18      0.00
   -9   28   11     -2.90      0.00
    0   28   11     -0.28      0.00
   -5   29   11     -1.31      0.00
   -4   29   11     -1.12      0.00
  -23    7   12     -0.92      0.00
   13    7   12      1.50      0.00
  -22   11   12     -0.62      0.00
  -21   14   12      1.91      0.00
  -18   20   12      0.74      0.00
    5   24   12     -0.60      0.00
    0   26   12      0.09      0.00
   -8   28   12     -0.06      0.00
   -7   28   12     -0.75      0.00
   -3   28   12      0.32      0.00
   -2   28   12     -2.46      0.00
  -23    6   13     -0.61      0.00
   12    7   13      3.22      0.00
  -22   11   13      0.23      0.00
  -21   14   13      0.11      0.00
  -20   16   13      2.04      0.00
  -19   18   13     -1.09      0.00
    7   20   13     -1.29      0.00
  -17   21   13     -0.75      0.00
  -13   25   13     -2.89      0.00
    2   25   13      1.41      0.00
   -9   27   13      0.82      0.00
   -2   27   13      0.22      0.00
  -23    5   14     -1.04      0.00
   11    7   14      2.57      0.00
   11    8   14     -0.53      0.00
  -22   10   14     -1.52      0.00
  -21   13   14      0.91      0.00
    9   14   14      0.17      0.00
    7   18   14      0.35      0.00
  -18   19   14     -0.88      0.00
    5   21   14     -0.38      0.00
    4   22   14     -1.76      0.00
    3   23   14     -2.51      0.00
    2   24   14     -0.50      0.00
  -12   25   14      0.45      0.00
  -10   26   14     -0.18      0.00
   -2   26   14      0.12      0.00
  -23    2   15      1.12      0.00
  -23    3   15      0.05      0.00
  -23    4   15      0.21      0.00
   10    7   15      1.72      0.00
  -22    9   15      0.69      0.00
    9   11   15      1.79      0.00
    8   14   15     -0.31      0.00
  -20   15   15      0.64      0.00
    7   16   15      0.99      0.00
  -19   17   15      0.75      0.00
    6   18   15     -0.23      0.00
  -17   20   15      2.25      0.00
  -16   21   15      0.65      0.00
  -15   22   15     -0.77      0.00
  -14   23   15      0.48      0.00
    0   24   15      0.64      0.00
  -10   25   15      1.13      0.00
   -6   25   15      1.32      0.00
   -2   25   15      1.28      0.00
    9    1   16      0.14      0.00
    9    7   16      1.27      0.00
  -22    8   16      0.69      0.00
    8   11   16      0.33      0.00
  -20   14   16      1.62      0.00
  -19   16   16     -0.18      0.00
  -17   19   16      0.06      0.00
   -9   19   16     -4.02      0.00
    3   20   16      0.61      0.00
    2   21   16      0.79      0.00
  -14   22   16      0.81      0.00
    1   22   16     -0.13      0.00
  -11   24   16      0.31      0.00
   -3   24   16     -0.89      0.00
    8    5   17     -0.20      0.00
  -22    6   17     -0.52      0.00
    8    6   17     -0.02      0.00
  -21   10   17     -1.16      0.00
    7   10   17      0.70      0.00
  -20   13   17      1.91      0.00
    6   13   17      1.14      0.00
  -19   15   17     -0.80      0.00
    5   15   17     -0.76      0.00
  -17   18   17      0.22      0.00
    3   18   17     -1.05      0.00
    2   19   17     -0.49      0.00
    1   20   17      1.79      0.00
  -14   21   17      1.12      0.00
    0   21   17      1.85      0.00
  -11   23   17      0.86      0.00
  -10   23   17      0.93      0.00
   -4   23   17     -2.53      0.00
  -22    0   18      0.64      0.00
  -22    1   18      0.02      0.00
  -22    2   18      0.15      0.00
  -22    3   18     -0.07      0.00
    7    3   18      1.49      0.00
  -22    4   18      0.99      0.00
    7    4   18     -0.39      0.00
  -21    9   18     -0.18      0.00
    6    9   18      0.36      0.00
    5   12   18      1.67      0.00
  -19   14   18     -1.22      0.00
    4   14   18     -0.95      0.00
  -17   17   18     -1.45      0.00
    2   17   18      0.55      0.00
  -16   18   18     -2.30      0.00
  -15   19   18      0.16      0.00
  -14   20   18     -0.48      0.00
   -1   20   18     -1.62      0.00
  -10   22   18      0.63      0.00
   -5   22   18     -1.59      0.00
  -21    6   19     -0.18      0.00
    5    7   19     -1.51      0.00
  -20   10   19      0.48      0.00
  -19   12   19     -1.17      0.00
    3   13   19      0.63      0.00
  -18   14   19     -0.59      0.00
    1   16   19     -1.74      0.00
  -16   17   19      0.09      0.00
    0   17   19      2.58      0.00
  -15   18   19      1.14      0.00
   -1   18   19      2.07      0.00
   -2   19   19     -0.87      0.00
  -12   20   19      0.61      0.00
   -4   20   19     -0.81      0.00
   -9   21   19     -0.31      0.00
   -8   21   19      0.35      0.00
   -7   21   19      0.35      0.00
  -21    1   20     -0.36      0.00
  -21    2   20     -1.12      0.00
    4    4   20      0.62      0.00
    4    5   20     -1.58      0.00
  -20    7   20     -0.66      0.00
    3    9   20     -0.06      0.00
  -19   10   20      1.47      0.00
    2   11   20      0.48      0.00
    1   13   20     -0.62      0.00
  -17   14   20     -0.62      0.00
   -1   16   20      0.76      0.00
  -14   17   20      0.30      0.00
  -13   18   20      0.03      0.00
   -4   18   20     -0.37      0.00
  -11   19   20     -0.36      0.00
  -10   19   20     -0.08      0.00
   -7   19   20     -0.19      0.00
   -6   19   20     -0.37      0.00
  -20    1   21     -0.41      0.00
  -20    2   21      0.48      0.00
  -20    3   21      0.02      0.00
  -20    4   21     -0.15      0.00
    2    6   21     -1.34      0.00
  -19    8   21      0.51      0.00
    1    9   21      0.70      0.00
  -18   10   21     -0.64      0.00
    0   11   21      0.76      0.00
  -17   12   21     -2.01      0.00
   -1   13   21     -0.53      0.00
   -2   14   21      0.29      0.00
   -3   15   21      1.23      0.00
  -13   16   21      1.71      0.00
   -4   16   21      1.65      0.00
  -11   17   21      1.49      0.00
   -6   17   21      1.49      0.00
  -19    1   22      0.10      0.00
    1    1   22     -1.28      0.00
  -19    2   22      0.03      0.00
  -19    3   22     -0.19      0.00
    0    6   22      1.31      0.00
  -18    7   22     -1.25      0.00
  -17    9   22     -0.93      0.00
   -1    9   22      0.76      0.00
  -16   11   22     -0.45      0.00
   -2   11   22     -0.31      0.00
   -3   12   22     -1.45      0.00
   -4   13   22      1.47      0.00
  -13   14   22     -1.07      0.00
   -5   14   22     -0.36      0.00
  -11   15   22     -0.61      0.00
  -10   15   22      1.82      0.00
   -9   15   22      0.77      0.00
   -8   15   22     -0.03      0.00
   -7   15   22     -2.47      0.00
  -17    5   23     -0.10      0.00
   -2    5   23      0.40      0.00
  -17    6   23     -0.67      0.00
  -16    8   23      1.54      0.00
   -3    8   23      2.14      0.00
  -15    9   23     -1.47      0.00
   -4    9   23     -0.35      0.00
   -6   11   23      0.61      0.00
  -12   12   23     -0.66      0.00
   -8   12   23      1.08      0.00
   -7   12   23     -1.29      0.00
  -16    0   24     -1.01      0.00
   -4    0   24      0.16      0.00
  -16    1   24      0.66      0.00
   -4    1   24      0.18      0.00
   -4    2   24     -0.50      0.00
  -15    4   24     -0.51      0.00
   -5    4   24      0.71      0.00
  -15    5   24      1.47      0.00
   -5    5   24      0.30      0.00
  -14    6   24     -0.66      0.00
   -6    6   24      0.50      0.00
  -14    7   24     -1.14      0.00
   -6    7   24     -1.41      0.00
  -13    8   24      1.42      0.00
  -12    8   24      0.95      0.00
   -8    8   24      0.33      0.00
   -7    8   24      0.20      0.00
  -11    9   24      0.71      0.00
  -10    9   24     -0.90      0.00
   -9    9   24      1.06      0.00
    0    0    0      0.00      0.00
# SQUEEZE RESULTS (Version =  21116)
# Note: Data are Listed for all Voids in the P1 Unit Cell
# i.e. Centre of Gravity, Solvent Accessible Volume,
# Recovered number of Electrons in the Void and
# Details about the Squeezed Material
loop_
  _platon_squeeze_void_nr
  _platon_squeeze_void_average_x
  _platon_squeeze_void_average_y
  _platon_squeeze_void_average_z
  _platon_squeeze_void_volume
  _platon_squeeze_void_count_electrons
  _platon_squeeze_void_content
   1  0.029  0.107  0.029      1735       456 ' '
# Missing Reflections Below sin(th)/lambda = 0.25
loop_
  _platon_missing_refln_index_h
  _platon_missing_refln_index_k
  _platon_missing_refln_index_l
  _platon_missing_refln_theta
    1    1    0     1.463
    0    2    0     1.606
   -1    0    1     1.259
    1    0    1     2.017
   -1    1    1     1.494
    0    1    1     1.406
    0    2    1     1.978
   -4    3    1     5.115
_platon_squeeze_void_probe_radius                  1.20
_platon_squeeze_details
)
TITL gac269    P 1 21/n 1   R = 0.13
CELL   18.5382   25.3600   19.6509     90.00    116.08     90.00
SPGR P21/n
# Solvent Accessible Volume =      1733
# Electrons Found in S.A.V. =       456
# Note: Atoms in Void as Cxxx and Qxxx all others
C101 0.283 0.746 0.206 !       6.49 eA-3
C102 0.152 0.943 0.129 !       5.84 eA-3
C103 0.131 0.230 0.284 !       5.71 eA-3
C104 1.000 0.928 0.934 !       5.04 eA-3
C105 0.394 0.687 0.248 !       4.98 eA-3
C106 0.296 0.434 0.403 !       4.84 eA-3
C107 0.578 0.549 0.378 !       4.81 eA-3
C108 0.723 0.055 0.786 !       4.56 eA-3
C109 0.742 0.313 0.794 !       4.52 eA-3
C110 0.504 0.532 0.377 !       4.26 eA-3
C111 0.184 0.911 0.095 !       4.16 eA-3
C112 0.698 0.537 0.703 !       4.14 eA-3
C113 0.235 0.390 0.330 !       3.84 eA-3
C114 0.278 0.948 0.169 !       3.69 eA-3
Q115 0.055 0.064 0.123 !       3.65 eA-3
C116 0.325 0.653 0.250 !       3.42 eA-3
C117 0.920 0.109 0.107 !       3.36 eA-3
C118 0.985 0.113 0.097 !       3.26 eA-3
C119 0.683 0.345 0.795 !       2.91 eA-3
C120 0.313 0.403 0.299 !       1.81 eA-3
C121 0.162 0.118 0.268 !       1.28 eA-3
C122 0.212 0.930 0.158 !       1.02 eA-3
C123 0.178 0.201 0.282 !       1.01 eA-3
Q124 1.000 0.370 0.919 !       0.90 eA-3
Q125 0.439 0.326 0.301 !       0.90 eA-3
Q126 0.874 0.353 0.591 !       0.86 eA-3
Q127 0.250 0.068 0.082 !       0.82 eA-3
Q128 1.003 0.768 0.423 !       0.80 eA-3
Q129 0.028 0.864 0.186 !       0.80 eA-3
Q130 0.107 0.646 0.453 !       0.77 eA-3
Q131 0.128 0.606 0.278 !       0.77 eA-3
Q132 0.454 0.413 0.144 !       0.73 eA-3
Q133 0.778 0.467 0.551 !       0.72 eA-3
Q134 0.043 0.474 0.433 !       0.72 eA-3
Q135 0.539 0.757 0.187 !       0.71 eA-3
Q136 0.123 0.648 0.354 !       0.70 eA-3
Q137 0.493 0.376 0.857 !       0.70 eA-3
Q138 0.847 0.237 0.215 !       0.69 eA-3
Q139 0.736 0.898 0.958 !       0.68 eA-3
Q140 0.252 0.099 0.073 !       0.68 eA-3
Q141 0.630 0.245 0.827 !       0.67 eA-3
Q142 0.223 0.492 0.732 !       0.67 eA-3
Q143 0.614 0.392 0.220 !       0.66 eA-3
Q144 0.988 0.907 0.359 !       0.66 eA-3
Q145 0.268 0.971 0.436 !       0.65 eA-3
Q146 0.060 0.572 0.403 !       0.65 eA-3
Q147 0.408 0.874 0.027 !       0.64 eA-3
Q148 0.809 0.711 0.192 !       0.64 eA-3
Q149 0.998 0.433 0.128 !       0.64 eA-3
Q150 0.154 0.655 0.445 !       0.64 eA-3
Q151 0.528 0.336 0.389 !       0.63 eA-3
Q152 0.281 0.810 0.393 !       0.63 eA-3
Q153 0.124 0.335 0.482 !       0.63 eA-3
Q154 0.752 0.375 0.416 !       0.63 eA-3
Q155 0.046 0.868 0.581 !       0.63 eA-3
Q156 0.971 0.065 0.297 !       0.62 eA-3
Q157 0.283 0.568 0.464 !       0.62 eA-3
Q158 0.204 0.734 0.987 !       0.62 eA-3
Q159 0.708 0.274 0.581 !       0.61 eA-3
Q160 0.156 0.250 0.073 !       0.60 eA-3
Q161 0.501 0.804 0.416 !       0.60 eA-3
Q162 0.542 0.552 0.188 !       0.59 eA-3
Q163 0.950 0.432 0.234 !       0.59 eA-3
Q164 0.122 0.571 0.187 !       0.58 eA-3
Q165 0.279 0.861 0.610 !       0.58 eA-3
Q166 0.739 0.375 0.329 !       0.58 eA-3
Q167 0.105 0.547 0.418 !       0.58 eA-3
Q168 0.785 0.042 0.564 !       0.58 eA-3
Q169 0.746 0.842 0.468 !       0.57 eA-3
Q170 0.522 0.885 0.671 !       0.57 eA-3
Q171 0.829 0.788 0.501 !       0.57 eA-3
Q172 0.780 0.862 0.921 !       0.57 eA-3
Q173 0.972 0.705 0.343 !       0.56 eA-3
Q174 0.779 0.595 0.014 !       0.56 eA-3
Q175 0.165 0.333 0.124 !       0.56 eA-3
Q176 0.215 0.105 0.937 !       0.56 eA-3
Q177 0.381 0.090 0.297 !       0.56 eA-3
Q178 0.100 0.920 0.626 !       0.55 eA-3
Q179 0.552 0.259 0.128 !       0.54 eA-3
Q180 0.142 0.554 0.093 !       0.54 eA-3
Q181 0.851 0.969 0.438 !       0.53 eA-3
Q182 0.011 0.842 0.107 !       0.53 eA-3
Q183 0.588 0.919 0.593 !       0.53 eA-3
Q184 0.687 0.780 0.942 !       0.53 eA-3
Q185 0.812 0.659 0.901 !       0.52 eA-3
Q186 0.808 0.494 0.903 !       0.52 eA-3
Q187 0.997 0.408 0.222 !       0.52 eA-3
Q188 0.934 0.485 0.186 !       0.51 eA-3
Q189 0.236 0.703 0.438 !       0.51 eA-3
Q190 0.752 0.861 0.231 !       0.51 eA-3
C191 0.465 0.519 0.284 !       0.51 eA-3
Q192 0.710 0.323 0.020 !       0.51 eA-3
Q193 0.828 0.111 0.529 !       0.50 eA-3
Q194 0.033 0.692 0.405 !       0.50 eA-3
)
;
_shelx_fab_checksum              52175
_olex2_submission_special_instructions 'No special instructions were received'
_oxdiff_exptl_absorpt_empirical_details
;
Empirical correction (ABSPACK) includes:
- Absorption correction using spherical harmonics
- Frame scaling
;
_oxdiff_exptl_absorpt_empirical_full_max 2.491
_oxdiff_exptl_absorpt_empirical_full_min 0.630
loop_
_space_group_symop_operation_xyz
'x, y, z'
'-x+1/2, y+1/2, -z+1/2'
'-x, -y, -z'
'x-1/2, -y-1/2, z-1/2'
loop_
_atom_site_label
_atom_site_type_symbol
_atom_site_fract_x
_atom_site_fract_y
_atom_site_fract_z
_atom_site_U_iso_or_equiv
_atom_site_adp_type
_atom_site_occupancy
_atom_site_site_symmetry_order
_atom_site_calc_flag
_atom_site_refinement_flags_posn
_atom_site_refinement_flags_adp
_atom_site_refinement_flags_occupancy
_atom_site_disorder_assembly
_atom_site_disorder_group
Cu1 Cu 0.86423(2) 0.36193(2) 0.56489(2) 0.01724(8) Uani 1 1 d . . . . .
Cu2 Cu 0.26322(2) 0.58421(2) 0.45082(2) 0.01774(8) Uani 1 1 d . . . . .
O7 O 0.91380(9) 0.43128(6) 0.57251(9) 0.0225(3) Uani 1 1 d . . . . .
O2 O 0.81549(9) 0.36619(7) 0.45364(9) 0.0234(3) Uani 1 1 d . . . . .
O8 O 0.79920(9) 0.47636(6) 0.54217(9) 0.0258(4) Uani 1 1 d . . . . .
O5 O 0.09910(9) 0.63641(6) 0.32481(9) 0.0243(3) Uani 1 1 d . . . . .
O6 O 0.80850(9) 0.89099(6) 0.47148(10) 0.0268(4) Uani 1 1 d . . . . .
O1T O 0.95980(9) 0.31312(6) 0.56540(9) 0.0246(4) Uani 1 1 d . . . . .
O9 O 0.30676(9) 0.65222(6) 0.43960(9) 0.0240(3) Uani 1 1 d . . . . .
O3 O 0.69904(9) 0.40267(7) 0.43972(8) 0.0239(4) Uani 1 1 d . . . . .
O4 O 0.19985(9) 0.58136(6) 0.33905(9) 0.0245(4) Uani 1 1 d . . . . .
O10 O 0.20380(9) 0.69919(6) 0.44018(9) 0.0250(4) Uani 1 1 d . . . . .
O1 O 0.19016(11) 0.34953(7) -0.08888(10) 0.0359(4) Uani 1 1 d . . . . .
O1W O 0.36325(11) 0.53876(8) 0.45822(11) 0.0399(5) Uani 1 1 d . . . . .
H1WA H 0.390430 0.556008 0.439166 0.060 Uiso 1 1 d GR . . . .
H1WB H 0.346634 0.511197 0.429496 0.060 Uiso 1 1 d GR . . . .
O1B O 1.01885(14) 0.57944(8) 0.87210(11) 0.0480(5) Uani 1 1 d . . . . .
C39 C 0.91609(13) 0.52345(9) 0.56072(12) 0.0206(5) Uani 1 1 d . . . . .
C14 C 0.63313(13) 0.39233(9) 0.28305(13) 0.0236(5) Uani 1 1 d . . . . .
H14 H 0.600540 0.404686 0.304498 0.028 Uiso 1 1 calc R . . . .
C13 C 0.71328(13) 0.37964(9) 0.32961(12) 0.0205(5) Uani 1 1 d . . . . .
C22 C 0.10449(13) 0.60246(9) 0.21500(12) 0.0215(5) Uani 1 1 d . . . . .
C40 C 0.87502(13) 0.57103(9) 0.54732(13) 0.0235(5) Uani 1 1 d . . . . .
H40 H 0.821182 0.571440 0.537567 0.028 Uiso 1 1 calc R . . . .
C47 C 0.25747(14) 0.78889(9) 0.39423(13) 0.0235(5) Uani 1 1 d . . . . .
H47 H 0.204192 0.788426 0.386318 0.028 Uiso 1 1 calc R . . . .
C36 C 0.99484(14) 0.61704(10) 0.56120(13) 0.0251(5) Uani 1 1 d . . . . .
H36 H 1.020858 0.648264 0.560574 0.030 Uiso 1 1 calc R . . . .
C35 C 0.91417(14) 0.61815(9) 0.54842(13) 0.0245(5) Uani 1 1 d . . . . .
C44 C 0.41819(13) 0.79069(9) 0.42072(12) 0.0227(5) Uani 1 1 d . . . . .
C48 C 0.30485(13) 0.74406(9) 0.42121(12) 0.0204(5) Uani 1 1 d . . . . .
C23 C 0.14502(14) 0.57131(9) 0.18540(13) 0.0227(5) Uani 1 1 d . . . . .
H23 H 0.191659 0.553982 0.218070 0.027 Uiso 1 1 calc R . . . .
C43 C 0.50195(14) 0.79202(9) 0.43677(13) 0.0242(5) Uani 1 1 d . . . . .
C49 C 0.38516(13) 0.74471(9) 0.43435(12) 0.0224(5) Uani 1 1 d . . . . .
H49 H 0.416607 0.714632 0.452139 0.027 Uiso 1 1 calc R . . . .
C2 C 0.32005(14) 0.37582(10) 0.01197(13) 0.0261(5) Uani 1 1 d . . . . .
H2 H 0.347414 0.349312 0.000254 0.031 Uiso 1 1 calc R . . . .
C41 C 0.87333(13) 0.47309(9) 0.55863(12) 0.0194(5) Uani 1 1 d . . . . .
C38 C 0.99723(13) 0.52296(9) 0.57524(12) 0.0212(5) Uani 1 1 d . . . . .
H38 H 1.025219 0.491254 0.585213 0.025 Uiso 1 1 calc R . . . .
C12 C 0.76263(14) 0.36213(9) 0.29742(13) 0.0244(5) Uani 1 1 d . . . . .
H12 H 0.815736 0.353064 0.328289 0.029 Uiso 1 1 calc R . . . .
C3 C 0.36155(14) 0.40984(10) 0.07315(13) 0.0254(5) Uani 1 1 d . . . . .
C15 C 0.74479(13) 0.38343(9) 0.41420(12) 0.0208(5) Uani 1 1 d . . . . .
C50 C 0.26923(13) 0.69455(9) 0.43537(12) 0.0207(5) Uani 1 1 d . . . . .
C29 C 0.78354(14) 0.75337(10) 0.50427(13) 0.0265(5) Uani 1 1 d . . . . .
C21 C 0.03452(14) 0.62861(9) 0.16589(13) 0.0237(5) Uani 1 1 d . . . . .
H21 H 0.005977 0.648814 0.185278 0.028 Uiso 1 1 calc R . . . .
C5 C 0.23797(14) 0.45651(10) 0.04529(13) 0.0254(5) Uani 1 1 d . . . . .
C7 C 0.44683(15) 0.40287(10) 0.11842(13) 0.0282(5) Uani 1 1 d . . . . .
C42 C 0.57170(14) 0.79388(10) 0.45170(13) 0.0257(5) Uani 1 1 d . . . . .
C10 C 0.65195(14) 0.36995(10) 0.17235(13) 0.0261(5) Uani 1 1 d . . . . .
H10 H 0.631812 0.366718 0.120049 0.031 Uiso 1 1 calc R . . . .
C27 C 0.76984(14) 0.84667(9) 0.47714(13) 0.0238(5) Uani 1 1 d . . . . .
C17 C 0.15814(15) 0.52943(10) 0.07969(13) 0.0265(5) Uani 1 1 d . . . . .
C18 C 0.11684(14) 0.56542(10) 0.10670(13) 0.0243(5) Uani 1 1 d . . . . .
C11 C 0.73229(15) 0.35821(10) 0.21885(13) 0.0279(5) Uani 1 1 d . . . . .
H11 H 0.765795 0.347728 0.197377 0.033 Uiso 1 1 calc R . . . .
C16 C 0.19480(15) 0.49678(10) 0.06354(13) 0.0278(5) Uani 1 1 d . . . . .
C30 C 0.70236(14) 0.75107(10) 0.48972(13) 0.0266(5) Uani 1 1 d . . . . .
H30 H 0.679943 0.719203 0.494109 0.032 Uiso 1 1 calc R . . . .
C45 C 0.36977(14) 0.83549(10) 0.39248(13) 0.0250(5) Uani 1 1 d . . . . .
H45 H 0.391276 0.866060 0.382665 0.030 Uiso 1 1 calc R . . . .
C1 C 0.23738(15) 0.38201(10) -0.03121(13) 0.0272(5) Uani 1 1 d . . . . .
C28 C 0.81681(14) 0.80156(10) 0.49861(13) 0.0259(5) Uani 1 1 d . . . . .
H28 H 0.870852 0.803437 0.509321 0.031 Uiso 1 1 calc R . . . .
C24 C 0.13652(13) 0.60731(9) 0.29958(12) 0.0211(5) Uani 1 1 d . . . . .
C31 C 0.65541(14) 0.79651(10) 0.46872(13) 0.0241(5) Uani 1 1 d . . . . .
C46 C 0.28963(14) 0.83425(10) 0.37913(13) 0.0264(5) Uani 1 1 d . . . . .
H46 H 0.257534 0.863928 0.360033 0.032 Uiso 1 1 calc R . . . .
C33 C 0.83090(15) 0.70632(10) 0.52229(14) 0.0299(5) Uani 1 1 d . . . . .
O1C O 0.46259(17) 0.31622(11) 0.41581(16) 0.0755(8) Uani 1 1 d . . . . .
C37 C 1.03571(14) 0.56970(10) 0.57472(13) 0.0247(5) Uani 1 1 d . . . . .
H37 H 1.089268 0.569203 0.583497 0.030 Uiso 1 1 calc R . . . .
C9 C 0.60155(14) 0.38659(10) 0.20432(13) 0.0254(5) Uani 1 1 d . . . . .
C32 C 0.68890(14) 0.84494(10) 0.46210(13) 0.0237(5) Uani 1 1 d . . . . .
H32 H 0.657624 0.875304 0.447945 0.028 Uiso 1 1 calc R . . . .
C4 C 0.32076(15) 0.44990(10) 0.09030(13) 0.0272(5) Uani 1 1 d . . . . .
H4 H 0.348189 0.472121 0.131292 0.033 Uiso 1 1 calc R . . . .
C6 C 0.19703(15) 0.42301(10) -0.01565(13) 0.0272(5) Uani 1 1 d . . . . .
H6 H 0.142479 0.428026 -0.046121 0.033 Uiso 1 1 calc R . . . .
C8 C 0.51730(15) 0.39641(10) 0.15656(13) 0.0274(5) Uani 1 1 d . . . . .
C20 C 0.00763(15) 0.62434(10) 0.08789(13) 0.0288(5) Uani 1 1 d . . . . .
H20 H -0.037976 0.642746 0.055473 0.035 Uiso 1 1 calc R . . . .
C51 C 0.76173(15) 0.93716(10) 0.43929(15) 0.0300(5) Uani 1 1 d . . . . .
H51A H 0.736416 0.949297 0.470399 0.036 Uiso 1 1 calc R . . . .
H51B H 0.720173 0.929753 0.388808 0.036 Uiso 1 1 calc R . . . .
C25 C 0.22605(17) 0.30151(11) -0.09921(16) 0.0387(7) Uani 1 1 d . . . . .
H25A H 0.251874 0.282377 -0.051784 0.046 Uiso 1 1 calc R . . . .
H25B H 0.265904 0.309366 -0.117227 0.046 Uiso 1 1 calc R . . . .
C34 C 0.87017(14) 0.66693(10) 0.53455(14) 0.0291(5) Uani 1 1 d . . . . .
C19 C 0.04790(15) 0.59301(10) 0.05781(13) 0.0278(5) Uani 1 1 d . . . . .
H19 H 0.029298 0.590330 0.005604 0.033 Uiso 1 1 calc R . . . .
C5B C 1.00394(18) 0.60794(11) 0.80454(15) 0.0383(6) Uani 1 1 d . . . . .
H5BA H 1.034199 0.640619 0.816776 0.046 Uiso 1 1 calc R . . . .
H5BB H 0.947275 0.616270 0.777062 0.046 Uiso 1 1 calc R . . . .
C52 C 0.81884(18) 0.97836(11) 0.43616(17) 0.0386(6) Uani 1 1 d . . . . .
H52A H 0.840159 0.967036 0.402030 0.058 Uiso 1 1 calc GR . . . .
H52B H 0.862016 0.983183 0.485841 0.058 Uiso 1 1 calc GR . . . .
H52C H 0.790708 1.011086 0.418626 0.058 Uiso 1 1 calc GR . . . .
O1D O 0.78592(17) 0.61013(11) 0.28005(19) 0.0822(9) Uani 1 1 d . . . . .
O1A O 0.60942(18) 0.75732(15) 0.17063(15) 0.0897(10) Uani 1 1 d D . . . .
C2T C 0.93980(16) 0.26114(11) 0.53267(17) 0.0385(6) Uani 1 1 d . . . . .
H2TA H 0.903013 0.263202 0.479227 0.046 Uiso 1 1 calc R . . . .
H2TB H 0.915176 0.240311 0.558211 0.046 Uiso 1 1 calc R . . . .
C5T C 1.04216(15) 0.31505(12) 0.62074(16) 0.0390(7) Uani 1 1 d D . . . .
H5TA H 1.045869 0.322784 0.670518 0.047 Uiso 1 1 calc R . . . .
H5TB H 1.071063 0.342022 0.607718 0.047 Uiso 1 1 calc R . . . .
C3T C 1.01758(17) 0.23765(12) 0.54362(18) 0.0437(7) Uani 1 1 d . . . . .
H3TA H 1.031485 0.248003 0.503355 0.052 Uiso 1 1 calc R . . . .
H3TB H 1.016078 0.199468 0.545730 0.052 Uiso 1 1 calc R . . . .
C4T C 1.07657(18) 0.26074(13) 0.61975(18) 0.0504(8) Uani 1 1 d D . . . .
H4TA H 1.078795 0.239293 0.661501 0.061 Uiso 1 1 calc R . . . .
H4TB H 1.130088 0.263428 0.622758 0.061 Uiso 1 1 calc R . . . .
C4B C 1.0297(2) 0.57339(12) 0.75793(16) 0.0430(7) Uani 1 1 d . U . . .
H4BA H 1.085672 0.579324 0.769604 0.052 Uiso 1 1 calc R . . . .
H4BB H 0.996921 0.579197 0.704230 0.052 Uiso 1 1 calc R . . . .
C5C C 0.4461(2) 0.26606(15) 0.38012(19) 0.0637(10) Uani 1 1 d . . . . .
H5CA H 0.404083 0.248408 0.388208 0.076 Uiso 1 1 calc R . . . .
H5CB H 0.493862 0.244182 0.400825 0.076 Uiso 1 1 calc R . . . .
C3D C 0.7952(2) 0.51784(15) 0.27448(19) 0.0636(10) Uani 1 1 d . . . . .
H3DA H 0.745482 0.506798 0.232422 0.076 Uiso 1 1 calc R . . . .
H3DB H 0.834906 0.490139 0.285940 0.076 Uiso 1 1 calc R . . . .
C26 C 0.1581(2) 0.26922(14) -0.1574(2) 0.0621(10) Uani 1 1 d . . . . .
H26A H 0.131597 0.289292 -0.203181 0.093 Uiso 1 1 calc GR . . . .
H26B H 0.120272 0.260563 -0.137896 0.093 Uiso 1 1 calc GR . . . .
H26C H 0.179284 0.237363 -0.167898 0.093 Uiso 1 1 calc GR . . . .
C2B C 1.0206(3) 0.52511(13) 0.85681(19) 0.0611(10) Uani 1 1 d . U . . .
H2BA H 0.975345 0.507473 0.859133 0.073 Uiso 1 1 calc R . . . .
H2BB H 1.069592 0.509445 0.894644 0.073 Uiso 1 1 calc R . . . .
C4D C 0.7822(2) 0.53158(16) 0.3430(2) 0.0668(10) Uani 1 1 d . . . . .
H4DA H 0.739695 0.510296 0.344932 0.080 Uiso 1 1 calc R . . . .
H4DB H 0.830999 0.526361 0.389330 0.080 Uiso 1 1 calc R . . . .
C4C C 0.4194(2) 0.27528(16) 0.2965(2) 0.0669(11) Uani 1 1 d . . . . .
H4CA H 0.361506 0.278949 0.269639 0.080 Uiso 1 1 calc R . . . .
H4CB H 0.436443 0.246717 0.274097 0.080 Uiso 1 1 calc R . . . .
C3A C 0.6631(2) 0.72670(18) 0.2947(2) 0.0681(10) Uani 1 1 d D . . . .
H3AA H 0.673574 0.691989 0.317773 0.082 Uiso 1 1 calc R . . . .
H3AB H 0.699720 0.751692 0.330738 0.082 Uiso 1 1 calc R . . . .
C4E C 0.5131(2) 0.62538(17) 0.0966(2) 0.0721(11) Uani 1 1 d D U . . .
H4EC H 0.477411 0.651042 0.061160 0.086 Uiso 0.322(11) 1 calc R . P A 2
H4ED H 0.564795 0.642144 0.125136 0.086 Uiso 0.322(11) 1 calc R . P A 2
H4EA H 0.538067 0.659897 0.109257 0.086 Uiso 0.678(11) 1 calc R . P A 1
H4EB H 0.473331 0.624742 0.044032 0.086 Uiso 0.678(11) 1 calc R . P A 1
C3B C 1.0171(3) 0.51826(14) 0.7814(2) 0.0708(11) Uani 1 1 d . U . . .
H3BA H 0.965305 0.504298 0.746173 0.085 Uiso 1 1 calc R . . . .
H3BB H 1.058877 0.494476 0.783248 0.085 Uiso 1 1 calc R . . . .
C2A C 0.6736(3) 0.72631(17) 0.2249(2) 0.0694(11) Uani 1 1 d D . . . .
H2AA H 0.725123 0.741388 0.233993 0.083 Uiso 1 1 calc R . . . .
H2AB H 0.671101 0.690522 0.206569 0.083 Uiso 1 1 calc R . . . .
C2C C 0.5027(3) 0.3429(2) 0.3793(3) 0.0993(18) Uani 1 1 d D . . . .
H2CA H 0.558955 0.333085 0.401807 0.119 Uiso 1 1 calc R . . . .
H2CB H 0.498926 0.380737 0.384252 0.119 Uiso 1 1 calc R . . . .
C4A C 0.5801(2) 0.74211(19) 0.2727(2) 0.0704(11) Uani 1 1 d D . . . .
H4AA H 0.577163 0.767119 0.308762 0.085 Uiso 1 1 calc R . . . .
H4AB H 0.547833 0.711523 0.270765 0.085 Uiso 1 1 calc R . . . .
C2D C 0.8255(3) 0.57031(16) 0.2570(3) 0.0735(11) Uani 1 1 d . . . . .
H2DA H 0.883404 0.573161 0.285425 0.088 Uiso 1 1 calc R . . . .
H2DB H 0.811270 0.573231 0.203392 0.088 Uiso 1 1 calc R . . . .
C5A C 0.5510(3) 0.76656(16) 0.1967(2) 0.0652(10) Uani 1 1 d D . . . .
H5AA H 0.500168 0.751065 0.162252 0.078 Uiso 1 1 calc R . . . .
H5AB H 0.543320 0.804150 0.199871 0.078 Uiso 1 1 calc R . . . .
O1E O 0.4798(3) 0.5504(2) 0.1544(3) 0.1393(16) Uani 1 1 d D U . . .
C22E C 0.5213(16) 0.5413(9) 0.1106(13) 0.083(6) Uani 0.322(11) 1 d D U P A 2
H22A H 0.500001 0.508991 0.082590 0.099 Uiso 0.322(11) 1 calc R . P A 2
H22B H 0.576784 0.534280 0.145673 0.099 Uiso 0.322(11) 1 calc R . P A 2
C3C C 0.4617(3) 0.3268(3) 0.2956(3) 0.126(2) Uani 1 1 d D . . . .
H3CA H 0.423402 0.353354 0.265165 0.151 Uiso 1 1 calc R . . . .
H3CB H 0.500860 0.321372 0.275982 0.151 Uiso 1 1 calc R . . . .
C5D C 0.7592(3) 0.58838(19) 0.3319(3) 0.0818(13) Uani 1 1 d . . . . .
H5DA H 0.701366 0.591923 0.311878 0.098 Uiso 1 1 calc R . . . .
H5DB H 0.783950 0.606899 0.379930 0.098 Uiso 1 1 calc R . . . .
C32E C 0.5226(9) 0.5810(4) 0.0553(8) 0.065(4) Uani 0.322(11) 1 d D U P A 2
H32A H 0.573150 0.581642 0.051780 0.078 Uiso 0.322(11) 1 calc R . P A 2
H32B H 0.478123 0.577112 0.005432 0.078 Uiso 0.322(11) 1 calc R . P A 2
C5E C 0.4792(4) 0.6081(3) 0.1500(3) 0.132(3) Uani 1 1 d D U . . .
H5EA H 0.511102 0.622739 0.199938 0.159 Uiso 1 1 calc R . . . .
H5EB H 0.424629 0.620967 0.132111 0.159 Uiso 1 1 calc R . . . .
C21E C 0.5441(5) 0.5332(4) 0.1398(6) 0.075(3) Uani 0.678(11) 1 d D . P A 1
H21A H 0.525562 0.506774 0.100071 0.090 Uiso 0.678(11) 1 calc R . P A 1
H21B H 0.585971 0.517730 0.185100 0.090 Uiso 0.678(11) 1 calc R . P A 1
C31E C 0.5759(4) 0.5800(2) 0.1158(5) 0.075(2) Uani 0.678(11) 1 d D . P A 1
H31A H 0.584176 0.571448 0.071593 0.090 Uiso 0.678(11) 1 calc R . P A 1
H31B H 0.626918 0.590875 0.156217 0.090 Uiso 0.678(11) 1 calc R . P A 1
loop_
_atom_site_aniso_label
_atom_site_aniso_U_11
_atom_site_aniso_U_22
_atom_site_aniso_U_33
_atom_site_aniso_U_23
_atom_site_aniso_U_13
_atom_site_aniso_U_12
Cu1 0.01634(13) 0.01317(14) 0.02112(13) -0.00028(10) 0.00723(11) 0.00002(10)
Cu2 0.01549(13) 0.01398(14) 0.02213(14) 0.00013(10) 0.00677(11) -0.00038(10)
O7 0.0201(8) 0.0147(8) 0.0307(8) -0.0008(7) 0.0095(7) -0.0011(6)
O2 0.0190(8) 0.0252(9) 0.0231(8) 0.0002(7) 0.0067(6) 0.0005(7)
O8 0.0181(8) 0.0176(9) 0.0376(9) 0.0039(7) 0.0085(7) -0.0013(7)
O5 0.0280(8) 0.0209(9) 0.0230(8) 0.0008(7) 0.0103(7) 0.0049(7)
O6 0.0260(9) 0.0166(9) 0.0397(9) 0.0036(7) 0.0162(7) -0.0019(7)
O1T 0.0218(8) 0.0170(9) 0.0320(8) -0.0038(7) 0.0090(7) 0.0026(7)
O9 0.0215(8) 0.0177(9) 0.0333(9) 0.0021(7) 0.0125(7) -0.0017(7)
O3 0.0194(8) 0.0278(9) 0.0221(8) -0.0004(7) 0.0067(7) 0.0002(7)
O4 0.0233(8) 0.0236(9) 0.0226(8) -0.0016(7) 0.0064(7) 0.0042(7)
O10 0.0239(8) 0.0178(9) 0.0366(9) -0.0015(7) 0.0162(7) -0.0042(7)
O1 0.0335(10) 0.0287(10) 0.0309(9) -0.0084(8) 0.0008(8) 0.0098(8)
O1W 0.0336(10) 0.0399(12) 0.0470(11) 0.0029(9) 0.0184(9) 0.0146(9)
O1B 0.0779(15) 0.0354(12) 0.0369(10) -0.0027(9) 0.0310(11) -0.0053(11)
C39 0.0237(11) 0.0170(12) 0.0202(10) -0.0019(9) 0.0088(9) -0.0038(9)
C14 0.0227(11) 0.0191(12) 0.0282(12) 0.0029(10) 0.0104(10) -0.0014(9)
C13 0.0219(11) 0.0138(11) 0.0224(11) 0.0016(9) 0.0065(9) -0.0049(9)
C22 0.0236(11) 0.0177(12) 0.0226(11) -0.0011(9) 0.0096(9) -0.0038(9)
C40 0.0185(11) 0.0191(12) 0.0301(12) 0.0021(10) 0.0080(9) -0.0009(9)
C47 0.0207(11) 0.0226(13) 0.0256(11) -0.0030(10) 0.0088(9) -0.0036(10)
C36 0.0271(12) 0.0198(12) 0.0288(12) -0.0004(10) 0.0127(10) -0.0063(10)
C35 0.0278(12) 0.0147(12) 0.0284(12) 0.0011(9) 0.0098(10) -0.0024(10)
C44 0.0241(11) 0.0218(12) 0.0211(10) -0.0011(9) 0.0090(9) -0.0055(10)
C48 0.0220(11) 0.0183(12) 0.0187(10) -0.0035(9) 0.0070(9) -0.0055(9)
C23 0.0221(11) 0.0184(12) 0.0263(11) 0.0015(9) 0.0093(9) -0.0002(9)
C43 0.0285(13) 0.0169(12) 0.0251(11) 0.0026(9) 0.0099(10) -0.0048(10)
C49 0.0233(11) 0.0182(12) 0.0228(11) -0.0008(9) 0.0075(9) -0.0023(9)
C2 0.0273(12) 0.0237(13) 0.0254(11) 0.0037(10) 0.0097(10) 0.0071(10)
C41 0.0205(11) 0.0176(12) 0.0187(10) -0.0002(9) 0.0072(9) -0.0019(9)
C38 0.0229(11) 0.0182(12) 0.0221(10) -0.0025(9) 0.0097(9) 0.0000(9)
C12 0.0194(11) 0.0211(12) 0.0280(12) 0.0003(10) 0.0062(9) -0.0045(9)
C3 0.0251(12) 0.0244(13) 0.0238(11) 0.0070(10) 0.0079(10) 0.0028(10)
C15 0.0197(11) 0.0154(11) 0.0247(11) -0.0002(9) 0.0073(9) -0.0052(9)
C50 0.0202(11) 0.0197(12) 0.0200(10) -0.0018(9) 0.0068(9) -0.0035(9)
C29 0.0277(12) 0.0177(12) 0.0298(12) 0.0048(10) 0.0087(10) 0.0015(10)
C21 0.0255(12) 0.0193(12) 0.0264(11) 0.0014(9) 0.0116(10) 0.0038(9)
C5 0.0313(13) 0.0209(13) 0.0254(11) 0.0033(10) 0.0139(10) 0.0031(10)
C7 0.0317(14) 0.0249(13) 0.0264(12) 0.0043(10) 0.0113(11) 0.0012(11)
C42 0.0285(13) 0.0188(12) 0.0284(12) 0.0014(10) 0.0112(10) -0.0031(10)
C10 0.0295(12) 0.0241(13) 0.0211(11) 0.0004(10) 0.0078(10) -0.0069(10)
C27 0.0272(12) 0.0189(12) 0.0269(11) -0.0002(9) 0.0134(10) -0.0043(10)
C17 0.0313(13) 0.0249(13) 0.0236(11) 0.0000(10) 0.0123(10) -0.0012(11)
C18 0.0279(12) 0.0200(12) 0.0264(11) -0.0002(10) 0.0133(10) -0.0009(10)
C11 0.0273(12) 0.0290(14) 0.0285(12) -0.0024(10) 0.0131(10) -0.0059(10)
C16 0.0317(13) 0.0283(14) 0.0237(11) 0.0004(10) 0.0125(10) 0.0006(11)
C30 0.0295(12) 0.0179(12) 0.0300(12) 0.0036(10) 0.0110(10) -0.0048(10)
C45 0.0295(12) 0.0173(12) 0.0267(11) -0.0008(10) 0.0109(10) -0.0070(10)
C1 0.0312(13) 0.0239(13) 0.0216(11) 0.0009(10) 0.0072(10) 0.0048(10)
C28 0.0214(11) 0.0226(13) 0.0315(12) 0.0007(10) 0.0097(10) -0.0004(10)
C24 0.0211(11) 0.0171(12) 0.0235(11) -0.0011(9) 0.0085(9) -0.0034(9)
C31 0.0232(11) 0.0224(13) 0.0266(11) 0.0017(10) 0.0108(10) -0.0016(10)
C46 0.0297(13) 0.0180(12) 0.0293(12) 0.0022(10) 0.0110(10) 0.0027(10)
C33 0.0278(13) 0.0205(13) 0.0368(13) 0.0032(11) 0.0101(11) -0.0023(11)
O1C 0.0747(17) 0.0531(17) 0.0754(17) 0.0139(14) 0.0117(14) -0.0028(14)
C37 0.0220(11) 0.0261(13) 0.0272(11) -0.0025(10) 0.0119(10) -0.0040(10)
C9 0.0252(12) 0.0198(13) 0.0255(11) 0.0045(10) 0.0060(10) -0.0035(10)
C32 0.0252(12) 0.0197(12) 0.0261(11) 0.0029(9) 0.0111(10) -0.0002(10)
C4 0.0329(13) 0.0256(13) 0.0215(11) 0.0011(10) 0.0104(10) -0.0021(11)
C6 0.0261(12) 0.0277(14) 0.0245(11) 0.0038(10) 0.0081(10) 0.0056(10)
C8 0.0295(13) 0.0255(13) 0.0232(11) 0.0041(10) 0.0078(10) -0.0007(10)
C20 0.0275(12) 0.0276(14) 0.0255(12) 0.0028(10) 0.0064(10) 0.0045(10)
C51 0.0355(14) 0.0167(12) 0.0435(14) 0.0021(11) 0.0225(12) 0.0013(10)
C25 0.0410(15) 0.0304(15) 0.0373(14) -0.0054(12) 0.0106(12) 0.0123(12)
C34 0.0262(12) 0.0196(13) 0.0367(13) 0.0030(11) 0.0094(11) -0.0040(10)
C19 0.0327(13) 0.0255(14) 0.0225(11) -0.0007(10) 0.0096(10) -0.0011(11)
C5B 0.0503(17) 0.0279(15) 0.0348(14) -0.0025(12) 0.0172(13) -0.0029(13)
C52 0.0529(17) 0.0191(14) 0.0579(17) -0.0014(12) 0.0374(15) -0.0035(12)
O1D 0.0774(19) 0.0532(18) 0.113(2) 0.0040(16) 0.0397(18) 0.0129(14)
O1A 0.0738(19) 0.144(3) 0.0546(15) 0.0080(18) 0.0314(15) -0.027(2)
C2T 0.0361(15) 0.0243(14) 0.0524(16) -0.0123(13) 0.0170(13) -0.0009(12)
C5T 0.0233(13) 0.0375(17) 0.0466(16) -0.0073(13) 0.0066(12) 0.0057(12)
C3T 0.0421(16) 0.0327(17) 0.0570(18) -0.0049(14) 0.0225(14) 0.0069(13)
C4T 0.0398(16) 0.048(2) 0.0501(17) -0.0041(15) 0.0074(14) 0.0242(15)
C4B 0.0577(19) 0.0402(18) 0.0364(14) -0.0026(13) 0.0255(14) -0.0023(14)
C5C 0.066(2) 0.054(2) 0.0480(19) 0.0048(17) 0.0034(17) -0.0091(18)
C3D 0.068(2) 0.048(2) 0.0493(19) -0.0058(16) 0.0025(17) 0.0072(18)
C26 0.057(2) 0.044(2) 0.060(2) -0.0243(17) 0.0030(17) 0.0121(16)
C2B 0.091(3) 0.0317(18) 0.0472(18) 0.0014(14) 0.0184(18) -0.0197(18)
C4D 0.062(2) 0.065(3) 0.075(2) 0.007(2) 0.032(2) 0.019(2)
C4C 0.059(2) 0.067(3) 0.051(2) 0.0203(18) 0.0029(17) -0.0127(19)
C3A 0.072(3) 0.070(3) 0.063(2) 0.011(2) 0.031(2) 0.011(2)
C4E 0.054(2) 0.060(3) 0.075(3) 0.001(2) 0.0040(19) 0.0051(19)
C3B 0.121(3) 0.0288(18) 0.095(3) -0.0073(18) 0.077(3) -0.002(2)
C2A 0.078(3) 0.064(3) 0.082(3) -0.026(2) 0.050(2) -0.016(2)
C2C 0.102(4) 0.094(4) 0.079(3) 0.012(3) 0.019(3) -0.056(3)
C4A 0.076(3) 0.091(3) 0.051(2) 0.008(2) 0.0337(19) 0.020(2)
C2D 0.093(3) 0.054(3) 0.079(3) 0.003(2) 0.044(2) 0.011(2)
C5A 0.087(3) 0.058(2) 0.056(2) 0.0119(18) 0.037(2) 0.014(2)
O1E 0.130(3) 0.153(4) 0.172(4) -0.001(3) 0.100(3) -0.001(3)
C22E 0.124(16) 0.053(11) 0.094(13) -0.001(8) 0.069(12) -0.008(10)
C3C 0.092(4) 0.164(6) 0.099(4) 0.077(4) 0.022(3) -0.027(4)
C5D 0.087(3) 0.074(3) 0.092(3) -0.002(3) 0.046(3) 0.006(2)
C32E 0.055(8) 0.056(7) 0.094(10) 0.019(6) 0.042(8) 0.001(6)
C5E 0.163(6) 0.157(5) 0.071(3) 0.011(3) 0.046(3) 0.105(5)
C21E 0.064(4) 0.060(5) 0.121(8) 0.018(5) 0.058(5) 0.010(4)
C31E 0.065(4) 0.041(3) 0.118(7) 0.011(3) 0.040(5) 0.003(3)
loop_
_atom_type_symbol
_atom_type_description
_atom_type_scat_dispersion_real
_atom_type_scat_dispersion_imag
_atom_type_scat_source
C C 0.0033 0.0016 'International Tables Vol C Tables 4.2.6.8 and 6.1.1.4'
H H 0.0000 0.0000 'International Tables Vol C Tables 4.2.6.8 and 6.1.1.4'
Cu Cu 0.3201 1.2651 'International Tables Vol C Tables 4.2.6.8 and 6.1.1.4'
O O 0.0106 0.0060 'International Tables Vol C Tables 4.2.6.8 and 6.1.1.4'
loop_
_geom_angle_atom_site_label_1
_geom_angle_atom_site_label_2
_geom_angle_atom_site_label_3
_geom_angle
_geom_angle_site_symmetry_1
_geom_angle_site_symmetry_3
O7 Cu1 Cu2 84.82(5) . 3_666
O7 Cu1 O2 90.37(7) . .
O7 Cu1 O5 88.47(7) . 3_666
O7 Cu1 O1T 99.09(6) . .
O7 Cu1 O10 167.69(7) . 3_666
O2 Cu1 Cu2 83.74(5) . 3_666
O2 Cu1 O1T 90.67(6) . .
O2 Cu1 O10 90.91(7) . 3_666
O5 Cu1 Cu2 88.61(5) 3_666 3_666
O5 Cu1 O2 172.33(7) 3_666 .
O5 Cu1 O1T 97.00(6) 3_666 .
O5 Cu1 O10 88.63(7) 3_666 3_666
O1T Cu1 Cu2 173.22(4) . 3_666
O10 Cu1 Cu2 83.15(5) 3_666 3_666
O10 Cu1 O1T 93.14(6) 3_666 .
O8 Cu2 Cu1 83.55(5) 3_666 3_666
O8 Cu2 O3 89.59(7) 3_666 3_666
O8 Cu2 O4 88.22(7) 3_666 .
O8 Cu2 O1W 95.39(8) 3_666 .
O9 Cu2 Cu1 85.57(5) . 3_666
O9 Cu2 O8 169.07(7) . 3_666
O9 Cu2 O3 90.46(7) . 3_666
O9 Cu2 O4 88.87(7) . .
O9 Cu2 O1W 95.43(8) . .
O3 Cu2 Cu1 84.84(5) 3_666 3_666
O3 Cu2 O4 164.73(7) 3_666 .
O3 Cu2 O1W 97.79(7) 3_666 .
O4 Cu2 Cu1 79.91(5) . 3_666
O4 Cu2 O1W 97.45(7) . .
O1W Cu2 Cu1 177.17(6) . 3_666
C41 O7 Cu1 121.68(14) . .
C15 O2 Cu1 122.89(15) . .
C41 O8 Cu2 122.45(15) . 3_666
C24 O5 Cu1 117.70(14) . 3_666
C27 O6 C51 118.25(18) . .
C2T O1T Cu1 118.22(14) . .
C5T O1T Cu1 125.61(14) . .
C5T O1T C2T 110.41(19) . .
C50 O9 Cu2 120.95(14) . .
C15 O3 Cu2 121.41(14) . 3_666
C24 O4 Cu2 126.54(15) . .
C50 O10 Cu1 122.45(15) . 3_666
C1 O1 C25 117.35(19) . .
Cu2 O1W H1WA 110.5 . .
Cu2 O1W H1WB 110.0 . .
H1WA O1W H1WB 103.5 . .
C2B O1B C5B 108.0(2) . .
C40 C39 C41 119.8(2) . .
C40 C39 C38 119.7(2) . .
C38 C39 C41 120.4(2) . .
C13 C14 H14 119.8 . .
C13 C14 C9 120.5(2) . .
C9 C14 H14 119.8 . .
C14 C13 C15 119.6(2) . .
C12 C13 C14 119.8(2) . .
C12 C13 C15 120.6(2) . .
C23 C22 C21 119.5(2) . .
C23 C22 C24 119.2(2) . .
C21 C22 C24 121.3(2) . .
C39 C40 H40 119.9 . .
C39 C40 C35 120.3(2) . .
C35 C40 H40 119.9 . .
C48 C47 H47 120.0 . .
C46 C47 H47 120.0 . .
C46 C47 C48 120.1(2) . .
C35 C36 H36 119.9 . .
C37 C36 H36 119.9 . .
C37 C36 C35 120.2(2) . .
C40 C35 C36 119.5(2) . .
C40 C35 C34 119.1(2) . .
C36 C35 C34 121.4(2) . .
C49 C44 C43 119.9(2) . .
C49 C44 C45 119.6(2) . .
C45 C44 C43 120.5(2) . .
C47 C48 C49 120.3(2) . .
C47 C48 C50 119.9(2) . .
C49 C48 C50 119.8(2) . .
C22 C23 H23 119.5 . .
C22 C23 C18 121.0(2) . .
C18 C23 H23 119.5 . .
C42 C43 C44 178.3(3) . .
C44 C49 H49 120.1 . .
C48 C49 C44 119.8(2) . .
C48 C49 H49 120.1 . .
C3 C2 H2 120.2 . .
C1 C2 H2 120.2 . .
C1 C2 C3 119.6(2) . .
O7 C41 O8 125.9(2) . .
O7 C41 C39 117.13(19) . .
O8 C41 C39 117.0(2) . .
C39 C38 H38 120.0 . .
C37 C38 C39 120.0(2) . .
C37 C38 H38 120.0 . .
C13 C12 H12 120.0 . .
C13 C12 C11 119.9(2) . .
C11 C12 H12 120.0 . .
C2 C3 C7 119.5(2) . .
C4 C3 C2 120.3(2) . .
C4 C3 C7 120.3(2) . .
O2 C15 C13 116.6(2) . .
O3 C15 O2 125.8(2) . .
O3 C15 C13 117.60(19) . .
O9 C50 O10 126.5(2) . .
O9 C50 C48 116.69(19) . .
O10 C50 C48 116.8(2) . .
C30 C29 C33 120.1(2) . .
C28 C29 C30 119.5(2) . .
C28 C29 C33 120.4(2) . .
C22 C21 H21 120.1 . .
C20 C21 C22 119.9(2) . .
C20 C21 H21 120.1 . .
C4 C5 C16 120.1(2) . .
C6 C5 C16 119.8(2) . .
C6 C5 C4 120.1(2) . .
C8 C7 C3 178.9(3) . .
C43 C42 C31 179.2(3) . .
C11 C10 H10 120.0 . .
C11 C10 C9 120.1(2) . .
C9 C10 H10 120.0 . .
O6 C27 C28 115.0(2) . .
O6 C27 C32 124.3(2) . .
C28 C27 C32 120.7(2) . .
C16 C17 C18 173.7(3) . .
C23 C18 C17 118.3(2) . .
C19 C18 C23 119.1(2) . .
C19 C18 C17 122.5(2) . .
C12 C11 H11 119.8 . .
C10 C11 C12 120.3(2) . .
C10 C11 H11 119.8 . .
C17 C16 C5 178.3(3) . .
C29 C30 H30 120.0 . .
C31 C30 C29 120.0(2) . .
C31 C30 H30 120.0 . .
C44 C45 H45 120.0 . .
C46 C45 C44 120.1(2) . .
C46 C45 H45 120.0 . .
O1 C1 C2 124.7(2) . .
O1 C1 C6 115.1(2) . .
C6 C1 C2 120.2(2) . .
C29 C28 H28 119.8 . .
C27 C28 C29 120.4(2) . .
C27 C28 H28 119.8 . .
O5 C24 O4 125.9(2) . .
O5 C24 C22 117.8(2) . .
O4 C24 C22 116.3(2) . .
C30 C31 C42 120.0(2) . .
C30 C31 C32 120.4(2) . .
C32 C31 C42 119.6(2) . .
C47 C46 C45 120.2(2) . .
C47 C46 H46 119.9 . .
C45 C46 H46 119.9 . .
C34 C33 C29 177.5(3) . .
C2C O1C C5C 103.0(4) . .
C36 C37 C38 120.3(2) . .
C36 C37 H37 119.9 . .
C38 C37 H37 119.9 . .
C14 C9 C10 119.3(2) . .
C14 C9 C8 120.4(2) . .
C10 C9 C8 120.2(2) . .
C27 C32 C31 119.0(2) . .
C27 C32 H32 120.5 . .
C31 C32 H32 120.5 . .
C3 C4 C5 119.6(2) . .
C3 C4 H4 120.2 . .
C5 C4 H4 120.2 . .
C5 C6 C1 120.2(2) . .
C5 C6 H6 119.9 . .
C1 C6 H6 119.9 . .
C7 C8 C9 177.3(3) . .
C21 C20 H20 119.5 . .
C19 C20 C21 120.9(2) . .
C19 C20 H20 119.5 . .
O6 C51 H51A 110.4 . .
O6 C51 H51B 110.4 . .
O6 C51 C52 106.6(2) . .
H51A C51 H51B 108.6 . .
C52 C51 H51A 110.4 . .
C52 C51 H51B 110.4 . .
O1 C25 H25A 110.5 . .
O1 C25 H25B 110.5 . .
O1 C25 C26 106.2(2) . .
H25A C25 H25B 108.7 . .
C26 C25 H25A 110.5 . .
C26 C25 H25B 110.5 . .
C33 C34 C35 177.4(3) . .
C18 C19 H19 120.2 . .
C20 C19 C18 119.5(2) . .
C20 C19 H19 120.2 . .
O1B C5B H5BA 110.3 . .
O1B C5B H5BB 110.3 . .
O1B C5B C4B 106.9(2) . .
H5BA C5B H5BB 108.6 . .
C4B C5B H5BA 110.3 . .
C4B C5B H5BB 110.3 . .
C51 C52 H52A 109.5 . .
C51 C52 H52B 109.5 . .
C51 C52 H52C 109.5 . .
H52A C52 H52B 109.5 . .
H52A C52 H52C 109.5 . .
H52B C52 H52C 109.5 . .
C5D O1D C2D 109.9(3) . .
C5A O1A C2A 109.9(3) . .
O1T C2T H2TA 110.7 . .
O1T C2T H2TB 110.7 . .
O1T C2T C3T 105.0(2) . .
H2TA C2T H2TB 108.8 . .
C3T C2T H2TA 110.7 . .
C3T C2T H2TB 110.7 . .
O1T C5T H5TA 110.6 . .
O1T C5T H5TB 110.6 . .
O1T C5T C4T 105.8(2) . .
H5TA C5T H5TB 108.7 . .
C4T C5T H5TA 110.6 . .
C4T C5T H5TB 110.6 . .
C2T C3T H3TA 111.2 . .
C2T C3T H3TB 111.2 . .
C2T C3T C4T 102.7(2) . .
H3TA C3T H3TB 109.1 . .
C4T C3T H3TA 111.2 . .
C4T C3T H3TB 111.2 . .
C5T C4T C3T 103.6(2) . .
C5T C4T H4TA 111.0 . .
C5T C4T H4TB 111.0 . .
C3T C4T H4TA 111.0 . .
C3T C4T H4TB 111.0 . .
H4TA C4T H4TB 109.0 . .
C5B C4B H4BA 111.2 . .
C5B C4B H4BB 111.2 . .
C5B C4B C3B 102.7(2) . .
H4BA C4B H4BB 109.1 . .
C3B C4B H4BA 111.2 . .
C3B C4B H4BB 111.2 . .
O1C C5C H5CA 110.3 . .
O1C C5C H5CB 110.3 . .
O1C C5C C4C 107.2(3) . .
H5CA C5C H5CB 108.5 . .
C4C C5C H5CA 110.3 . .
C4C C5C H5CB 110.3 . .
H3DA C3D H3DB 109.2 . .
C4D C3D H3DA 111.3 . .
C4D C3D H3DB 111.3 . .
C4D C3D C2D 102.5(3) . .
C2D C3D H3DA 111.3 . .
C2D C3D H3DB 111.3 . .
C25 C26 H26A 109.5 . .
C25 C26 H26B 109.5 . .
C25 C26 H26C 109.5 . .
H26A C26 H26B 109.5 . .
H26A C26 H26C 109.5 . .
H26B C26 H26C 109.5 . .
O1B C2B H2BA 109.7 . .
O1B C2B H2BB 109.7 . .
O1B C2B C3B 109.6(3) . .
H2BA C2B H2BB 108.2 . .
C3B C2B H2BA 109.7 . .
C3B C2B H2BB 109.7 . .
C3D C4D H4DA 111.0 . .
C3D C4D H4DB 111.0 . .
H4DA C4D H4DB 109.0 . .
C5D C4D C3D 103.9(3) . .
C5D C4D H4DA 111.0 . .
C5D C4D H4DB 111.0 . .
C5C C4C H4CA 111.2 . .
C5C C4C H4CB 111.2 . .
C5C C4C C3C 102.7(3) . .
H4CA C4C H4CB 109.1 . .
C3C C4C H4CA 111.2 . .
C3C C4C H4CB 111.2 . .
H3AA C3A H3AB 108.7 . .
C2A C3A H3AA 110.5 . .
C2A C3A H3AB 110.5 . .
C4A C3A H3AA 110.5 . .
C4A C3A H3AB 110.5 . .
C4A C3A C2A 106.3(3) . .
H4EC C4E H4ED 108.1 . .
H4EA C4E H4EB 110.0 . .
C32E C4E H4EC 109.5 . .
C32E C4E H4ED 109.5 . .
C32E C4E C5E 110.9(6) . .
C5E C4E H4EC 109.5 . .
C5E C4E H4ED 109.5 . .
C5E C4E H4EA 112.5 . .
C5E C4E H4EB 112.5 . .
C5E C4E C31E 96.5(4) . .
C31E C4E H4EA 112.5 . .
C31E C4E H4EB 112.5 . .
C4B C3B H3BA 110.8 . .
C4B C3B H3BB 110.8 . .
C2B C3B C4B 104.7(3) . .
C2B C3B H3BA 110.8 . .
C2B C3B H3BB 110.8 . .
H3BA C3B H3BB 108.9 . .
O1A C2A C3A 106.5(3) . .
O1A C2A H2AA 110.4 . .
O1A C2A H2AB 110.4 . .
C3A C2A H2AA 110.4 . .
C3A C2A H2AB 110.4 . .
H2AA C2A H2AB 108.6 . .
O1C C2C H2CA 110.3 . .
O1C C2C H2CB 110.3 . .
O1C C2C C3C 107.1(3) . .
H2CA C2C H2CB 108.5 . .
C3C C2C H2CA 110.3 . .
C3C C2C H2CB 110.3 . .
C3A C4A H4AA 110.5 . .
C3A C4A H4AB 110.5 . .
C3A C4A C5A 106.2(3) . .
H4AA C4A H4AB 108.7 . .
C5A C4A H4AA 110.5 . .
C5A C4A H4AB 110.5 . .
O1D C2D C3D 104.5(3) . .
O1D C2D H2DA 110.9 . .
O1D C2D H2DB 110.9 . .
C3D C2D H2DA 110.9 . .
C3D C2D H2DB 110.9 . .
H2DA C2D H2DB 108.9 . .
O1A C5A C4A 107.5(3) . .
O1A C5A H5AA 110.2 . .
O1A C5A H5AB 110.2 . .
C4A C5A H5AA 110.2 . .
C4A C5A H5AB 110.2 . .
H5AA C5A H5AB 108.5 . .
C22E O1E C5E 96.9(9) . .
C21E O1E C5E 106.4(6) . .
O1E C22E H22A 106.9 . .
O1E C22E H22B 106.9 . .
O1E C22E C32E 121.7(15) . .
H22A C22E H22B 106.7 . .
C32E C22E H22A 106.9 . .
C32E C22E H22B 106.9 . .
C4C C3C C2C 103.3(3) . .
C4C C3C H3CA 111.1 . .
C4C C3C H3CB 111.1 . .
C2C C3C H3CA 111.1 . .
C2C C3C H3CB 111.1 . .
H3CA C3C H3CB 109.1 . .
O1D C5D C4D 108.1(4) . .
O1D C5D H5DA 110.1 . .
O1D C5D H5DB 110.1 . .
C4D C5D H5DA 110.1 . .
C4D C5D H5DB 110.1 . .
H5DA C5D H5DB 108.4 . .
C4E C32E C22E 94.2(12) . .
C4E C32E H32A 112.9 . .
C4E C32E H32B 112.9 . .
C22E C32E H32A 112.9 . .
C22E C32E H32B 112.9 . .
H32A C32E H32B 110.3 . .
C4E C5E H5EA 109.7 . .
C4E C5E H5EB 109.7 . .
O1E C5E C4E 109.7(4) . .
O1E C5E H5EA 109.7 . .
O1E C5E H5EB 109.7 . .
H5EA C5E H5EB 108.2 . .
O1E C21E H21A 110.2 . .
O1E C21E H21B 110.2 . .
O1E C21E C31E 107.7(7) . .
H21A C21E H21B 108.5 . .
C31E C21E H21A 110.2 . .
C31E C21E H21B 110.2 . .
C4E C31E H31A 110.1 . .
C4E C31E H31B 110.1 . .
C21E C31E C4E 107.9(5) . .
C21E C31E H31A 110.1 . .
C21E C31E H31B 110.1 . .
H31A C31E H31B 108.4 . .
loop_
_geom_bond_atom_site_label_1
_geom_bond_atom_site_label_2
_geom_bond_distance
_geom_bond_site_symmetry_2
Cu1 Cu2 2.6272(4) 3_666
Cu1 O7 1.9592(16) .
Cu1 O2 1.9674(16) .
Cu1 O5 1.9662(16) 3_666
Cu1 O1T 2.1578(16) .
Cu1 O10 1.9730(16) 3_666
Cu2 O8 1.9639(16) 3_666
Cu2 O9 1.9574(16) .
Cu2 O3 1.9758(15) 3_666
Cu2 O4 1.9851(16) .
Cu2 O1W 2.1333(17) .
O7 C41 1.258(3) .
O2 C15 1.271(3) .
O8 C41 1.269(3) .
O5 C24 1.255(3) .
O6 C27 1.364(3) .
O6 C51 1.429(3) .
O1T C2T 1.442(3) .
O1T C5T 1.434(3) .
O9 C50 1.262(3) .
O3 C15 1.258(3) .
O4 C24 1.270(3) .
O10 C50 1.263(3) .
O1 C1 1.363(3) .
O1 C25 1.444(3) .
O1W H1WA 0.8667 .
O1W H1WB 0.8656 .
O1B C5B 1.428(3) .
O1B C2B 1.414(4) .
C39 C40 1.389(3) .
C39 C41 1.494(3) .
C39 C38 1.402(3) .
C14 H14 0.9300 .
C14 C13 1.397(3) .
C14 C9 1.400(3) .
C13 C12 1.394(3) .
C13 C15 1.503(3) .
C22 C23 1.382(3) .
C22 C21 1.397(3) .
C22 C24 1.504(3) .
C40 H40 0.9300 .
C40 C35 1.393(3) .
C47 H47 0.9300 .
C47 C48 1.391(3) .
C47 C46 1.387(3) .
C36 H36 0.9300 .
C36 C35 1.404(3) .
C36 C37 1.382(3) .
C35 C34 1.440(3) .
C44 C43 1.443(3) .
C44 C49 1.396(3) .
C44 C45 1.402(3) .
C48 C49 1.395(3) .
C48 C50 1.500(3) .
C23 H23 0.9300 .
C23 C18 1.406(3) .
C43 C42 1.195(3) .
C49 H49 0.9300 .
C2 H2 0.9300 .
C2 C3 1.403(3) .
C2 C1 1.396(3) .
C38 H38 0.9300 .
C38 C37 1.386(3) .
C12 H12 0.9300 .
C12 C11 1.395(3) .
C3 C7 1.444(3) .
C3 C4 1.393(3) .
C29 C30 1.404(3) .
C29 C28 1.395(3) .
C29 C33 1.431(3) .
C21 H21 0.9300 .
C21 C20 1.392(3) .
C5 C16 1.437(3) .
C5 C4 1.404(3) .
C5 C6 1.390(3) .
C7 C8 1.198(3) .
C42 C31 1.438(3) .
C10 H10 0.9300 .
C10 C11 1.395(3) .
C10 C9 1.401(3) .
C27 C28 1.386(3) .
C27 C32 1.397(3) .
C17 C18 1.435(3) .
C17 C16 1.199(3) .
C18 C19 1.402(3) .
C11 H11 0.9300 .
C30 H30 0.9300 .
C30 C31 1.393(3) .
C45 H45 0.9300 .
C45 C46 1.391(3) .
C1 C6 1.391(3) .
C28 H28 0.9300 .
C31 C32 1.408(3) .
C46 H46 0.9300 .
C33 C34 1.197(4) .
O1C C5C 1.420(5) .
O1C C2C 1.411(5) .
C37 H37 0.9300 .
C9 C8 1.447(3) .
C32 H32 0.9300 .
C4 H4 0.9300 .
C6 H6 0.9300 .
C20 H20 0.9300 .
C20 C19 1.388(4) .
C51 H51A 0.9700 .
C51 H51B 0.9700 .
C51 C52 1.508(4) .
C25 H25A 0.9700 .
C25 H25B 0.9700 .
C25 C26 1.516(4) .
C19 H19 0.9300 .
C5B H5BA 0.9700 .
C5B H5BB 0.9700 .
C5B C4B 1.490(4) .
C52 H52A 0.9600 .
C52 H52B 0.9600 .
C52 H52C 0.9600 .
O1D C2D 1.434(5) .
O1D C5D 1.426(5) .
O1A C2A 1.433(5) .
O1A C5A 1.406(5) .
C2T H2TA 0.9700 .
C2T H2TB 0.9700 .
C2T C3T 1.486(4) .
C5T H5TA 0.9700 .
C5T H5TB 0.9700 .
C5T C4T 1.522(4) .
C3T H3TA 0.9700 .
C3T H3TB 0.9700 .
C3T C4T 1.529(4) .
C4T H4TA 0.9700 .
C4T H4TB 0.9700 .
C4B H4BA 0.9700 .
C4B H4BB 0.9700 .
C4B C3B 1.522(4) .
C5C H5CA 0.9700 .
C5C H5CB 0.9700 .
C5C C4C 1.511(5) .
C3D H3DA 0.9700 .
C3D H3DB 0.9700 .
C3D C4D 1.508(5) .
C3D C2D 1.541(6) .
C26 H26A 0.9600 .
C26 H26B 0.9600 .
C26 H26C 0.9600 .
C2B H2BA 0.9700 .
C2B H2BB 0.9700 .
C2B C3B 1.465(5) .
C4D H4DA 0.9700 .
C4D H4DB 0.9700 .
C4D C5D 1.491(6) .
C4C H4CA 0.9700 .
C4C H4CB 0.9700 .
C4C C3C 1.529(6) .
C3A H3AA 0.9700 .
C3A H3AB 0.9700 .
C3A C2A 1.468(5) .
C3A C4A 1.457(5) .
C4E H4EC 0.9700 .
C4E H4ED 0.9700 .
C4E H4EA 0.9700 .
C4E H4EB 0.9700 .
C4E C32E 1.441(10) .
C4E C5E 1.507(7) .
C4E C31E 1.560(7) .
C3B H3BA 0.9700 .
C3B H3BB 0.9700 .
C2A H2AA 0.9700 .
C2A H2AB 0.9700 .
C2C H2CA 0.9700 .
C2C H2CB 0.9700 .
C2C C3C 1.533(7) .
C4A H4AA 0.9700 .
C4A H4AB 0.9700 .
C4A C5A 1.482(5) .
C2D H2DA 0.9700 .
C2D H2DB 0.9700 .
C5A H5AA 0.9700 .
C5A H5AB 0.9700 .
O1E C22E 1.403(16) .
O1E C5E 1.464(7) .
O1E C21E 1.413(9) .
C22E H22A 0.9700 .
C22E H22B 0.9700 .
C22E C32E 1.489(12) .
C3C H3CA 0.9700 .
C3C H3CB 0.9700 .
C5D H5DA 0.9700 .
C5D H5DB 0.9700 .
C32E H32A 0.9700 .
C32E H32B 0.9700 .
C5E H5EA 0.9700 .
C5E H5EB 0.9700 .
C21E H21A 0.9700 .
C21E H21B 0.9700 .
C21E C31E 1.492(10) .
C31E H31A 0.9700 .
C31E H31B 0.9700 .
