#------------------------------------------------------------------------------
#$Date: 2019-05-08 01:32:12 +0300 (Wed, 08 May 2019) $
#$Revision: 214980 $
#$URL: file:///home/coder/svn-repositories/cod/cif/1/55/09/1550988.cif $
#------------------------------------------------------------------------------
#
# This file is available in the Crystallography Open Database (COD),
# http://www.crystallography.net/
#
# All data on this site have been placed in the public domain by the
# contributors.
#
data_1550988
loop_
_publ_author_name
'Kim, Hyehyun'
'Kim, Dongwook'
'Moon, Dohyun'
'Choi, Yong Nam'
'Baek, Seung Bin'
'Lah, Myoung Soo'
_publ_section_title
;
 Symmetry-guided syntheses of mixed-linker Zr metal-organic frameworks
 with precise linker locations
;
_journal_name_full               'Chemical Science'
_journal_paper_doi               10.1039/C9SC01301F
_journal_year                    2019
_chemical_formula_sum            'C64 H34 N2 O36 Zr6'
_chemical_formula_weight         1954.25
_space_group_crystal_system      tetragonal
_space_group_IT_number           139
_space_group_name_Hall           '-I 4 2'
_space_group_name_H-M_alt        'I 4/m m m'
_symmetry_space_group_name_Hall  '-I 4 2'
_symmetry_space_group_name_H-M   'I 4/m m m'
_atom_sites_solution_hydrogens   geom
_audit_creation_method           SHELXL-2014/7
_audit_update_record
;
2019-02-08 deposited with the CCDC.    2019-05-07 downloaded from the CCDC.
;
_cell_angle_alpha                90
_cell_angle_beta                 90
_cell_angle_gamma                90
_cell_formula_units_Z            2
_cell_length_a                   14.839(2)
_cell_length_b                   14.839(2)
_cell_length_c                   26.030(5)
_cell_measurement_reflns_used    4567
_cell_measurement_temperature    293(2)
_cell_measurement_theta_max      33.303
_cell_measurement_theta_min      1.911
_cell_volume                     5731.7(16)
_computing_structure_refinement  'SHELXL-2014/7 (Sheldrick, 2014)'
_diffrn_ambient_temperature      293(2)
_diffrn_measured_fraction_theta_full 0.998
_diffrn_measured_fraction_theta_max 0.934
_diffrn_measurement_device_type  'ADSC Q210 CCD area detector'
_diffrn_measurement_method       'omega scan'
_diffrn_radiation_type           synchrotron
_diffrn_radiation_wavelength     0.700
_diffrn_reflns_av_R_equivalents  0.0670
_diffrn_reflns_av_unetI/netI     0.0360
_diffrn_reflns_Laue_measured_fraction_full 0.998
_diffrn_reflns_Laue_measured_fraction_max 0.934
_diffrn_reflns_limit_h_max       21
_diffrn_reflns_limit_h_min       -21
_diffrn_reflns_limit_k_max       22
_diffrn_reflns_limit_k_min       -22
_diffrn_reflns_limit_l_max       37
_diffrn_reflns_limit_l_min       -37
_diffrn_reflns_number            31877
_diffrn_reflns_point_group_measured_fraction_full 0.998
_diffrn_reflns_point_group_measured_fraction_max 0.934
_diffrn_reflns_theta_full        24.835
_diffrn_reflns_theta_max         33.303
_diffrn_reflns_theta_min         1.911
_diffrn_source                   'PLSII 2D bending magnet'
_exptl_absorpt_coefficient_mu    0.555
_exptl_absorpt_correction_T_max  0.978
_exptl_absorpt_correction_T_min  0.975
_exptl_absorpt_correction_type   multi-scan
_exptl_absorpt_process_details   HKL3000
_exptl_crystal_colour            colorless
_exptl_crystal_density_diffrn    1.132
_exptl_crystal_description       block
_exptl_crystal_F_000             1920
_exptl_crystal_size_max          0.045
_exptl_crystal_size_mid          0.045
_exptl_crystal_size_min          0.040
_refine_diff_density_max         1.222
_refine_diff_density_min         -1.972
_refine_diff_density_rms         0.144
_refine_ls_extinction_coef       0.019(2)
_refine_ls_extinction_expression Fc^*^=kFc[1+0.001xFc^2^\l^3^/sin(2\q)]^-1/4^
_refine_ls_extinction_method     'SHELXL-2014/7 (Sheldrick 2014'
_refine_ls_goodness_of_fit_ref   1.063
_refine_ls_hydrogen_treatment    constr
_refine_ls_matrix_type           full
_refine_ls_number_parameters     104
_refine_ls_number_reflns         3064
_refine_ls_number_restraints     40
_refine_ls_restrained_S_all      1.062
_refine_ls_R_factor_all          0.1242
_refine_ls_R_factor_gt           0.0868
_refine_ls_shift/su_max          0.000
_refine_ls_shift/su_mean         0.000
_refine_ls_structure_factor_coef Fsqd
_refine_ls_weighting_details
'w=1/[\s^2^(Fo^2^)+(0.2000P)^2^] where P=(Fo^2^+2Fc^2^)/3'
_refine_ls_weighting_scheme      calc
_refine_ls_wR_factor_gt          0.2613
_refine_ls_wR_factor_ref         0.3003
_reflns_Friedel_coverage         0.000
_reflns_number_gt                1722
_reflns_number_total             3064
_reflns_threshold_expression     'I > 2\s(I)'
_cod_data_source_file            c9sc01301f2.cif
_cod_data_source_block           p17_035ttg_sq
_cod_depositor_comments
;
The following automatic conversions were performed:

'_exptl_absorpt_correction_type' value 'Multi-scan' changed to
'multi-scan' according to
/home/data/users/saulius/crontab/automatic-downloads/rss-feeds/RSC/lib/dictionaries/cif_core.dic
dictionary named 'cif_core.dic' version 2.4.2 from 2011-04-26.

Automatic conversion script
Id: cif_fix_values 4973 2017-02-22 13:04:09Z antanas 
;
_cod_original_cell_volume        5732(2)
_cod_database_code               1550988
_shelx_shelxl_version_number     2014/7
_shelx_space_group_comment
;
The symmetry employed for this shelxl refinement is uniquely defined
by the following loop, which should always be used as a source of
symmetry information in preference to the above space-group names.
They are only intended as comments.
;
_shelx_estimated_absorpt_t_min   0.975
_shelx_estimated_absorpt_t_max   0.978
_shelx_res_file
;

    p17_035ttg_sq.res created by SHELXL-2014/7


TITL P17_035Ttg in I4/mmm [Zr6O4(OH)4(NDC)4(NBDC)2]
CELL 0.70000  14.8395  14.8395  26.0299  90.000  90.000  90.000
ZERR    2.00   0.0021   0.0021   0.0052   0.000   0.000   0.000
LATT 2
SYMM -X, -Y, Z
SYMM -Y, X, Z
SYMM Y, -X, Z
SYMM -X, Y, -Z
SYMM X, -Y, -Z
SYMM Y, X, -Z
SYMM -Y, -X, -Z
SFAC C  H  N  O  Zr
DISP C          0.0030         0.0016          10.98
DISP N          0.0059         0.0032          18.71
DISP O          0.0105         0.0059          30.82
DISP Zr        -3.5084         0.5477        2341.16

UNIT 128 68 4 72 12
L.S. 20
ACTA
BOND
FMAP 2
PLAN 30
flat c9 n1 o4 o4_$5
dang 2.0 o4 o4_$5
dfix 1.45 c9 n1
dfix 1.30 n1 o4
isor o4
simu c9 n1 o4
delu c9 n1 o4

simu c6 c7 c8
delu c6 c7 c8

simu c7 c8 c9
delu c7 c8 c9

eqiv  $5   x, y, -z
FREE Zr1  Zr2
size 0.045 0.045 0.040
ABIN
WGHT    0.200000
EXTI    0.018926
FVAR       0.15111
MOLE 1

ZR1   5    0.500000    0.500000    0.094578    10.12500    0.06092    0.06092 =
         0.02576    0.00000    0.00000    0.00000
ZR2   5    0.381392    0.381392    0.000000    10.25000    0.07850    0.07850 =
         0.03299    0.00000    0.00000   -0.02044
O1M   4    0.363613    0.500000    0.052207    10.25000    0.06101    0.09158 =
         0.04565    0.00000    0.00670    0.00000
O12M  4    0.399223    0.500000    0.039604    10.25000    0.05811    0.07286 =
         0.03122    0.00000   -0.00258    0.00000
O1    4    0.332106    0.332106    0.076507    10.50000    0.13590    0.13590 =
         0.05122    0.00946    0.00946   -0.05384
O2    4    0.411460    0.411460    0.137199    10.50000    0.09575    0.09575 =
         0.05366    0.00805    0.00805   -0.02033
O3    4    0.410727    0.234462    0.000000    10.50000    0.24296    0.07148 =
         0.07546    0.00000    0.00000   -0.03204
C1    1    0.352021    0.352021    0.122392    10.50000    0.12298    0.12298 =
         0.04342    0.00505    0.00505   -0.04411
C2    1    0.305262    0.305262    0.164400    10.50000    0.13640    0.13640 =
         0.04384    0.00787    0.00787   -0.05881
C3    1    0.326312    0.326312    0.213713    10.50000    0.15880    0.15880 =
         0.05405    0.00582    0.00582   -0.08562
AFIX  43
H3    2    0.369811    0.369811    0.220536    10.50000   -1.20000
AFIX   0
C4    1    0.241732    0.241732    0.153620    10.50000    0.21046    0.21046 =
         0.04705    0.01610    0.01610   -0.10226
AFIX  43
H4    2    0.228364    0.228364    0.119556    10.50000   -1.20000
AFIX   0
C5    1    0.196652    0.196652    0.192595    10.50000    0.26960    0.26960 =
         0.05275    0.01051    0.01051   -0.19104
AFIX  43
H5    2    0.153362    0.153362    0.184957    10.50000   -1.20000
AFIX   0

C6    1    0.218181    0.218181    0.245036    10.50000    0.17318    0.17318 =
         0.04571    0.01241    0.01241   -0.08798
C7    1    0.500000    0.191984    0.000000    10.25000    0.13589    0.11199 =
         0.22035    0.00000    0.00000    0.00000
C8    1    0.500000    0.094396    0.000000    10.25000    0.14394    0.11233 =
         0.18550    0.00000    0.00000    0.00000
C9    1    0.420200    0.046114    0.000000    10.50000    0.18283    0.12952 =
         0.29167    0.00000    0.00000   -0.02974
N1    3    0.330121    0.085979    0.000000    10.12500    0.24180    0.09105 =
         0.28664    0.00000    0.00000    0.03376
O4    4    0.279741    0.108493    0.038698    10.25000    0.37540    0.15739 =
         0.52217    0.01074    0.22414    0.01902
HKLF 4

REM  P17_035Ttg in I4/mmm [Zr6O4(OH)4(NDC)4(NBDC)2]
REM R1 =  0.0868 for    1722 Fo > 4sig(Fo)  and  0.1242 for all    3064 data
REM    104 parameters refined using     40 restraints

END

WGHT      0.2000      0.0000

REM Highest difference peak  1.222,  deepest hole -1.972,  1-sigma level  0.144
Q1    1   0.4328  0.3484  0.0000  10.50000  0.05    1.05
Q2    1   0.2982  0.2982  0.0599  10.50000  0.05    0.93
Q3    1   0.5000  0.5000  0.0479  10.12500  0.05    0.80
Q4    1   0.2613  0.5000  0.0955  10.50000  0.05    0.77
Q5    1   0.1786  0.1786  0.0000  10.25000  0.05    0.75
Q6    1   0.5000  0.5000  0.1415  10.12500  0.05    0.65
Q7    1   0.4298  0.5000  0.0736  10.50000  0.05    0.64
Q8    1   0.3417  0.2544  0.0000  10.50000  0.05    0.62
Q9    1   0.4188  0.4405  0.0172  11.00000  0.05    0.57
Q10   1   0.4248  0.4248  0.1676  10.50000  0.05    0.56
Q11   1   0.4791  0.4333  0.1157  11.00000  0.05    0.56
Q12   1   0.3849  0.3849  0.0464  10.50000  0.05    0.52
Q13   1   0.2824  0.2824  0.0890  10.50000  0.05    0.48
Q14   1   0.3205  0.5000  0.0708  10.50000  0.05    0.47
Q15   1   0.4731  0.4731  0.0000  10.25000  0.05    0.46
Q16   1   0.4442  0.5000  0.0000  10.25000  0.05    0.44
Q17   1   0.3975  0.3975  0.1849  10.50000  0.05    0.44
Q18   1   0.3814  0.5153  0.0550  11.00000  0.05    0.43
Q19   1   0.3452  0.1039  0.0692  11.00000  0.05    0.42
Q20   1   0.4110  0.4785  0.0469  11.00000  0.05    0.41
Q21   1   0.0000  0.0000  0.1455  10.12500  0.05    0.38
Q22   1   0.3462  0.0000  0.0000  10.25000  0.05    0.38
Q23   1   0.4677  0.4677  0.1666  10.50000  0.05    0.38
Q24   1   0.4736  0.4736  0.0252  10.50000  0.05    0.38
Q25   1   0.5000  0.1391  0.0584  10.50000  0.05    0.37
Q26   1   0.3873  0.0867  0.0590  11.00000  0.05    0.37
Q27   1   0.5000  0.3895  0.1359  10.50000  0.05    0.34
Q28   1   0.3377  0.1898  0.0000  10.50000  0.05    0.33
Q29   1   0.3537  0.3211  0.0217  11.00000  0.05    0.33
Q30   1   0.5000  0.4381  0.1593  10.50000  0.05    0.32
;
_shelx_res_checksum              23245
_shelx_fab_file
;
    0    0    4   -147.02      0.00
    0    0    6    -49.21      0.00
    0    0    8     34.24      0.00
    0    0   10     35.24      0.00
    0    0   12     47.36      0.00
    0    0   14      4.51      0.00
    0    0   16    -18.24      0.00
    0    0   18    -23.90      0.00
    0    0   20     -4.06      0.00
    0    0   22     -2.95      0.00
    0    0   24      9.54      0.00
    0    0   26      9.83      0.00
    0    0   28      6.57      0.00
    0    0   30     -2.75      0.00
    0    0   32     -5.95      0.00
    0    0   34     -5.28      0.00
    0    0   36     -4.96      0.00
    0    1   35      1.06      0.00
    0    1   33     -1.07      0.00
    0    1   31     -0.72      0.00
    0    1   29     -0.84      0.00
    0    1   27      0.35      0.00
    0    1   25     -0.89      0.00
    0    1   23      0.03      0.00
    0    1   21     -0.25      0.00
    0    1   19      1.01      0.00
    0    1   17      3.31      0.00
    0    1   15     -0.63      0.00
    0    1   13      3.03      0.00
    0    1   11     -3.67      0.00
    0    1    9      0.88      0.00
    0    1    7     -4.80      0.00
    0    1    5      4.57      0.00
    0    1    3      6.36      0.00
    0    2   34     -2.14      0.00
    0    2   32     -2.58      0.00
    0    2   30      0.71      0.00
    0    2   28      2.61      0.00
    0    2   26      3.98      0.00
    0    2   24      2.40      0.00
    0    2   22     -2.11      0.00
    0    2   20     -2.04      0.00
    0    2   18     -8.11      0.00
    0    2   16     -3.95      0.00
    0    2   14      5.70      0.00
    0    2   12     13.65      0.00
    0    2   10      3.76      0.00
    0    2    8      0.51      0.00
    0    2    6     -8.43      0.00
    0    2    4    -18.98      0.00
    0    2    2    -77.25      0.00
    0    2    0    189.09      0.00
    0    2   36     -3.65      0.00
    0    3   33      3.85      0.00
    0    3   31      0.51      0.00
    0    3   29     -3.21      0.00
    0    3   27     -0.97      0.00
    0    3   25     -4.62      0.00
    0    3   23      0.75      0.00
    0    3   21      3.11      0.00
    0    3   19      2.92      0.00
    0    3   17      6.30      0.00
    0    3   15     -0.10      0.00
    0    3   13     -4.24      0.00
    0    3   11    -23.85      0.00
    0    3    9     -3.28      0.00
    0    3    7     11.08      0.00
    0    3    5     34.02      0.00
    0    3    3     19.04      0.00
    0    3    1    -49.50      0.00
    0    3   35      2.53      0.00
    0    4   32     -0.84      0.00
    0    4   30      0.81      0.00
    0    4   28     -2.15      0.00
    0    4   26     -3.13      0.00
    0    4   24     -1.27      0.00
    0    4   22      4.02      0.00
    0    4   20      5.96      0.00
    0    4   18     -0.34      0.00
    0    4   16     -2.63      0.00
    0    4   14     -3.51      0.00
    0    4   12    -14.13      0.00
    0    4   10     -1.39      0.00
    0    4    8     20.52      0.00
    0    4    6      9.86      0.00
    0    4    4     -4.06      0.00
    0    4    2    -36.71      0.00
    0    4    0     31.43      0.00
    0    4   34      3.00      0.00
    0    4   36      0.76      0.00
    0    5   31      0.06      0.00
    0    5   29     -0.67      0.00
    0    5   27      0.08      0.00
    0    5   25     -0.46      0.00
    0    5   23      1.86      0.00
    0    5   21     -0.72      0.00
    0    5   19     -2.52      0.00
    0    5   17     -1.32      0.00
    0    5   15     -0.53      0.00
    0    5   13     -0.53      0.00
    0    5   11      5.03      0.00
    0    5    9      6.70      0.00
    0    5    7     -3.07      0.00
    0    5    5     -9.30      0.00
    0    5    3     -8.02      0.00
    0    5    1      7.49      0.00
    0    5   33      2.69      0.00
    0    5   35      0.04      0.00
    0    6   32     -3.86      0.00
    0    6   30      0.67      0.00
    0    6   28      0.04      0.00
    0    6   26      1.91      0.00
    0    6   24      1.71      0.00
    0    6   22     -3.94      0.00
    0    6   20      3.31      0.00
    0    6   18     -1.49      0.00
    0    6   16     -0.53      0.00
    0    6   14     -3.74      0.00
    0    6   12     -1.28      0.00
    0    6   10     11.59      0.00
    0    6    8      8.94      0.00
    0    6    6    -16.02      0.00
    0    6    4     -1.73      0.00
    0    6    2     -6.35      0.00
    0    6    0     24.60      0.00
    0    6   34      0.27      0.00
    0    6   36      4.15      0.00
    0    7   31      3.43      0.00
    0    7   29      0.26      0.00
    0    7   27      3.78      0.00
    0    7   25     -3.03      0.00
    0    7   23     -2.50      0.00
    0    7   21     -2.81      0.00
    0    7   19      1.24      0.00
    0    7   17      1.85      0.00
    0    7   15      2.46      0.00
    0    7   13      3.68      0.00
    0    7   11      2.26      0.00
    0    7    9     -5.46      0.00
    0    7    7     -1.27      0.00
    0    7    5     -1.97      0.00
    0    7    3      1.26      0.00
    0    7    1      7.43      0.00
    0    7   33     -0.37      0.00
    0    7   35     -1.53      0.00
    0    8   32     -3.25      0.00
    0    8   30     -1.41      0.00
    0    8   28      0.28      0.00
    0    8   26      1.78      0.00
    0    8   24      2.88      0.00
    0    8   22     -1.36      0.00
    0    8   20     -1.01      0.00
    0    8   18      0.15      0.00
    0    8   16      1.15      0.00
    0    8   14      0.73      0.00
    0    8   12     -0.97      0.00
    0    8   10      0.93      0.00
    0    8    8     -0.46      0.00
    0    8    6     -1.07      0.00
    0    8    4      0.92      0.00
    0    8    2      5.93      0.00
    0    8    0     -3.02      0.00
    0    8   34      1.48      0.00
    0    8   36      2.44      0.00
    0    9   31      1.82      0.00
    0    9   29     -2.90      0.00
    0    9   27      1.37      0.00
    0    9   25      1.17      0.00
    0    9   23      0.21      0.00
    0    9   21      0.50      0.00
    0    9   19      1.62      0.00
    0    9   17     -1.37      0.00
    0    9   15     -1.85      0.00
    0    9   13      2.12      0.00
    0    9   11     -1.26      0.00
    0    9    9     -0.04      0.00
    0    9    7      2.34      0.00
    0    9    5     -3.75      0.00
    0    9    3     -2.05      0.00
    0    9    1      4.80      0.00
    0    9   33     -0.71      0.00
    0    9   35     -2.12      0.00
    0   10   32     -2.59      0.00
    0   10   30     -0.01      0.00
    0   10   28      2.09      0.00
    0   10   26      1.23      0.00
    0   10   24      0.03      0.00
    0   10   22     -0.56      0.00
    0   10   20     -0.39      0.00
    0   10   18     -0.24      0.00
    0   10   16     -1.29      0.00
    0   10   14      2.95      0.00
    0   10   12      0.26      0.00
    0   10   10     -0.70      0.00
    0   10    8     -3.12      0.00
    0   10    6      0.07      0.00
    0   10    4      0.41      0.00
    0   10    2      1.55      0.00
    0   10    0     -2.50      0.00
    0   10   34     -0.35      0.00
    0   11   31     -4.49      0.00
    0   11   29      6.06      0.00
    0   11   27     -0.28      0.00
    0   11   25     -2.27      0.00
    0   11   23      1.63      0.00
    0   11   21     -0.14      0.00
    0   11   19      0.34      0.00
    0   11   17     -2.97      0.00
    0   11   15      0.33      0.00
    0   11   13      4.84      0.00
    0   11   11     -2.53      0.00
    0   11    9     -0.23      0.00
    0   11    7      0.55      0.00
    0   11    5     -0.93      0.00
    0   11    3     -2.49      0.00
    0   11    1      1.99      0.00
    0   11   33      0.26      0.00
    0   12   30     -0.56      0.00
    0   12   28      3.98      0.00
    0   12   26     -1.95      0.00
    0   12   24     -0.39      0.00
    0   12   22     -3.28      0.00
    0   12   20      0.28      0.00
    0   12   18      1.62      0.00
    0   12   16      2.53      0.00
    0   12   14      1.35      0.00
    0   12   12     -1.09      0.00
    0   12   10     -3.03      0.00
    0   12    8      0.93      0.00
    0   12    6      1.96      0.00
    0   12    4      0.20      0.00
    0   12    2     -0.29      0.00
    0   12    0     -0.58      0.00
    0   12   32     -1.43      0.00
    0   13   29      0.28      0.00
    0   13   27      1.09      0.00
    0   13   25      0.01      0.00
    0   13   23      0.06      0.00
    0   13   21      0.11      0.00
    0   13   19     -1.84      0.00
    0   13   17      0.72      0.00
    0   13   15      1.76      0.00
    0   13   13     -0.01      0.00
    0   13   11     -0.61      0.00
    0   13    9      0.20      0.00
    0   13    7      1.46      0.00
    0   13    5      0.89      0.00
    0   13    3     -3.28      0.00
    0   13    1      2.47      0.00
    0   13   31     -2.91      0.00
    0   13   33     -0.12      0.00
    0   14   28      4.59      0.00
    0   14   26      0.89      0.00
    0   14   24      1.28      0.00
    0   14   22     -1.33      0.00
    0   14   20     -1.48      0.00
    0   14   18      0.58      0.00
    0   14   16     -0.25      0.00
    0   14   14      1.40      0.00
    0   14   12      0.45      0.00
    0   14   10     -1.20      0.00
    0   14    8     -0.54      0.00
    0   14    6      1.55      0.00
    0   14    4      0.04      0.00
    0   14    2     -1.70      0.00
    0   14    0      3.51      0.00
    0   14   30     -9.88      0.00
    0   15   27      0.41      0.00
    0   15   25      0.30      0.00
    0   15   23      0.23      0.00
    0   15   21      0.19      0.00
    0   15   19     -3.09      0.00
    0   15   17      2.90      0.00
    0   15   15     -1.95      0.00
    0   15   13      0.48      0.00
    0   15   11      0.55      0.00
    0   15    9     -2.29      0.00
    0   15    7      2.87      0.00
    0   15    5     -1.27      0.00
    0   15    3     -0.24      0.00
    0   15    1      0.64      0.00
    0   16   26     -4.82      0.00
    0   16   24      5.22      0.00
    0   16   22     -1.48      0.00
    0   16   20     -1.90      0.00
    0   16   18      0.11      0.00
    0   16   16     -1.89      0.00
    0   16   14      1.96      0.00
    0   16   12      0.23      0.00
    0   16   10     -0.63      0.00
    0   16    8     -1.81      0.00
    0   16    6      2.43      0.00
    0   16    4      0.51      0.00
    0   16    2     -1.98      0.00
    0   16    0      2.81      0.00
    0   17   23      1.87      0.00
    0   17   21     -2.55      0.00
    0   17   19      1.31      0.00
    0   17   17      0.00      0.00
    0   17   15     -2.36      0.00
    0   17   13      0.65      0.00
    0   17   11      0.09      0.00
    0   17    9      1.60      0.00
    0   17    7      0.65      0.00
    0   17    5     -1.17      0.00
    0   17    3      1.35      0.00
    0   17    1      0.14      0.00
    0   18   22     -2.25      0.00
    0   18   20     -0.86      0.00
    0   18   18      1.62      0.00
    0   18   16     -0.41      0.00
    0   18   14      2.54      0.00
    0   18   12     -2.68      0.00
    0   18   10     -0.28      0.00
    0   18    8      3.60      0.00
    0   18    6     -1.97      0.00
    0   18    4      2.57      0.00
    0   18    2     -1.27      0.00
    0   18    0      1.77      0.00
    0   19   21      3.17      0.00
    0   19   19    -11.02      0.00
    0   19   17      3.83      0.00
    0   19   15      1.45      0.00
    0   19   13      3.53      0.00
    0   19   11     -0.94      0.00
    0   19    9     -0.43      0.00
    0   19    7     -0.17      0.00
    0   19    5     -1.00      0.00
    0   19    1      2.17      0.00
    0   19    3     -0.06      0.00
    0   20   18     -0.06      0.00
    0   20   16      0.29      0.00
    0   20   14      3.92      0.00
    0   20   12     -1.63      0.00
    0   20   10      0.87      0.00
    0   20    8     -3.17      0.00
    0   20    6      2.12      0.00
    0   20    4     -2.46      0.00
    0   20    2      0.84      0.00
    0   20    0      2.61      0.00
    0   21   13      0.96      0.00
    0   21   11      0.21      0.00
    0   21    9     -2.36      0.00
    0   21    7     -3.71      0.00
    0   21    5      3.20      0.00
    0   21    3      2.07      0.00
    0   21    1     -2.21      0.00
    1   21    0     -3.11      0.00
    1   21    2     -1.41      0.00
    1   21    8      7.70      0.00
    1   21   10    -10.92      0.00
    1   21   12      0.37      0.00
    1   21   14      0.98      0.00
    1   20    9      1.88      0.00
    1   20    7      6.18      0.00
    1   20    5     -0.93      0.00
    1   20    1     -1.78      0.00
    1   20    3     -0.03      0.00
    1   20   11     -4.69      0.00
    1   20   13     -2.76      0.00
    1   20   15     -1.59      0.00
    1   20   17      3.26      0.00
    1   20   19      7.20      0.00
    1   19   14     -3.01      0.00
    1   19   12      0.61      0.00
    1   19   10     -3.61      0.00
    1   19    4      0.19      0.00
    1   19    2      0.80      0.00
    1   19    0     -2.40      0.00
    1   19    6      0.52      0.00
    1   19    8      4.53      0.00
    1   19   16      3.53      0.00
    1   19   18      1.50      0.00
    1   19   20     -0.22      0.00
    1   19   22     -0.46      0.00
    1   18   19      1.10      0.00
    1   18   17      0.98      0.00
    1   18   15      0.55      0.00
    1   18   13     -1.20      0.00
    1   18   11     -0.52      0.00
    1   18    9     -0.95      0.00
    1   18    7      3.54      0.00
    1   18    5      0.66      0.00
    1   18    3      0.32      0.00
    1   18    1     -0.85      0.00
    1   18   21     -0.48      0.00
    1   18   23     -1.81      0.00
    1   17   22      2.19      0.00
    1   17   20     -0.21      0.00
    1   17   18     -0.16      0.00
    1   17   16     -2.97      0.00
    1   17   14      0.07      0.00
    1   17   12      1.73      0.00
    1   17   10     -0.43      0.00
    1   17    8      1.02      0.00
    1   17    6     -0.29      0.00
    1   17    4      1.81      0.00
    1   17    2     -1.20      0.00
    1   17    0      0.47      0.00
    1   17   24     -1.96      0.00
    1   16   25     -2.89      0.00
    1   16   23      1.95      0.00
    1   16   21      0.98      0.00
    1   16   19     -0.11      0.00
    1   16   17     -4.11      0.00
    1   16   15      1.99      0.00
    1   16   13     -0.99      0.00
    1   16   11      0.21      0.00
    1   16    9      0.81      0.00
    1   16    7     -1.24      0.00
    1   16    5      2.38      0.00
    1   16    3     -0.05      0.00
    1   16    1     -1.04      0.00
    1   15   28     -1.77      0.00
    1   15   26      3.05      0.00
    1   15   24     -3.40      0.00
    1   15   22     -1.53      0.00
    1   15   20      2.51      0.00
    1   15   18     -0.54      0.00
    1   15   16      1.21      0.00
    1   15   14     -1.42      0.00
    1   15   12     -1.37      0.00
    1   15   10     -0.09      0.00
    1   15    8      1.07      0.00
    1   15    6      0.08      0.00
    1   15    4      1.28      0.00
    1   15    2     -0.88      0.00
    1   15    0     -0.69      0.00
    1   14   31     -0.88      0.00
    1   14   29      3.00      0.00
    1   14   27     -1.11      0.00
    1   14   25     -0.65      0.00
    1   14   23     -0.04      0.00
    1   14   21     -2.48      0.00
    1   14   19      1.84      0.00
    1   14   17     -0.01      0.00
    1   14   15      1.09      0.00
    1   14   13      0.84      0.00
    1   14   11     -1.22      0.00
    1   14    9      0.09      0.00
    1   14    7     -1.65      0.00
    1   14    5      1.10      0.00
    1   14    3      1.37      0.00
    1   14    1     -0.43      0.00
    1   13   32     -2.06      0.00
    1   13   30      2.90      0.00
    1   13   28      0.26      0.00
    1   13   26     -1.40      0.00
    1   13   24      1.21      0.00
    1   13   22     -1.53      0.00
    1   13   20     -0.95      0.00
    1   13   18      0.84      0.00
    1   13   16     -0.21      0.00
    1   13   14      1.07      0.00
    1   13   12      1.75      0.00
    1   13   10      0.57      0.00
    1   13    8     -1.19      0.00
    1   13    6     -1.90      0.00
    1   13    4      0.78      0.00
    1   13    2      0.50      0.00
    1   13    0      2.27      0.00
    1   12   33      0.05      0.00
    1   12   31      1.93      0.00
    1   12   29     -2.36      0.00
    1   12   27     -0.47      0.00
    1   12   25      1.14      0.00
    1   12   23     -2.03      0.00
    1   12   21      0.58      0.00
    1   12   19      1.08      0.00
    1   12   17      0.60      0.00
    1   12   15     -1.36      0.00
    1   12   13      0.18      0.00
    1   12   11      2.57      0.00
    1   12    9      0.52      0.00
    1   12    7     -1.81      0.00
    1   12    5     -1.43      0.00
    1   12    3      0.72      0.00
    1   12    1      1.41      0.00
    1   11   32      0.05      0.00
    1   11   30     -1.63      0.00
    1   11   28     -1.83      0.00
    1   11   26      0.45      0.00
    1   11   24      0.43      0.00
    1   11   22      1.85      0.00
    1   11   20      0.79      0.00
    1   11   18     -0.46      0.00
    1   11   16     -1.14      0.00
    1   11   14     -2.20      0.00
    1   11   12      1.55      0.00
    1   11   10      1.76      0.00
    1   11    8      1.10      0.00
    1   11    6     -1.74      0.00
    1   11    4     -1.58      0.00
    1   11    2      1.42      0.00
    1   11    0     -0.57      0.00
    1   10   35      2.32      0.00
    1   10   33     -0.78      0.00
    1   10   31     -0.67      0.00
    1   10   29     -0.07      0.00
    1   10   27     -0.09      0.00
    1   10   25      0.27      0.00
    1   10   23      0.08      0.00
    1   10   21     -0.08      0.00
    1   10   19      0.40      0.00
    1   10   17      1.95      0.00
    1   10   15      0.34      0.00
    1   10   13     -2.33      0.00
    1   10   11     -1.09      0.00
    1   10    9      0.06      0.00
    1   10    7     -0.71      0.00
    1   10    5      2.86      0.00
    1   10    3      0.53      0.00
    1   10    1     -2.40      0.00
    1    9   34     -3.69      0.00
    1    9   32      0.54      0.00
    1    9   30      1.57      0.00
    1    9   28     -0.18      0.00
    1    9   26      0.05      0.00
    1    9   24     -0.86      0.00
    1    9   22      1.02      0.00
    1    9   20      1.04      0.00
    1    9   18      0.60      0.00
    1    9   16     -0.32      0.00
    1    9   14     -0.14      0.00
    1    9   12     -0.58      0.00
    1    9   10     -0.83      0.00
    1    9    8     -0.77      0.00
    1    9    6      0.31      0.00
    1    9    4      1.87      0.00
    1    9    2      0.59      0.00
    1    9    0     -2.05      0.00
    1    8   35      2.56      0.00
    1    8   33     -1.42      0.00
    1    8   31     -1.83      0.00
    1    8   29      1.72      0.00
    1    8   27     -1.32      0.00
    1    8   25      0.91      0.00
    1    8   23      1.38      0.00
    1    8   21      0.94      0.00
    1    8   19      0.76      0.00
    1    8   17     -1.10      0.00
    1    8   15     -1.37      0.00
    1    8   13     -0.59      0.00
    1    8   11      1.12      0.00
    1    8    9      3.38      0.00
    1    8    7     -3.14      0.00
    1    8    5     -0.82      0.00
    1    8    3      3.16      0.00
    1    8    1      0.74      0.00
    1    7   36     -5.44      0.00
    1    7   34      2.49      0.00
    1    7   32      3.24      0.00
    1    7   30      0.47      0.00
    1    7   28     -2.26      0.00
    1    7   26     -0.64      0.00
    1    7   24     -1.52      0.00
    1    7   22      2.66      0.00
    1    7   20      0.82      0.00
    1    7   18      0.09      0.00
    1    7   16      0.17      0.00
    1    7   14      0.11      0.00
    1    7   12     -1.91      0.00
    1    7   10     -1.03      0.00
    1    7    8      4.26      0.00
    1    7    6      3.21      0.00
    1    7    4     -4.43      0.00
    1    7    2     -0.91      0.00
    1    7    0      9.03      0.00
    1    6   35      1.68      0.00
    1    6   33      3.59      0.00
    1    6   31     -0.82      0.00
    1    6   29     -1.47      0.00
    1    6   27     -1.39      0.00
    1    6   25      0.17      0.00
    1    6   23      0.67      0.00
    1    6   21      1.33      0.00
    1    6   19      1.11      0.00
    1    6   17      0.32      0.00
    1    6   15     -0.83      0.00
    1    6   13     -1.36      0.00
    1    6   11     -6.91      0.00
    1    6    9      4.60      0.00
    1    6    7      6.09      0.00
    1    6    5      6.40      0.00
    1    6    3     -1.75      0.00
    1    6    1     -5.67      0.00
    1    5   36     -1.76      0.00
    1    5   34     -0.99      0.00
    1    5   32      1.63      0.00
    1    5   30     -0.02      0.00
    1    5   28      2.54      0.00
    1    5   26      1.94      0.00
    1    5   24     -1.72      0.00
    1    5   22     -0.94      0.00
    1    5   20     -4.33      0.00
    1    5   18     -2.11      0.00
    1    5   16      1.68      0.00
    1    5   14      5.52      0.00
    1    5   12      5.82      0.00
    1    5   10     -5.21      0.00
    1    5    8    -10.78      0.00
    1    5    6      4.41      0.00
    1    5    4     12.24      0.00
    1    5    2     -5.79      0.00
    1    5    0    -10.81      0.00
    1    4   35     -0.30      0.00
    1    4   33     -2.52      0.00
    1    4   31      1.16      0.00
    1    4   29      3.00      0.00
    1    4   27      1.39      0.00
    1    4   25      0.76      0.00
    1    4   23     -1.99      0.00
    1    4   21     -2.68      0.00
    1    4   19      0.47      0.00
    1    4   17     -1.79      0.00
    1    4   15     -2.60      0.00
    1    4   13      3.24      0.00
    1    4   11      8.05      0.00
    1    4    9     -3.47      0.00
    1    4    7     -2.15      0.00
    1    4    5     -5.66      0.00
    1    4    3     -4.09      0.00
    1    4    1      2.39      0.00
    1    3   36     -0.13      0.00
    1    3   34      1.36      0.00
    1    3   32     -0.06      0.00
    1    3   30     -0.73      0.00
    1    3   28      0.45      0.00
    1    3   26      0.66      0.00
    1    3   24      1.53      0.00
    1    3   22     -1.21      0.00
    1    3   20      1.34      0.00
    1    3   18     -3.48      0.00
    1    3   16     -2.70      0.00
    1    3   14     -2.00      0.00
    1    3   12      2.65      0.00
    1    3   10     10.01      0.00
    1    3    8      9.12      0.00
    1    3    6    -16.05      0.00
    1    3    4    -17.03      0.00
    1    3    2    -23.26      0.00
    1    3    0     70.77      0.00
    1    2   35      1.93      0.00
    1    2   33     -0.92      0.00
    1    2   31     -0.69      0.00
    1    2   29      0.53      0.00
    1    2   27      0.72      0.00
    1    2   25      1.92      0.00
    1    2   23      0.21      0.00
    1    2   21      1.12      0.00
    1    2   19     -4.56      0.00
    1    2   17     -2.72      0.00
    1    2   15     -1.17      0.00
    1    2   13      1.57      0.00
    1    2   11     12.85      0.00
    1    2    9      4.11      0.00
    1    2    7     -2.30      0.00
    1    2    5    -20.60      0.00
    1    2    3    -30.09      0.00
    1    2    1     42.69      0.00
    1    1   34      5.24      0.00
    1    1   32      0.90      0.00
    1    1   30     -0.31      0.00
    1    1   28     -4.43      0.00
    1    1   26     -7.02      0.00
    1    1   24     -3.63      0.00
    1    1   22      1.63      0.00
    1    1   20      7.38      0.00
    1    1   18     10.22      0.00
    1    1   16      9.37      0.00
    1    1   14     -2.66      0.00
    1    1   12    -25.88      0.00
    1    1   10    -12.03      0.00
    1    1    8      0.08      0.00
    1    1    6      0.94      0.00
    1    1    4     71.93      0.00
    1    1    2     84.50      0.00
    1    1   36      4.57      0.00
    0    1   37      0.32      0.00
    1    1    0   -246.94      0.00
    1    2   37     -6.15      0.00
    1    4   37     -1.86      0.00
    1    6   37     -6.37      0.00
    1   11   34      2.73      0.00
    1   21   16      0.98      0.00
    1   21    6      2.75      0.00
    1   21    4      0.32      0.00
    2   20    8     -2.19      0.00
    2   20    4     -3.34      0.00
    2   20    2      1.86      0.00
    2   20    0      1.63      0.00
    2   20    6      1.04      0.00
    2   20   10      3.22      0.00
    2   20   12      0.66      0.00
    2   20   14     -0.66      0.00
    2   20   16      0.17      0.00
    2   20   18     -0.18      0.00
    2   19   15     -0.63      0.00
    2   19   13      2.72      0.00
    2   19   11     -1.00      0.00
    2   19    9      1.09      0.00
    2   19    7     -0.21      0.00
    2   19    5     -2.76      0.00
    2   19    3      0.96      0.00
    2   19    1      1.18      0.00
    2   19   17      1.97      0.00
    2   19   19     -3.65      0.00
    2   18   20      0.56      0.00
    2   18   18      0.40      0.00
    2   18   16      1.01      0.00
    2   18   14     -0.53      0.00
    2   18   12     -0.94      0.00
    2   18   10     -0.68      0.00
    2   18    8      3.60      0.00
    2   18    6     -1.75      0.00
    2   18    4     -0.61      0.00
    2   18    2      0.66      0.00
    2   18    0     -0.18      0.00
    2   18   22     -3.76      0.00
    2   17   23     -2.61      0.00
    2   17   21     -0.86      0.00
    2   17   19      2.36      0.00
    2   17   17     -1.15      0.00
    2   17   15     -1.13      0.00
    2   17   13     -0.13      0.00
    2   17   11     -0.31      0.00
    2   17    9      2.13      0.00
    2   17    7     -1.15      0.00
    2   17    5      0.17      0.00
    2   17    3      0.33      0.00
    2   17    1     -0.41      0.00
    2   17   25      4.52      0.00
    2   16   26     -6.67      0.00
    2   16   24      7.11      0.00
    2   16   22     -2.08      0.00
    2   16   20      0.87      0.00
    2   16   18     -2.01      0.00
    2   16   16      0.99      0.00
    2   16   14     -1.85      0.00
    2   16   12      1.45      0.00
    2   16   10      0.23      0.00
    2   16    8      0.05      0.00
    2   16    6     -0.32      0.00
    2   16    4     -1.08      0.00
    2   16    2      1.19      0.00
    2   16    0     -0.90      0.00
    2   15   27     -0.30      0.00
    2   15   25      2.98      0.00
    2   15   23     -2.02      0.00
    2   15   21      0.91      0.00
    2   15   19     -1.12      0.00
    2   15   17      1.37      0.00
    2   15   15     -0.80      0.00
    2   15   13     -1.10      0.00
    2   15   11      0.42      0.00
    2   15    9      0.68      0.00
    2   15    7      1.45      0.00
    2   15    5     -1.95      0.00
    2   15    3     -1.15      0.00
    2   15    1      1.20      0.00
    2   14   30     -3.82      0.00
    2   14   28      2.13      0.00
    2   14   26     -1.22      0.00
    2   14   24      0.00      0.00
    2   14   22      0.68      0.00
    2   14   20      1.25      0.00
    2   14   18     -1.14      0.00
    2   14   16      0.77      0.00
    2   14   14     -1.71      0.00
    2   14   12      0.09      0.00
    2   14   10      0.41      0.00
    2   14    8      1.70      0.00
    2   14    6     -0.76      0.00
    2   14    4     -0.22      0.00
    2   14    2     -0.45      0.00
    2   14    0      0.69      0.00
    2   13   31     -1.44      0.00
    2   13   29      0.43      0.00
    2   13   27      1.68      0.00
    2   13   25      0.41      0.00
    2   13   23     -2.15      0.00
    2   13   21      0.09      0.00
    2   13   19      0.81      0.00
    2   13   17      0.85      0.00
    2   13   15      0.55      0.00
    2   13   13     -2.16      0.00
    2   13   11      0.18      0.00
    2   13    9      0.28      0.00
    2   13    7      1.65      0.00
    2   13    5      0.72      0.00
    2   13    3     -1.73      0.00
    2   13    1      0.82      0.00
    2   12   32     -0.98      0.00
    2   12   30      2.87      0.00
    2   12   28      0.14      0.00
    2   12   26     -0.45      0.00
    2   12   24     -1.34      0.00
    2   12   22     -0.06      0.00
    2   12   20      0.80      0.00
    2   12   18     -0.18      0.00
    2   12   16      1.12      0.00
    2   12   14     -0.38      0.00
    2   12   12     -0.11      0.00
    2   12   10     -1.61      0.00
    2   12    8      2.02      0.00
    2   12    6      0.42      0.00
    2   12    4      0.78      0.00
    2   12    2     -1.38      0.00
    2   12    0      2.05      0.00
    2   11   33     -1.30      0.00
    2   11   31      0.20      0.00
    2   11   29      2.93      0.00
    2   11   27      0.36      0.00
    2   11   25     -1.07      0.00
    2   11   23     -0.23      0.00
    2   11   21     -0.28      0.00
    2   11   19      0.20      0.00
    2   11   17     -0.70      0.00
    2   11   15      1.04      0.00
    2   11   13      1.18      0.00
    2   11   11      0.14      0.00
    2   11    9     -1.44      0.00
    2   11    7     -0.21      0.00
    2   11    5      0.63      0.00
    2   11    3      1.52      0.00
    2   11    1     -0.59      0.00
    2   10   34     -0.90      0.00
    2   10   32     -1.83      0.00
    2   10   30      0.71      0.00
    2   10   28      0.70      0.00
    2   10   26      2.40      0.00
    2   10   24     -2.61      0.00
    2   10   22      1.42      0.00
    2   10   20     -0.12      0.00
    2   10   18      0.90      0.00
    2   10   16     -1.45      0.00
    2   10   14     -0.90      0.00
    2   10   12      2.06      0.00
    2   10   10      0.73      0.00
    2   10    8     -0.48      0.00
    2   10    6     -0.58      0.00
    2   10    4     -0.84      0.00
    2   10    2     -1.77      0.00
    2   10    0      4.92      0.00
    2    9   35      2.03      0.00
    2    9   33     -2.29      0.00
    2    9   31      1.88      0.00
    2    9   29     -2.06      0.00
    2    9   27      0.06      0.00
    2    9   25      1.50      0.00
    2    9   23      1.25      0.00
    2    9   21     -0.05      0.00
    2    9   19     -0.03      0.00
    2    9   17     -0.39      0.00
    2    9   15     -0.75      0.00
    2    9   13     -0.04      0.00
    2    9   11      0.36      0.00
    2    9    9      0.38      0.00
    2    9    7      0.19      0.00
    2    9    5     -0.89      0.00
    2    9    3      0.79      0.00
    2    9    1     -1.19      0.00
    2    8   34      1.67      0.00
    2    8   32      0.79      0.00
    2    8   30     -1.04      0.00
    2    8   28      0.69      0.00
    2    8   26      0.20      0.00
    2    8   24     -1.45      0.00
    2    8   22      0.13      0.00
    2    8   20     -0.36      0.00
    2    8   18      2.40      0.00
    2    8   16      0.81      0.00
    2    8   14     -1.16      0.00
    2    8   12      0.11      0.00
    2    8   10     -2.93      0.00
    2    8    8     -1.26      0.00
    2    8    6      3.80      0.00
    2    8    4      1.40      0.00
    2    8    2     -1.96      0.00
    2    8    0     -2.04      0.00
    2    7   35      0.51      0.00
    2    7   33     -0.48      0.00
    2    7   31      0.86      0.00
    2    7   29      0.27      0.00
    2    7   27      1.08      0.00
    2    7   25     -1.03      0.00
    2    7   23     -0.76      0.00
    2    7   21     -1.61      0.00
    2    7   19      0.64      0.00
    2    7   17      2.52      0.00
    2    7   15      0.25      0.00
    2    7   13     -0.12      0.00
    2    7   11     -1.73      0.00
    2    7    9     -3.14      0.00
    2    7    7      0.63      0.00
    2    7    5      3.91      0.00
    2    7    3      3.00      0.00
    2    7    1     -4.42      0.00
    2    6   36     -1.54      0.00
    2    6   34      0.37      0.00
    2    6   32      1.54      0.00
    2    6   30      0.33      0.00
    2    6   28      0.45      0.00
    2    6   26     -0.31      0.00
    2    6   24     -0.48      0.00
    2    6   22     -2.83      0.00
    2    6   20      1.30      0.00
    2    6   18     -0.08      0.00
    2    6   16      0.76      0.00
    2    6   14     -0.92      0.00
    2    6   12      1.93      0.00
    2    6   10      3.38      0.00
    2    6    8     -3.61      0.00
    2    6    6     -7.68      0.00
    2    6    4      6.88      0.00
    2    6    2      3.57      0.00
    2    6    0     -5.24      0.00
    2    5   35      0.84      0.00
    2    5   33     -1.23      0.00
    2    5   31     -1.65      0.00
    2    5   29      0.40      0.00
    2    5   27      0.02      0.00
    2    5   25      0.69      0.00
    2    5   23      1.31      0.00
    2    5   21      1.19      0.00
    2    5   19     -4.22      0.00
    2    5   17      0.77      0.00
    2    5   15     -0.97      0.00
    2    5   13     -1.07      0.00
    2    5   11      3.22      0.00
    2    5    9      5.05      0.00
    2    5    7     -0.54      0.00
    2    5    5     -7.64      0.00
    2    5    3     -2.92      0.00
    2    5    1      7.51      0.00
    2    4   36      0.65      0.00
    2    4   34      3.21      0.00
    2    4   32      2.20      0.00
    2    4   30     -0.64      0.00
    2    4   28     -2.21      0.00
    2    4   26     -3.72      0.00
    2    4   24     -0.17      0.00
    2    4   22      1.16      0.00
    2    4   20      2.42      0.00
    2    4   18      2.86      0.00
    2    4   16      2.52      0.00
    2    4   14      0.03      0.00
    2    4   12    -11.10      0.00
    2    4   10     -2.66      0.00
    2    4    8     -0.20      0.00
    2    4    6     10.74      0.00
    2    4    4     16.33      0.00
    2    4    2     15.49      0.00
    2    3   35      3.40      0.00
    2    3   33      1.44      0.00
    2    3   31     -0.26      0.00
    2    3   29     -1.95      0.00
    2    3   27     -0.51      0.00
    2    3   25     -1.74      0.00
    2    3   23      0.79      0.00
    2    3   21      3.77      0.00
    2    3   19     -1.99      0.00
    2    3   17      3.36      0.00
    2    3   15      0.52      0.00
    2    3   13     -1.95      0.00
    2    3   11     -8.72      0.00
    2    3    9     -0.13      0.00
    2    3    7      9.26      0.00
    2    3    5     10.56      0.00
    2    3    3     -1.99      0.00
    2    3    1     -8.26      0.00
    2    2   34      0.77      0.00
    2    2   32      0.93      0.00
    2    2   30      0.96      0.00
    2    2   28     -0.29      0.00
    2    2   26      0.28      0.00
    2    2   24      0.92      0.00
    2    2   22     -3.91      0.00
    2    2   20     -2.10      0.00
    2    2   18      2.08      0.00
    2    2   16      6.11      0.00
    2    2   14      6.44      0.00
    2    2   12     -3.57      0.00
    2    2   10     -9.55      0.00
    2    2    8    -22.87      0.00
    2    2    6     12.00      0.00
    2    2    4     49.93      0.00
    2    2    2     18.51      0.00
    2    2    0   -103.95      0.00
    2    2   36     -2.42      0.00
    2    3   37     -4.52      0.00
    2    4    0    -63.75      0.00
    2    5   37      0.53      0.00
    2    7   37     -2.33      0.00
    2    8   36     -0.35      0.00
    2   21   15      2.23      0.00
    2   21   13      2.91      0.00
    2   21   11     -1.79      0.00
    2   21    9     -1.20      0.00
    2   21    7      1.72      0.00
    2   21    5     -3.01      0.00
    2   21    3      2.94      0.00
    2   21    1     -0.26      0.00
    3   20    7     -3.97      0.00
    3   20    5      3.27      0.00
    3   20    3     -1.11      0.00
    3   20    1      0.46      0.00
    3   20    9      2.09      0.00
    3   20   11     -0.84      0.00
    3   20   13      3.21      0.00
    3   20   15     -0.71      0.00
    3   20   17     -1.28      0.00
    3   19   14      1.95      0.00
    3   19   12      2.32      0.00
    3   19    8     -2.56      0.00
    3   19    6     -1.01      0.00
    3   19    4      1.24      0.00
    3   19    2      1.96      0.00
    3   19    0     -3.87      0.00
    3   19   10     -0.28      0.00
    3   19   16     -0.36      0.00
    3   19   18     -2.21      0.00
    3   19   20     -2.08      0.00
    3   18   19      1.02      0.00
    3   18   17     -2.02      0.00
    3   18   15     -0.34      0.00
    3   18   13      3.14      0.00
    3   18   11     -1.57      0.00
    3   18    9     -2.33      0.00
    3   18    7      2.37      0.00
    3   18    5     -0.28      0.00
    3   18    3     -1.49      0.00
    3   18    1      0.30      0.00
    3   18   21     -1.10      0.00
    3   18   23      0.53      0.00
    3   17   22      7.01      0.00
    3   17   20     -2.74      0.00
    3   17   18      0.50      0.00
    3   17   16     -2.38      0.00
    3   17   14      2.36      0.00
    3   17   10      1.51      0.00
    3   17    8     -0.12      0.00
    3   17    6     -0.09      0.00
    3   17    4      0.75      0.00
    3   17    2     -0.89      0.00
    3   17    0     -0.75      0.00
    3   17   12     -2.53      0.00
    3   17   24     -3.68      0.00
    3   16   27     -0.19      0.00
    3   16   25     -4.05      0.00
    3   16   23      3.46      0.00
    3   16   21     -1.09      0.00
    3   16   19      3.34      0.00
    3   16   17     -2.19      0.00
    3   16   15      0.08      0.00
    3   16   13      0.32      0.00
    3   16   11     -0.57      0.00
    3   16    9     -1.18      0.00
    3   16    7      2.07      0.00
    3   16    5      0.34      0.00
    3   16    3      0.05      0.00
    3   16    1     -1.11      0.00
    3   15   28     -2.29      0.00
    3   15   26      3.10      0.00
    3   15   24     -2.44      0.00
    3   15   22      2.32      0.00
    3   15   20     -0.66      0.00
    3   15   18     -0.59      0.00
    3   15   16      0.71      0.00
    3   15   14      1.25      0.00
    3   15   12     -1.63      0.00
    3   15   10     -0.18      0.00
    3   15    8      1.07      0.00
    3   15    6      0.21      0.00
    3   15    4      0.05      0.00
    3   15    2     -0.59      0.00
    3   15    0     -0.24      0.00
    3   14   31     -1.03      0.00
    3   14   29     -0.68      0.00
    3   14   27      1.82      0.00
    3   14   25     -0.84      0.00
    3   14   23      1.11      0.00
    3   14   21     -1.07      0.00
    3   14   19      0.30      0.00
    3   14   17     -0.74      0.00
    3   14   15      0.81      0.00
    3   14   13      0.42      0.00
    3   14   11      0.58      0.00
    3   14    9     -1.83      0.00
    3   14    7     -0.29      0.00
    3   14    5      1.72      0.00
    3   14    3      0.94      0.00
    3   14    1     -1.88      0.00
    3   13   32     -2.20      0.00
    3   13   30     -1.53      0.00
    3   13   28      3.27      0.00
    3   13   26     -0.54      0.00
    3   13   24      0.92      0.00
    3   13   22     -0.75      0.00
    3   13   20     -0.76      0.00
    3   13   18      0.49      0.00
    3   13   16     -0.10      0.00
    3   13   14     -0.63      0.00
    3   13   12      0.34      0.00
    3   13   10      0.25      0.00
    3   13    8      0.19      0.00
    3   13    6     -1.56      0.00
    3   13    4      1.34      0.00
    3   13    2     -0.05      0.00
    3   13    0     -0.43      0.00
    3   12   33      0.70      0.00
    3   12   31     -2.51      0.00
    3   12   29      1.66      0.00
    3   12   27      1.83      0.00
    3   12   25     -0.91      0.00
    3   12   23      0.02      0.00
    3   12   21      0.51      0.00
    3   12   19      0.20      0.00
    3   12   17     -1.13      0.00
    3   12   15     -0.22      0.00
    3   12   13     -0.74      0.00
    3   12   11      0.73      0.00
    3   12    9      0.14      0.00
    3   12    7     -0.33      0.00
    3   12    5      1.36      0.00
    3   12    3      0.69      0.00
    3   12    1     -0.73      0.00
    3   11   32      0.59      0.00
    3   11   30     -1.62      0.00
    3   11   28      2.02      0.00
    3   11   26     -1.69      0.00
    3   11   24      0.44      0.00
    3   11   22     -0.58      0.00
    3   11   20      0.20      0.00
    3   11   18      0.91      0.00
    3   11   16      1.78      0.00
    3   11   14     -1.80      0.00
    3   11   12     -1.08      0.00
    3   11   10     -0.63      0.00
    3   11    8      1.90      0.00
    3   11    6      0.50      0.00
    3   11    4      1.58      0.00
    3   11    2     -0.41      0.00
    3   11    0     -0.40      0.00
    3   10   33      3.25      0.00
    3   10   31     -1.58      0.00
    3   10   29      0.23      0.00
    3   10   27      0.34      0.00
    3   10   25     -0.56      0.00
    3   10   23      0.04      0.00
    3   10   21     -0.11      0.00
    3   10   19      1.27      0.00
    3   10   17      0.49      0.00
    3   10   15     -0.33      0.00
    3   10   13     -0.54      0.00
    3   10   11     -1.12      0.00
    3   10    9      2.06      0.00
    3   10    7      0.76      0.00
    3   10    5      0.86      0.00
    3   10    3     -0.92      0.00
    3   10    1     -0.01      0.00
    3    9   34     -1.36      0.00
    3    9   32      2.44      0.00
    3    9   30     -0.89      0.00
    3    9   28      0.72      0.00
    3    9   26     -1.16      0.00
    3    9   24      2.22      0.00
    3    9   22     -0.13      0.00
    3    9   20     -0.07      0.00
    3    9   18     -2.82      0.00
    3    9   16      0.48      0.00
    3    9   14      1.76      0.00
    3    9   12      2.01      0.00
    3    9   10      0.48      0.00
    3    9    8     -1.92      0.00
    3    9    6     -1.89      0.00
    3    9    4      2.28      0.00
    3    9    2     -1.65      0.00
    3    9    0     -0.39      0.00
    3    8   35     -0.66      0.00
    3    8   33     -1.20      0.00
    3    8   31      2.71      0.00
    3    8   29      0.42      0.00
    3    8   27      0.08      0.00
    3    8   25     -1.09      0.00
    3    8   23     -1.06      0.00
    3    8   21      0.83      0.00
    3    8   19      0.28      0.00
    3    8   17     -1.63      0.00
    3    8   15     -0.19      0.00
    3    8   13      2.56      0.00
    3    8   11      1.65      0.00
    3    8    9     -0.68      0.00
    3    8    7     -3.73      0.00
    3    8    5     -2.43      0.00
    3    8    3      0.84      0.00
    3    8    1     -0.42      0.00
    3    7   34     -0.33      0.00
    3    7   32     -0.97      0.00
    3    7   30      0.84      0.00
    3    7   28     -1.06      0.00
    3    7   26     -1.14      0.00
    3    7   24      1.90      0.00
    3    7   22      0.93      0.00
    3    7   20      0.92      0.00
    3    7   18     -1.48      0.00
    3    7   16     -0.76      0.00
    3    7   14     -2.14      0.00
    3    7   12     -1.05      0.00
    3    7   10      0.77      0.00
    3    7    8      3.33      0.00
    3    7    6     -0.38      0.00
    3    7    4     -3.47      0.00
    3    7    2     -4.30      0.00
    3    7    0      5.53      0.00
    3    6   35      1.28      0.00
    3    6   33     -0.34      0.00
    3    6   31      2.00      0.00
    3    6   29      0.04      0.00
    3    6   27      0.43      0.00
    3    6   25     -1.86      0.00
    3    6   23     -0.45      0.00
    3    6   21     -0.69      0.00
    3    6   19     -1.01      0.00
    3    6   17      0.20      0.00
    3    6   15      3.41      0.00
    3    6   13      3.59      0.00
    3    6   11     -6.49      0.00
    3    6    9     -3.21      0.00
    3    6    7      1.43      0.00
    3    6    5      2.93      0.00
    3    6    3     -4.75      0.00
    3    6    1      3.91      0.00
    3    5   34     -1.95      0.00
    3    5   32     -1.50      0.00
    3    5   30      0.66      0.00
    3    5   28      0.89      0.00
    3    5   26      1.40      0.00
    3    5   24      0.40      0.00
    3    5   22     -1.93      0.00
    3    5   20     -0.38      0.00
    3    5   18     -0.49      0.00
    3    5   16      1.76      0.00
    3    5   14      2.20      0.00
    3    5   12     -0.66      0.00
    3    5   10     -5.03      0.00
    3    5    8     -1.00      0.00
    3    5    6      5.82      0.00
    3    5    4      7.92      0.00
    3    5    2    -15.00      0.00
    3    5    0     21.13      0.00
    3    5   36     -1.54      0.00
    3    4   35      0.48      0.00
    3    4   33      0.40      0.00
    3    4   31      0.70      0.00
    3    4   29     -0.04      0.00
    3    4   27      0.16      0.00
    3    4   25     -0.29      0.00
    3    4   23     -0.75      0.00
    3    4   21     -1.44      0.00
    3    4   19      0.90      0.00
    3    4   17      1.32      0.00
    3    4   15      0.88      0.00
    3    4   13      3.11      0.00
    3    4   11     -0.14      0.00
    3    4    9     -3.66      0.00
    3    4    7     -0.40      0.00
    3    4    5      2.98      0.00
    3    4    3      3.53      0.00
    3    4    1      3.49      0.00
    3    3   34     -0.77      0.00
    3    3   32     -1.43      0.00
    3    3   30      0.02      0.00
    3    3   28      0.34      0.00
    3    3   26      2.61      0.00
    3    3   24      2.41      0.00
    3    3   22     -0.52      0.00
    3    3   20      0.87      0.00
    3    3   18     -5.50      0.00
    3    3   16     -4.37      0.00
    3    3   14     -0.33      0.00
    3    3   12      7.93      0.00
    3    3   10     11.21      0.00
    3    3    8     13.62      0.00
    3    3    6    -15.49      0.00
    3    3    4    -28.20      0.00
    3    3    2    -49.31      0.00
    3    3   36     -3.38      0.00
    0    3   37     -1.94      0.00
    3    4   37     -2.33      0.00
    3    6   37     -4.60      0.00
    3    7   36     -1.33      0.00
    3    8   37     -1.15      0.00
    3    9   36     -0.79      0.00
    3   10   35      0.79      0.00
    3   11   34      5.67      0.00
    3   21   14      6.16      0.00
    3   21   12      1.63      0.00
    3   21   10     -5.69      0.00
    3   21    8      0.19      0.00
    3   21    6      3.65      0.00
    3   21    4     -1.57      0.00
    3   21    2     -0.21      0.00
    3   21    0      3.19      0.00
    4   20    6     -2.70      0.00
    4   20    4     -0.13      0.00
    4   20    2      0.28      0.00
    4   20    0      0.26      0.00
    4   20    8      4.36      0.00
    4   20   10      0.31      0.00
    4   20   12     -0.01      0.00
    4   20   14     -2.86      0.00
    4   19   13     -3.18      0.00
    4   19   11      2.19      0.00
    4   19    9      0.82      0.00
    4   19    7      0.99      0.00
    4   19    5     -3.05      0.00
    4   19    3     -0.31      0.00
    4   19    1      0.62      0.00
    4   19   15     -1.38      0.00
    4   19   17      3.42      0.00
    4   19   19     -2.81      0.00
    4   18   18      4.40      0.00
    4   18   16      0.02      0.00
    4   18   14     -1.34      0.00
    4   18   12     -0.18      0.00
    4   18   10     -4.11      0.00
    4   18    6      0.14      0.00
    4   18    4     -1.15      0.00
    4   18    2     -1.56      0.00
    4   18    0      1.21      0.00
    4   18    8      3.95      0.00
    4   18   20     -0.64      0.00
    4   18   22     -5.16      0.00
    4   17   23      3.31      0.00
    4   17   21      0.39      0.00
    4   17   19     -2.06      0.00
    4   17   17     -0.56      0.00
    4   17   15      1.92      0.00
    4   17   13     -1.74      0.00
    4   17   11      0.96      0.00
    4   17    9      0.96      0.00
    4   17    7     -1.60      0.00
    4   17    5      0.70      0.00
    4   17    3     -0.69      0.00
    4   17    1      0.15      0.00
    4   17   25     -0.42      0.00
    4   16   26     -5.10      0.00
    4   16   24      6.60      0.00
    4   16   22     -2.88      0.00
    4   16   20      0.51      0.00
    4   16   18      1.23      0.00
    4   16   16     -0.65      0.00
    4   16   14     -0.24      0.00
    4   16   12      1.92      0.00
    4   16   10     -0.07      0.00
    4   16    6      1.30      0.00
    4   16    4     -0.45      0.00
    4   16    2      0.06      0.00
    4   16    0      0.70      0.00
    4   16    8     -1.31      0.00
    4   15   29      1.13      0.00
    4   15   27     -2.68      0.00
    4   15   25     -0.15      0.00
    4   15   23      4.32      0.00
    4   15   21     -0.94      0.00
    4   15   19     -2.01      0.00
    4   15   17      0.02      0.00
    4   15   15      2.33      0.00
    4   15   13     -1.17      0.00
    4   15   11      0.41      0.00
    4   15    9      2.14      0.00
    4   15    7     -0.06      0.00
    4   15    5     -2.36      0.00
    4   15    3      0.60      0.00
    4   15    1      0.82      0.00
    4   14   30     -1.82      0.00
    4   14   28      4.05      0.00
    4   14   26     -0.82      0.00
    4   14   24     -0.01      0.00
    4   14   22     -0.46      0.00
    4   14   20     -1.10      0.00
    4   14   18      1.25      0.00
    4   14   16     -0.13      0.00
    4   14   14      0.82      0.00
    4   14   12     -1.01      0.00
    4   14   10      0.21      0.00
    4   14    8     -0.56      0.00
    4   14    6      1.97      0.00
    4   14    4     -1.24      0.00
    4   14    2     -0.65      0.00
    4   14    0      0.34      0.00
    4   13   31      1.14      0.00
    4   13   29      2.46      0.00
    4   13   27     -2.21      0.00
    4   13   25      0.47      0.00
    4   13   23      0.83      0.00
    4   13   21     -0.21      0.00
    4   13   19      0.94      0.00
    4   13   17     -1.32      0.00
    4   13   15     -1.22      0.00
    4   13   13      0.61      0.00
    4   13   11     -0.78      0.00
    4   13    9      0.59      0.00
    4   13    7      0.17      0.00
    4   13    5     -1.22      0.00
    4   13    3      0.25      0.00
    4   13    1     -0.38      0.00
    4   12   32      1.35      0.00
    4   12   30      2.17      0.00
    4   12   28     -0.15      0.00
    4   12   26      0.76      0.00
    4   12   24      0.20      0.00
    4   12   22      0.31      0.00
    4   12   20     -0.61      0.00
    4   12   18     -1.48      0.00
    4   12   16     -0.89      0.00
    4   12   14      1.53      0.00
    4   12   12      0.58      0.00
    4   12   10     -2.10      0.00
    4   12    8     -0.56      0.00
    4   12    6      0.79      0.00
    4   12    4      0.66      0.00
    4   12    2     -1.34      0.00
    4   12    0      1.50      0.00
    4   11   31      2.79      0.00
    4   11   29     -1.22      0.00
    4   11   27     -1.98      0.00
    4   11   25      2.47      0.00
    4   11   23     -1.13      0.00
    4   11   21     -0.41      0.00
    4   11   19      0.28      0.00
    4   11   17      0.24      0.00
    4   11   15     -0.16      0.00
    4   11   13      0.31      0.00
    4   11   11     -0.53      0.00
    4   11    9      1.26      0.00
    4   11    7     -1.35      0.00
    4   11    5     -0.49      0.00
    4   11    3      0.17      0.00
    4   11    1      1.84      0.00
    4   10   32     -0.12      0.00
    4   10   30      0.45      0.00
    4   10   28     -1.57      0.00
    4   10   26      1.86      0.00
    4   10   24     -1.19      0.00
    4   10   22      0.03      0.00
    4   10   20      1.32      0.00
    4   10   18     -0.22      0.00
    4   10   16     -0.58      0.00
    4   10   14     -1.42      0.00
    4   10   12      2.19      0.00
    4   10   10      1.38      0.00
    4   10    8      1.22      0.00
    4   10    6     -1.69      0.00
    4   10    4     -0.93      0.00
    4   10    2      1.14      0.00
    4   10    0      1.76      0.00
    4    9   33     -1.82      0.00
    4    9   31     -1.88      0.00
    4    9   29      0.46      0.00
    4    9   27     -0.66      0.00
    4    9   25      1.41      0.00
    4    9   23      0.51      0.00
    4    9   21     -0.45      0.00
    4    9   19     -0.77      0.00
    4    9   17      0.03      0.00
    4    9   15     -0.66      0.00
    4    9   13      1.37      0.00
    4    9   11      1.58      0.00
    4    9    9      2.05      0.00
    4    9    7     -0.92      0.00
    4    9    5     -1.14      0.00
    4    9    3     -2.60      0.00
    4    9    1      1.89      0.00
    4    8   34     -0.41      0.00
    4    8   32      1.15      0.00
    4    8   30      0.78      0.00
    4    8   28     -1.50      0.00
    4    8   26     -0.19      0.00
    4    8   24     -0.65      0.00
    4    8   22     -0.79      0.00
    4    8   20      1.13      0.00
    4    8   18      0.68      0.00
    4    8   16      0.93      0.00
    4    8   14     -0.44      0.00
    4    8   12     -0.78      0.00
    4    8   10     -2.06      0.00
    4    8    8      3.17      0.00
    4    8    6      0.70      0.00
    4    8    4     -0.55      0.00
    4    8    2     -2.52      0.00
    4    7   33      4.13      0.00
    4    7   31     -2.19      0.00
    4    7   29      0.47      0.00
    4    7   27     -1.85      0.00
    4    7   25      0.29      0.00
    4    7   23      0.24      0.00
    4    7   21      1.89      0.00
    4    7   19      1.94      0.00
    4    7   17     -0.68      0.00
    4    7   15     -4.30      0.00
    4    7   13     -0.73      0.00
    4    7   11      0.10      0.00
    4    7    9      0.58      0.00
    4    7    7      0.56      0.00
    4    7    5      4.68      0.00
    4    7    3     -4.52      0.00
    4    7    1     -3.44      0.00
    4    7   35     -1.67      0.00
    4    6   34     -3.04      0.00
    4    6   32      0.89      0.00
    4    6   30     -0.40      0.00
    4    6   28      1.65      0.00
    4    6   26      0.69      0.00
    4    6   24     -0.70      0.00
    4    6   22     -0.04      0.00
    4    6   20     -0.15      0.00
    4    6   18     -3.01      0.00
    4    6   16      0.73      0.00
    4    6   14      0.79      0.00
    4    6   12      3.48      0.00
    4    6   10      1.88      0.00
    4    6    8     -3.90      0.00
    4    6    6     -9.76      0.00
    4    6    4      2.24      0.00
    4    6    2      3.38      0.00
    4    6    0      3.68      0.00
    4    5   35     -2.68      0.00
    4    5   33     -0.25      0.00
    4    5   31     -1.58      0.00
    4    5   29      1.07      0.00
    4    5   27     -0.76      0.00
    4    5   25      1.29      0.00
    4    5   23      0.09      0.00
    4    5   21      1.21      0.00
    4    5   19     -0.18      0.00
    4    5   17      0.09      0.00
    4    5   15     -2.40      0.00
    4    5   13     -0.16      0.00
    4    5   11      2.83      0.00
    4    5    9      0.92      0.00
    4    5    7     -3.68      0.00
    4    5    5     -2.31      0.00
    4    5    3      4.76      0.00
    4    5    1      3.91      0.00
    4    4   34     -0.76      0.00
    4    4   32      0.39      0.00
    4    4   30     -2.55      0.00
    4    4   28      0.37      0.00
    4    4   26     -1.17      0.00
    4    4   24     -0.96      0.00
    4    4   22      3.56      0.00
    4    4   20      0.05      0.00
    4    4   18     -1.42      0.00
    4    4   16      0.41      0.00
    4    4   14      1.40      0.00
    4    4   12     -1.50      0.00
    4    4   10      5.55      0.00
    4    4    8      0.51      0.00
    4    4    6     -6.15      0.00
    4    4    4     -8.18      0.00
    4    4    2     18.33      0.00
    4    4    0      1.47      0.00
    4    4   36      5.45      0.00
    4    5   37      1.07      0.00
    4    6   36      0.74      0.00
    4    7   37     -4.80      0.00
    4    8    0     -2.86      0.00
    4    8   36      1.07      0.00
    4    9   35      3.84      0.00
    4   10   34     -1.57      0.00
    4   11   33      1.28      0.00
    4   20   16     -0.10      0.00
    4   21   15      0.25      0.00
    4   21   13      1.04      0.00
    4   21   11     -0.32      0.00
    4   21    9     -3.74      0.00
    4   21    7      7.61      0.00
    4   21    5     -2.22      0.00
    4   21    3      0.20      0.00
    4   21    1      0.45      0.00
    5   20    5      0.94      0.00
    5   20    3      0.76      0.00
    5   20    1      0.73      0.00
    5   20    7     -5.38      0.00
    5   20    9      2.94      0.00
    5   20   11     -0.23      0.00
    5   19   12      1.84      0.00
    5   19   10      2.81      0.00
    5   19    8     -5.71      0.00
    5   19    6      0.09      0.00
    5   19    4     -1.43      0.00
    5   19    2      1.30      0.00
    5   19    0      0.53      0.00
    5   19   14      4.79      0.00
    5   19   16     -3.50      0.00
    5   19   18     -7.52      0.00
    5   18   13      0.08      0.00
    5   18   11      1.00      0.00
    5   18    9     -2.76      0.00
    5   18    7     -0.55      0.00
    5   18    5      0.92      0.00
    5   18    3     -0.74      0.00
    5   18    1      0.09      0.00
    5   18   15      1.18      0.00
    5   18   17     -0.67      0.00
    5   18   19      0.39      0.00
    5   17   22      2.17      0.00
    5   17   20     -0.15      0.00
    5   17   18     -0.14      0.00
    5   17   16     -0.41      0.00
    5   17   14      2.98      0.00
    5   17   12     -2.78      0.00
    5   17   10      2.32      0.00
    5   17    8     -1.32      0.00
    5   17    6     -0.51      0.00
    5   17    4     -0.47      0.00
    5   17    2     -0.36      0.00
    5   17    0      2.84      0.00
    5   16   25     -4.08      0.00
    5   16   23      0.73      0.00
    5   16   21     -0.77      0.00
    5   16   19      2.36      0.00
    5   16   17      1.96      0.00
    5   16   15      0.96      0.00
    5   16   13     -1.72      0.00
    5   16   11      0.11      0.00
    5   16    9      0.27      0.00
    5   16    7      0.19      0.00
    5   16    5      0.29      0.00
    5   16    3      1.53      0.00
    5   16    1     -0.38      0.00
    5   16   27      0.16      0.00
    5   15   28      0.61      0.00
    5   15   26     -0.09      0.00
    5   15   22      0.10      0.00
    5   15   20      0.50      0.00
    5   15   18     -0.75      0.00
    5   15   16      1.68      0.00
    5   15   14      0.38      0.00
    5   15   12      1.03      0.00
    5   15   10     -1.69      0.00
    5   15    8      1.69      0.00
    5   15    6     -0.71      0.00
    5   15    4      1.94      0.00
    5   15    2     -1.33      0.00
    5   15    0      1.49      0.00
    5   15   24     -0.52      0.00
    5   14   29     -4.29      0.00
    5   14   27      5.71      0.00
    5   14   25     -0.25      0.00
    5   14   23      0.50      0.00
    5   14   21     -0.56      0.00
    5   14   19     -1.29      0.00
    5   14   17      0.58      0.00
    5   14   15     -0.21      0.00
    5   14   13     -0.20      0.00
    5   14   11      0.74      0.00
    5   14    9      1.91      0.00
    5   14    7     -1.74      0.00
    5   14    5      0.10      0.00
    5   14    3     -1.06      0.00
    5   14    1      0.70      0.00
    5   13   30     -3.02      0.00
    5   13   28     -0.01      0.00
    5   13   26      1.41      0.00
    5   13   24      1.62      0.00
    5   13   22      0.68      0.00
    5   13   20      0.65      0.00
    5   13   18     -0.56      0.00
    5   13   16     -2.44      0.00
    5   13   14     -1.94      0.00
    5   13   12      0.87      0.00
    5   13   10      1.50      0.00
    5   13    8      1.52      0.00
    5   13    6     -3.28      0.00
    5   13    4      0.62      0.00
    5   13    2     -0.63      0.00
    5   13    0     -0.94      0.00
    5   12   31     -1.41      0.00
    5   12   29      2.11      0.00
    5   12   27      2.36      0.00
    5   12   25     -2.11      0.00
    5   12   23      1.46      0.00
    5   12   21     -0.26      0.00
    5   12   19     -0.36      0.00
    5   12   17     -0.17      0.00
    5   12   15     -0.74      0.00
    5   12   13     -0.81      0.00
    5   12   11     -0.77      0.00
    5   12    9     -0.15      0.00
    5   12    7      0.85      0.00
    5   12    5     -0.04      0.00
    5   12    3     -1.81      0.00
    5   12    1      0.07      0.00
    5   11   32     -1.47      0.00
    5   11   30      1.77      0.00
    5   11   28     -1.36      0.00
    5   11   26     -0.45      0.00
    5   11   24      0.27      0.00
    5   11   22     -0.58      0.00
    5   11   20     -0.74      0.00
    5   11   18      2.54      0.00
    5   11   16      0.20      0.00
    5   11   14     -1.37      0.00
    5   11   12     -1.16      0.00
    5   11   10     -1.32      0.00
    5   11    8      1.81      0.00
    5   11    6     -0.65      0.00
    5   11    4      0.77      0.00
    5   11    2      1.54      0.00
    5   11    0     -3.64      0.00
    5   10   31      0.41      0.00
    5   10   29      0.33      0.00
    5   10   27     -0.53      0.00
    5   10   25     -1.30      0.00
    5   10   23     -0.88      0.00
    5   10   21      0.97      0.00
    5   10   19      0.50      0.00
    5   10   17     -0.02      0.00
    5   10   15      0.13      0.00
    5   10   13      1.35      0.00
    5   10   11     -1.54      0.00
    5   10    9     -0.32      0.00
    5   10    7      1.82      0.00
    5   10    5      0.86      0.00
    5   10    3     -0.95      0.00
    5   10    1      0.81      0.00
    5   10   33      1.58      0.00
    5    9   32      1.14      0.00
    5    9   30     -2.60      0.00
    5    9   28      2.11      0.00
    5    9   26      0.94      0.00
    5    9   24     -1.30      0.00
    5    9   22     -0.86      0.00
    5    9   20     -0.48      0.00
    5    9   18     -1.12      0.00
    5    9   16      0.77      0.00
    5    9   14      2.19      0.00
    5    9   12      2.32      0.00
    5    9   10      0.89      0.00
    5    9    8     -1.41      0.00
    5    9    6     -2.40      0.00
    5    9    4      0.96      0.00
    5    9    2      2.12      0.00
    5    9    0     -0.78      0.00
    5    9   34     -1.31      0.00
    5    8   33     -1.69      0.00
    5    8   31      2.67      0.00
    5    8   29      0.17      0.00
    5    8   27     -0.91      0.00
    5    8   25      1.12      0.00
    5    8   23     -1.94      0.00
    5    8   21     -0.32      0.00
    5    8   19      0.83      0.00
    5    8   17     -0.73      0.00
    5    8   15      1.16      0.00
    5    8   13      0.58      0.00
    5    8   11      1.73      0.00
    5    8    9      1.88      0.00
    5    8    7     -2.92      0.00
    5    8    5     -1.17      0.00
    5    8    3      1.01      0.00
    5    8    1     -0.24      0.00
    5    7   34      0.90      0.00
    5    7   32      1.34      0.00
    5    7   30      0.50      0.00
    5    7   28     -1.60      0.00
    5    7   26      0.02      0.00
    5    7   24     -0.34      0.00
    5    7   22      0.95      0.00
    5    7   20      0.49      0.00
    5    7   18      0.59      0.00
    5    7   16     -1.17      0.00
    5    7   14     -0.74      0.00
    5    7   12      1.05      0.00
    5    7   10      1.62      0.00
    5    7    8     -0.59      0.00
    5    7    6     -0.34      0.00
    5    7    4     -3.41      0.00
    5    7    2      3.12      0.00
    5    7    0     -3.84      0.00
    5    6   33     -3.78      0.00
    5    6   31      1.33      0.00
    5    6   29      1.69      0.00
    5    6   27      0.35      0.00
    5    6   25      0.78      0.00
    5    6   23     -0.14      0.00
    5    6   21     -1.21      0.00
    5    6   19     -1.39      0.00
    5    6   17      0.65      0.00
    5    6   15      2.13      0.00
    5    6   13      1.67      0.00
    5    6   11     -2.11      0.00
    5    6    9     -0.68      0.00
    5    6    7     -2.05      0.00
    5    6    5     -1.76      0.00
    5    6    3      1.37      0.00
    5    6    1      1.27      0.00
    5    6   35      0.25      0.00
    5    5   34     -0.16      0.00
    5    5   32      1.06      0.00
    5    5   30      2.30      0.00
    5    5   28     -1.91      0.00
    5    5   26      0.64      0.00
    5    5   24     -1.27      0.00
    5    5   22     -1.08      0.00
    5    5   20      1.82      0.00
    5    5   18      2.27      0.00
    5    5   16      0.88      0.00
    5    5   14      1.99      0.00
    5    5   12     -4.18      0.00
    5    5   10     -7.35      0.00
    5    5    8     -3.18      0.00
    5    5    6     12.06      0.00
    5    5    4      6.12      0.00
    5    5    2     -3.76      0.00
    5    5    0     -5.31      0.00
    5    5   36     -3.66      0.00
    0    5   37     -0.27      0.00
    5    6   37      0.45      0.00
    5    7   36     -2.04      0.00
    5    8   35     -2.96      0.00
    5    8   37      3.48      0.00
    5    9   36      1.29      0.00
    5   10   35     -1.48      0.00
    5   20   15      2.55      0.00
    5   20   13      1.30      0.00
    5   21   14      2.79      0.00
    5   21   12     -0.31      0.00
    5   21   10      1.07      0.00
    5   21    8     -3.26      0.00
    5   21    6      6.06      0.00
    5   21    4     -4.45      0.00
    6   20    0     -0.97      0.00
    6   20    2     -0.38      0.00
    6   20    4     -0.07      0.00
    6   20    6      0.63      0.00
    6   19   11     -1.07      0.00
    6   19    9      1.36      0.00
    6   19    7      2.32      0.00
    6   19    5     -0.75      0.00
    6   19    3     -1.81      0.00
    6   19    1      0.47      0.00
    6   19   13     -2.35      0.00
    6   19   15      0.72      0.00
    6   18   12      1.14      0.00
    6   18   10     -3.33      0.00
    6   18    8      4.02      0.00
    6   18    6      1.38      0.00
    6   18    4     -1.38      0.00
    6   18    2     -0.95      0.00
    6   18    0     -0.33      0.00
    6   18   14     -5.13      0.00
    6   18   16      2.68      0.00
    6   18   18      1.68      0.00
    6   17   21      0.85      0.00
    6   17   19      4.44      0.00
    6   17   17     -4.56      0.00
    6   17   15     -1.79      0.00
    6   17   13      4.48      0.00
    6   17   11     -1.38      0.00
    6   17    9     -0.36      0.00
    6   17    7      1.01      0.00
    6   17    5      0.36      0.00
    6   17    3     -2.22      0.00
    6   17    1      1.43      0.00
    6   17   23      0.78      0.00
    6   17   25     -2.25      0.00
    6   16   24      3.39      0.00
    6   16   22      1.92      0.00
    6   16   20      1.89      0.00
    6   16   18     -1.64      0.00
    6   16   16     -1.30      0.00
    6   16   14     -0.43      0.00
    6   16   12      2.55      0.00
    6   16   10      0.24      0.00
    6   16    8      0.08      0.00
    6   16    6     -1.11      0.00
    6   16    4      1.85      0.00
    6   16    2      0.34      0.00
    6   16    0     -1.12      0.00
    6   16   26     -5.48      0.00
    6   15   29      2.03      0.00
    6   15   27     -0.04      0.00
    6   15   25     -1.27      0.00
    6   15   23      2.97      0.00
    6   15   21     -3.80      0.00
    6   15   19      2.34      0.00
    6   15   17     -0.51      0.00
    6   15   15      0.80      0.00
    6   15   13      0.60      0.00
    6   15   11      0.55      0.00
    6   15    9     -1.81      0.00
    6   15    7      1.21      0.00
    6   15    5      1.68      0.00
    6   15    3     -0.77      0.00
    6   15    1      0.27      0.00
    6   14   30      2.91      0.00
    6   14   28      1.07      0.00
    6   14   26     -0.92      0.00
    6   14   24      1.43      0.00
    6   14   22      0.38      0.00
    6   14   20     -2.59      0.00
    6   14   18      0.31      0.00
    6   14   16      0.25      0.00
    6   14   14      1.82      0.00
    6   14   12      0.12      0.00
    6   14   10      0.33      0.00
    6   14    8     -1.17      0.00
    6   14    6     -0.24      0.00
    6   14    4     -0.83      0.00
    6   14    2      2.07      0.00
    6   14    0     -1.71      0.00
    6   13   31      2.15      0.00
    6   13   29      0.04      0.00
    6   13   27      1.16      0.00
    6   13   25     -0.98      0.00
    6   13   23      0.61      0.00
    6   13   21      0.57      0.00
    6   13   19     -0.31      0.00
    6   13   17     -1.13      0.00
    6   13   15     -0.14      0.00
    6   13   13      1.95      0.00
    6   13   11      0.64      0.00
    6   13    9     -3.07      0.00
    6   13    7      0.44      0.00
    6   13    5     -0.04      0.00
    6   13    3      0.20      0.00
    6   13    1     -1.00      0.00
    6   12   30      3.23      0.00
    6   12   28      0.39      0.00
    6   12   26     -1.36      0.00
    6   12   24     -0.78      0.00
    6   12   22      1.62      0.00
    6   12   20     -0.57      0.00
    6   12   18      0.42      0.00
    6   12   16     -1.59      0.00
    6   12   14      2.15      0.00
    6   12   12     -0.28      0.00
    6   12   10     -0.98      0.00
    6   12    8     -1.31      0.00
    6   12    6     -0.80      0.00
    6   12    4      0.26      0.00
    6   12    2     -0.79      0.00
    6   11   31      3.22      0.00
    6   11   29     -2.71      0.00
    6   11   27     -0.65      0.00
    6   11   25      0.40      0.00
    6   11   23     -1.85      0.00
    6   11   21      1.52      0.00
    6   11   19      1.40      0.00
    6   11   17      0.24      0.00
    6   11   15     -0.11      0.00
    6   11   13     -2.04      0.00
    6   11   11     -0.24      0.00
    6   11    9      0.51      0.00
    6   11    7     -1.29      0.00
    6   11    5      0.48      0.00
    6   11    3      0.90      0.00
    6   11    1     -1.42      0.00
    6   10   32      0.02      0.00
    6   10   30     -0.86      0.00
    6   10   28      0.12      0.00
    6   10   26      0.18      0.00
    6   10   24     -3.40      0.00
    6   10   22      0.40      0.00
    6   10   20      2.17      0.00
    6   10   18      1.34      0.00
    6   10   16     -0.49      0.00
    6   10   14     -0.98      0.00
    6   10   12     -0.84      0.00
    6   10   10     -0.02      0.00
    6   10    8     -1.06      0.00
    6   10    6      2.41      0.00
    6   10    4      0.71      0.00
    6   10    2     -1.25      0.00
    6   10    0      0.66      0.00
    6    9   31     -0.76      0.00
    6    9   29      1.76      0.00
    6    9   27      0.91      0.00
    6    9   25     -0.71      0.00
    6    9   23     -1.43      0.00
    6    9   21     -1.09      0.00
    6    9   19      0.42      0.00
    6    9   17      1.49      0.00
    6    9   15      0.83      0.00
    6    9   13     -0.23      0.00
    6    9   11      0.00      0.00
    6    9    9     -0.89      0.00
    6    9    7      0.13      0.00
    6    9    5      0.11      0.00
    6    9    3      5.51      0.00
    6    9    1     -3.03      0.00
    6    9   33     -6.07      0.00
    6    8   32     -2.85      0.00
    6    8   30      2.47      0.00
    6    8   28     -0.13      0.00
    6    8   26      1.66      0.00
    6    8   24     -1.52      0.00
    6    8   22      0.11      0.00
    6    8   20     -0.69      0.00
    6    8   18      0.62      0.00
    6    8   16      0.66      0.00
    6    8   14     -0.70      0.00
    6    8   12      0.73      0.00
    6    8   10     -0.74      0.00
    6    8    8      1.68      0.00
    6    8    6      2.59      0.00
    6    8    4      0.31      0.00
    6    8    2     -2.84      0.00
    6    8    0      3.76      0.00
    6    8   34     -2.76      0.00
    6    7   33     -0.37      0.00
    6    7   31     -0.21      0.00
    6    7   29      0.39      0.00
    6    7   27     -0.04      0.00
    6    7   25      0.63      0.00
    6    7   23      0.22      0.00
    6    7   21      0.21      0.00
    6    7   19      0.04      0.00
    6    7   17      0.17      0.00
    6    7   15     -1.03      0.00
    6    7   13      0.79      0.00
    6    7   11      0.70      0.00
    6    7    9      0.55      0.00
    6    7    7      0.95      0.00
    6    7    5      0.53      0.00
    6    7    3     -0.57      0.00
    6    7    1      0.10      0.00
    6    7   35      2.13      0.00
    6    6   32     -3.55      0.00
    6    6   30      1.30      0.00
    6    6   28      3.73      0.00
    6    6   26      1.97      0.00
    6    6   24      0.19      0.00
    6    6   22     -0.60      0.00
    6    6   20     -0.72      0.00
    6    6   18     -1.85      0.00
    6    6   16      1.33      0.00
    6    6   14     -1.84      0.00
    6    6   12      3.59      0.00
    6    6   10      1.66      0.00
    6    6    8     -1.79      0.00
    6    6    6     -3.41      0.00
    6    6    4      4.47      0.00
    6    6    2     -6.09      0.00
    6    6    0      8.14      0.00
    6    6   34     -4.78      0.00
    6    6   36      2.72      0.00
    6    7   37     -4.09      0.00
    6    8   36      3.01      0.00
    6    9   35      6.05      0.00
    6   12    0     -0.01      0.00
    6   20   14     -4.47      0.00
    6   20   12     -0.32      0.00
    6   20   10     -1.99      0.00
    6   20    8      3.97      0.00
    6   21   13      2.46      0.00
    6   21   11     -3.41      0.00
    6   21    9     -4.47      0.00
    6   21    7      6.11      0.00
    6   21    5      5.98      0.00
    6   21    3     -2.02      0.00
    7   19   10      1.78      0.00
    7   19    8     -0.91      0.00
    7   19    6     -1.13      0.00
    7   19    4      0.40      0.00
    7   19    2     -0.20      0.00
    7   19    0      1.93      0.00
    7   19   12     -1.31      0.00
    7   18   17      2.33      0.00
    7   18   15      0.40      0.00
    7   18   13     -1.76      0.00
    7   18   11      2.10      0.00
    7   18    9      1.17      0.00
    7   18    7     -2.85      0.00
    7   18    5      1.28      0.00
    7   18    3     -2.55      0.00
    7   18    1      2.13      0.00
    7   17   20     -2.01      0.00
    7   17   18      4.17      0.00
    7   17   16      0.36      0.00
    7   17   14      0.89      0.00
    7   17   12     -2.61      0.00
    7   17   10      4.26      0.00
    7   17    8     -3.11      0.00
    7   17    6     -0.45      0.00
    7   17    4     -1.93      0.00
    7   17    2     -0.02      0.00
    7   17    0      4.22      0.00
    7   17   22     -1.80      0.00
    7   16   25     -2.32      0.00
    7   16   23      1.92      0.00
    7   16   21      1.18      0.00
    7   16   19     -2.91      0.00
    7   16   17      0.39      0.00
    7   16   15      3.50      0.00
    7   16   13     -1.73      0.00
    7   16   11     -0.35      0.00
    7   16    9      0.38      0.00
    7   16    7     -0.49      0.00
    7   16    5     -1.35      0.00
    7   16    3      1.03      0.00
    7   16    1      0.07      0.00
    7   16   27     -0.46      0.00
    7   15   28      4.44      0.00
    7   15   26     -2.29      0.00
    7   15   24     -0.65      0.00
    7   15   22      0.07      0.00
    7   15   20     -0.34      0.00
    7   15   18      0.42      0.00
    7   15   16      1.30      0.00
    7   15   14      0.23      0.00
    7   15   12     -1.53      0.00
    7   15   10     -0.39      0.00
    7   15    8     -0.37      0.00
    7   15    6      1.09      0.00
    7   15    4      1.30      0.00
    7   15    2     -1.70      0.00
    7   15    0      0.58      0.00
    7   14   29     -2.54      0.00
    7   14   27      0.33      0.00
    7   14   25      1.47      0.00
    7   14   23      2.97      0.00
    7   14   21      0.20      0.00
    7   14   19     -2.11      0.00
    7   14   17     -2.03      0.00
    7   14   15      1.19      0.00
    7   14   13      1.76      0.00
    7   14   11     -0.77      0.00
    7   14    9      0.83      0.00
    7   14    7     -1.02      0.00
    7   14    5     -0.44      0.00
    7   14    3      1.70      0.00
    7   14    1     -1.09      0.00
    7   13   30     -7.89      0.00
    7   13   28      0.53      0.00
    7   13   26      3.51      0.00
    7   13   24     -0.12      0.00
    7   13   22      1.38      0.00
    7   13   20      0.46      0.00
    7   13   18     -0.55      0.00
    7   13   16     -0.85      0.00
    7   13   14      0.49      0.00
    7   13   12     -1.65      0.00
    7   13   10      3.07      0.00
    7   13    8     -0.03      0.00
    7   13    6     -0.58      0.00
    7   13    4     -0.34      0.00
    7   13    2     -0.77      0.00
    7   13    0      0.42      0.00
    7   12   29     -0.09      0.00
    7   12   27     -1.45      0.00
    7   12   25      1.79      0.00
    7   12   23      1.79      0.00
    7   12   21     -2.02      0.00
    7   12   19      2.28      0.00
    7   12   17     -0.44      0.00
    7   12   15      0.53      0.00
    7   12   13     -0.49      0.00
    7   12   11      0.17      0.00
    7   12    9     -0.03      0.00
    7   12    7      0.93      0.00
    7   12    5     -2.21      0.00
    7   12    3      0.50      0.00
    7   12    1     -0.42      0.00
    7   12   31     -1.70      0.00
    7   11   30      2.26      0.00
    7   11   28     -3.78      0.00
    7   11   26      0.75      0.00
    7   11   24      1.52      0.00
    7   11   22     -0.29      0.00
    7   11   20      0.12      0.00
    7   11   18      0.51      0.00
    7   11   16      0.72      0.00
    7   11   14     -1.13      0.00
    7   11   12      0.61      0.00
    7   11   10     -0.62      0.00
    7   11    8     -0.03      0.00
    7   11    6     -0.62      0.00
    7   11    4     -0.47      0.00
    7   11    2     -0.25      0.00
    7   11    0     -0.14      0.00
    7   11   32     -0.03      0.00
    7   10   31     -0.32      0.00
    7   10   29     -3.83      0.00
    7   10   27      1.00      0.00
    7   10   25      1.60      0.00
    7   10   23      0.00      0.00
    7   10   21     -0.61      0.00
    7   10   19     -0.25      0.00
    7   10   17     -0.70      0.00
    7   10   15      0.76      0.00
    7   10   13      0.69      0.00
    7   10   11     -0.44      0.00
    7   10    9     -2.08      0.00
    7   10    7      0.52      0.00
    7   10    5     -1.56      0.00
    7   10    3      1.82      0.00
    7   10    1     -0.41      0.00
    7   10   33      3.32      0.00
    7    9   32      0.13      0.00
    7    9   30     -1.60      0.00
    7    9   28      1.13      0.00
    7    9   26     -0.59      0.00
    7    9   24      1.88      0.00
    7    9   22     -1.65      0.00
    7    9   20      0.52      0.00
    7    9   18     -1.52      0.00
    7    9   16      0.26      0.00
    7    9   14     -0.09      0.00
    7    9   12      0.38      0.00
    7    9   10     -0.97      0.00
    7    9    8      0.27      0.00
    7    9    6     -1.22      0.00
    7    9    4      1.93      0.00
    7    9    2     -1.49      0.00
    7    9    0      3.76      0.00
    7    9   34     -0.60      0.00
    7    8   31     -0.63      0.00
    7    8   29     -1.14      0.00
    7    8   27     -0.63      0.00
    7    8   25      2.26      0.00
    7    8   23      0.17      0.00
    7    8   21     -0.63      0.00
    7    8   19      0.08      0.00
    7    8   17     -1.56      0.00
    7    8   15      0.15      0.00
    7    8   13     -0.87      0.00
    7    8   11      1.21      0.00
    7    8    9      1.20      0.00
    7    8    7     -0.39      0.00
    7    8    5      0.69      0.00
    7    8    3     -1.83      0.00
    7    8    1      3.34      0.00
    7    8   33      1.91      0.00
    7    7   32      3.24      0.00
    7    7   30     -1.84      0.00
    7    7   28     -2.17      0.00
    7    7   26     -2.42      0.00
    7    7   24      4.74      0.00
    7    7   22     -1.55      0.00
    7    7   20      0.54      0.00
    7    7   18      0.28      0.00
    7    7   16      0.08      0.00
    7    7   14     -1.54      0.00
    7    7   12      0.26      0.00
    7    7   10      2.47      0.00
    7    7    8      1.60      0.00
    7    7    6     -2.91      0.00
    7    7    4      0.38      0.00
    7    7    2      3.29      0.00
    7    7    0     -0.41      0.00
    7    7   34      3.56      0.00
    0    7   37      0.06      0.00
    7    7   36     -1.95      0.00
    7    8   35     -1.54      0.00
    7   19   16     -2.40      0.00
    7   19   14      4.33      0.00
    7   20   13      0.72      0.00
    7   20   11     -2.50      0.00
    7   20    9      7.53      0.00
    7   20    7     -2.22      0.00
    7   20    5     -2.36      0.00
    7   20    3      0.38      0.00
    7   20    1      1.41      0.00
    7   21   12     -3.65      0.00
    7   21   10      3.50      0.00
    7   21    8     -1.57      0.00
    7   21    6      2.73      0.00
    8   19    5      4.03      0.00
    8   19    3     -2.73      0.00
    8   19    1      0.31      0.00
    8   19    7      0.92      0.00
    8   18   14     -0.13      0.00
    8   18   12     -2.03      0.00
    8   18   10      2.67      0.00
    8   18    8     -0.69      0.00
    8   18    6      1.94      0.00
    8   18    4      0.83      0.00
    8   18    2     -1.42      0.00
    8   18    0     -0.99      0.00
    8   18   16      2.03      0.00
    8   17   19      3.73      0.00
    8   17   17     -3.30      0.00
    8   17   15     -1.28      0.00
    8   17   13      1.38      0.00
    8   17   11     -0.55      0.00
    8   17    9      1.02      0.00
    8   17    7      0.32      0.00
    8   17    5     -0.42      0.00
    8   17    3     -0.90      0.00
    8   17    1     -0.41      0.00
    8   17   21      1.73      0.00
    8   16   24      2.53      0.00
    8   16   22      1.61      0.00
    8   16   20      1.01      0.00
    8   16   18     -3.03      0.00
    8   16   16     -2.29      0.00
    8   16   14      1.76      0.00
    8   16   12      0.19      0.00
    8   16   10      0.00      0.00
    8   16    8      0.62      0.00
    8   16    6     -3.71      0.00
    8   16    4      2.29      0.00
    8   16    2     -1.15      0.00
    8   16    0     -1.13      0.00
    8   15   27      0.53      0.00
    8   15   25     -0.98      0.00
    8   15   23      0.64      0.00
    8   15   21     -0.91      0.00
    8   15   19      2.56      0.00
    8   15   17     -1.07      0.00
    8   15   15      0.19      0.00
    8   15   13     -3.55      0.00
    8   15   11      0.39      0.00
    8   15    9      2.29      0.00
    8   15    7     -3.53      0.00
    8   15    5      1.78      0.00
    8   15    3      0.06      0.00
    8   15    1     -1.45      0.00
    8   14   28     -1.54      0.00
    8   14   26      1.16      0.00
    8   14   24      0.00      0.00
    8   14   22      1.06      0.00
    8   14   20     -0.03      0.00
    8   14   18     -1.18      0.00
    8   14   16      0.17      0.00
    8   14   14      0.24      0.00
    8   14   12      1.36      0.00
    8   14   10     -1.71      0.00
    8   14    8     -0.40      0.00
    8   14    6      0.20      0.00
    8   14    4     -0.74      0.00
    8   14    2      0.06      0.00
    8   14    0      0.97      0.00
    8   13   29     -2.90      0.00
    8   13   27      3.36      0.00
    8   13   25     -1.17      0.00
    8   13   23     -0.56      0.00
    8   13   21      1.32      0.00
    8   13   19      0.92      0.00
    8   13   17     -0.52      0.00
    8   13   15      0.12      0.00
    8   13   13      0.69      0.00
    8   13   11      0.82      0.00
    8   13    9      0.30      0.00
    8   13    7     -0.58      0.00
    8   13    5     -0.84      0.00
    8   13    3      1.11      0.00
    8   13    1      0.06      0.00
    8   12   30      0.32      0.00
    8   12   28      0.18      0.00
    8   12   26     -0.64      0.00
    8   12   24      0.30      0.00
    8   12   22      0.72      0.00
    8   12   20     -0.46      0.00
    8   12   18      1.90      0.00
    8   12   16     -0.47      0.00
    8   12   14      2.28      0.00
    8   12   12      0.09      0.00
    8   12   10     -0.86      0.00
    8   12    8      0.95      0.00
    8   12    6     -0.20      0.00
    8   12    4     -0.33      0.00
    8   12    2     -0.62      0.00
    8   12    0      2.15      0.00
    8   11   29      0.85      0.00
    8   11   27     -0.86      0.00
    8   11   25      0.32      0.00
    8   11   23      0.09      0.00
    8   11   21      1.43      0.00
    8   11   19      0.88      0.00
    8   11   17     -0.07      0.00
    8   11   15     -0.46      0.00
    8   11   13     -0.08      0.00
    8   11   11      0.84      0.00
    8   11    9     -0.29      0.00
    8   11    7      0.30      0.00
    8   11    5      0.49      0.00
    8   11    3     -0.44      0.00
    8   11    1     -0.63      0.00
    8   11   31      0.15      0.00
    8   10   30     -5.05      0.00
    8   10   28      0.69      0.00
    8   10   26      0.11      0.00
    8   10   24      2.44      0.00
    8   10   22     -1.74      0.00
    8   10   20      1.07      0.00
    8   10   18     -0.60      0.00
    8   10   16      0.26      0.00
    8   10   14      0.02      0.00
    8   10   12     -1.09      0.00
    8   10   10     -0.59      0.00
    8   10    8     -0.23      0.00
    8   10    6      0.22      0.00
    8   10    4     -0.42      0.00
    8   10    2     -0.52      0.00
    8   10    0      0.45      0.00
    8   10   32      5.98      0.00
    8    9   31      0.02      0.00
    8    9   29      2.31      0.00
    8    9   27     -1.39      0.00
    8    9   25      1.22      0.00
    8    9   23      0.25      0.00
    8    9   21     -0.24      0.00
    8    9   19      0.09      0.00
    8    9   17     -1.41      0.00
    8    9   15     -0.33      0.00
    8    9   13     -0.88      0.00
    8    9   11     -0.70      0.00
    8    9    9     -1.28      0.00
    8    9    7      0.20      0.00
    8    9    5      0.96      0.00
    8    9    3      0.11      0.00
    8    9    1     -0.45      0.00
    8    9   33     -1.46      0.00
    8    8   30     -0.52      0.00
    8    8   28     -1.64      0.00
    8    8   26      2.11      0.00
    8    8   24      1.17      0.00
    8    8   22      0.44      0.00
    8    8   20     -1.71      0.00
    8    8   18     -2.32      0.00
    8    8   16      0.56      0.00
    8    8   14     -0.20      0.00
    8    8   12      0.52      0.00
    8    8   10     -1.95      0.00
    8    8    8      0.58      0.00
    8    8    6     -1.18      0.00
    8    8    4      0.80      0.00
    8    8    2      4.18      0.00
    8    8    0     -4.55      0.00
    8    8   32      3.03      0.00
    8    8   34     -3.85      0.00
    1    8   37     -2.78      0.00
    8   19   13     -8.51      0.00
    8   19   11      2.86      0.00
    8   19    9     -0.12      0.00
    8   20   12     -2.82      0.00
    8   20   10      5.93      0.00
    8   20    8     -0.85      0.00
    8   20    6      0.23      0.00
    8   20    4      2.10      0.00
    8   20    2     -0.75      0.00
    8   20    0     -0.65      0.00
    9   18   13      1.79      0.00
    9   18   11      0.51      0.00
    9   18    9      2.28      0.00
    9   18    7     -5.50      0.00
    9   18    5      2.94      0.00
    9   18    3      0.58      0.00
    9   18    1     -0.06      0.00
    9   17   18      0.85      0.00
    9   17   16      1.55      0.00
    9   17   14     -1.71      0.00
    9   17   12      1.09      0.00
    9   17   10     -0.20      0.00
    9   17    8     -0.23      0.00
    9   17    6      1.44      0.00
    9   17    4     -2.74      0.00
    9   17    2     -0.40      0.00
    9   17    0      1.92      0.00
    9   16   23      4.05      0.00
    9   16   21     -2.65      0.00
    9   16   19      0.60      0.00
    9   16   17     -0.69      0.00
    9   16   15     -1.15      0.00
    9   16   13      0.73      0.00
    9   16   11      0.77      0.00
    9   16    9     -1.25      0.00
    9   16    7     -0.35      0.00
    9   16    5     -2.39      0.00
    9   16    3     -0.43      0.00
    9   16    1      0.49      0.00
    9   15   26     -8.86      0.00
    9   15   24      6.76      0.00
    9   15   22     -0.72      0.00
    9   15   20     -0.27      0.00
    9   15   18      0.05      0.00
    9   15   16     -0.47      0.00
    9   15   14     -0.35      0.00
    9   15   12     -2.05      0.00
    9   15   10     -0.98      0.00
    9   15    8     -0.37      0.00
    9   15    6      1.25      0.00
    9   15    4     -0.65      0.00
    9   15    2     -2.28      0.00
    9   15    0      0.95      0.00
    9   14   27     -1.81      0.00
    9   14   25     -2.00      0.00
    9   14   23      4.93      0.00
    9   14   21     -1.78      0.00
    9   14   19     -1.39      0.00
    9   14   17      1.38      0.00
    9   14   15     -1.66      0.00
    9   14   13      2.34      0.00
    9   14   11     -1.75      0.00
    9   14    9     -2.42      0.00
    9   14    7      0.61      0.00
    9   14    5      0.72      0.00
    9   14    3     -0.28      0.00
    9   14    1     -0.47      0.00
    9   13   28      0.96      0.00
    9   13   26     -0.76      0.00
    9   13   24      3.08      0.00
    9   13   22     -1.20      0.00
    9   13   20     -1.82      0.00
    9   13   18      2.81      0.00
    9   13   16     -1.18      0.00
    9   13   14      2.39      0.00
    9   13   12     -2.45      0.00
    9   13   10      1.55      0.00
    9   13    8     -1.72      0.00
    9   13    6      1.58      0.00
    9   13    4      0.94      0.00
    9   13    2      0.45      0.00
    9   13    0     -1.98      0.00
    9   12   29     -0.30      0.00
    9   12   27      1.05      0.00
    9   12   25     -0.76      0.00
    9   12   23     -0.95      0.00
    9   12   21     -0.77      0.00
    9   12   19      1.79      0.00
    9   12   17      2.21      0.00
    9   12   15      0.35      0.00
    9   12   13      0.09      0.00
    9   12   11     -0.60      0.00
    9   12    9      0.92      0.00
    9   12    7      1.33      0.00
    9   12    5      0.13      0.00
    9   12    3     -2.31      0.00
    9   12    1      2.44      0.00
    9   11   28     -0.33      0.00
    9   11   26     -0.34      0.00
    9   11   24      0.50      0.00
    9   11   22     -0.98      0.00
    9   11   20      2.56      0.00
    9   11   18      0.80      0.00
    9   11   16     -1.09      0.00
    9   11   14     -0.11      0.00
    9   11   12      0.67      0.00
    9   11   10      0.82      0.00
    9   11    8      0.80      0.00
    9   11    6      0.33      0.00
    9   11    4      0.40      0.00
    9   11    2     -0.04      0.00
    9   11    0     -1.02      0.00
    9   11   30      3.76      0.00
    9   10   29     -3.01      0.00
    9   10   27      2.38      0.00
    9   10   25      2.09      0.00
    9   10   23     -0.36      0.00
    9   10   21     -0.41      0.00
    9   10   19     -0.61      0.00
    9   10   17     -0.06      0.00
    9   10   15      0.13      0.00
    9   10   13      0.18      0.00
    9   10   11      0.28      0.00
    9   10    9      0.46      0.00
    9   10    7     -0.09      0.00
    9   10    5     -2.05      0.00
    9   10    3      0.04      0.00
    9   10    1      0.72      0.00
    9   10   31      2.61      0.00
    9   10   33      2.43      0.00
    9    9   30      1.40      0.00
    9    9   28      2.26      0.00
    9    9   26      1.92      0.00
    9    9   24     -1.08      0.00
    9    9   22      1.04      0.00
    9    9   20     -0.14      0.00
    9    9   18     -0.94      0.00
    9    9   16     -1.91      0.00
    9    9   14     -0.07      0.00
    9    9   12      0.14      0.00
    9    9   10     -0.98      0.00
    9    9    8      0.10      0.00
    9    9    6     -1.02      0.00
    9    9    4      1.16      0.00
    9    9    2     -0.10      0.00
    9    9    0     -2.19      0.00
    9    9   32     -3.55      0.00
    1    9   36      1.17      0.00
    2    9   37     -1.53      0.00
    9   18   15      1.43      0.00
    9   19   12      0.94      0.00
    9   19    8      6.46      0.00
    9   19    6     -1.92      0.00
    9   19    4      0.33      0.00
    9   19    2      1.14      0.00
    9   19    0     -0.21      0.00
    9   20    7     -2.63      0.00
    9   20    5      0.25      0.00
    9   20    3      4.36      0.00
   10   18    8     -3.63      0.00
   10   18    6      1.89      0.00
   10   18    4      2.52      0.00
   10   18    2     -0.47      0.00
   10   18    0     -1.94      0.00
   10   17   15     -0.39      0.00
   10   17   13      1.05      0.00
   10   17   11      0.51      0.00
   10   17    9     -1.16      0.00
   10   17    7      1.91      0.00
   10   17    5     -0.96      0.00
   10   17    3      0.26      0.00
   10   17    1     -0.29      0.00
   10   16   20     -0.78      0.00
   10   16   18     -0.17      0.00
   10   16   16     -1.22      0.00
   10   16   14      1.06      0.00
   10   16   12     -0.05      0.00
   10   16   10      1.84      0.00
   10   16    8      0.28      0.00
   10   16    6     -7.60      0.00
   10   16    4      3.34      0.00
   10   16    2      0.16      0.00
   10   16    0      0.67      0.00
   10   15   25     -2.20      0.00
   10   15   23      0.67      0.00
   10   15   21      3.94      0.00
   10   15   19     -5.44      0.00
   10   15   17      2.84      0.00
   10   15   15      1.54      0.00
   10   15   13     -4.16      0.00
   10   15   11     -0.05      0.00
   10   15    9      1.31      0.00
   10   15    7     -3.17      0.00
   10   15    5      0.96      0.00
   10   15    3     -0.48      0.00
   10   15    1     -0.29      0.00
   10   14   26     -2.29      0.00
   10   14   24     -5.85      0.00
   10   14   22      3.86      0.00
   10   14   20      5.16      0.00
   10   14   18     -3.38      0.00
   10   14   16     -0.81      0.00
   10   14   14     -1.50      0.00
   10   14   12      1.04      0.00
   10   14   10     -1.29      0.00
   10   14    8     -0.44      0.00
   10   14    6     -1.36      0.00
   10   14    4      1.48      0.00
   10   14    2     -0.61      0.00
   10   14    0     -0.89      0.00
   10   13   27     -0.93      0.00
   10   13   25     -0.38      0.00
   10   13   23     -0.36      0.00
   10   13   21      2.05      0.00
   10   13   19      0.27      0.00
   10   13   17     -0.27      0.00
   10   13   15     -2.08      0.00
   10   13   13     -0.44      0.00
   10   13   11      1.03      0.00
   10   13    9     -0.09      0.00
   10   13    7      0.90      0.00
   10   13    5     -0.24      0.00
   10   13    3     -1.72      0.00
   10   13    1      1.03      0.00
   10   12   28      0.26      0.00
   10   12   26      2.57      0.00
   10   12   24     -2.59      0.00
   10   12   22      0.74      0.00
   10   12   20     -0.58      0.00
   10   12   18      0.32      0.00
   10   12   16      0.25      0.00
   10   12   14      0.36      0.00
   10   12   12      0.08      0.00
   10   12   10      2.01      0.00
   10   12    8     -0.69      0.00
   10   12    6     -0.89      0.00
   10   12    4      0.77      0.00
   10   12    2      1.38      0.00
   10   12    0     -1.50      0.00
   10   11   27      0.91      0.00
   10   11   25      0.88      0.00
   10   11   23      0.55      0.00
   10   11   21     -0.03      0.00
   10   11   19     -0.59      0.00
   10   11   17      0.22      0.00
   10   11   15     -0.59      0.00
   10   11   13      0.53      0.00
   10   11   11      2.59      0.00
   10   11    9     -0.61      0.00
   10   11    7      1.10      0.00
   10   11    5     -0.55      0.00
   10   11    3      1.39      0.00
   10   11    1     -0.75      0.00
   10   11   29      0.44      0.00
   10   10   28      1.34      0.00
   10   10   26      3.23      0.00
   10   10   24      2.97      0.00
   10   10   22     -2.00      0.00
   10   10   20     -2.75      0.00
   10   10   18     -0.14      0.00
   10   10   16      1.59      0.00
   10   10   14      0.33      0.00
   10   10   12      1.16      0.00
   10   10   10      2.57      0.00
   10   10    8     -2.15      0.00
   10   10    6     -0.27      0.00
   10   10    4     -2.06      0.00
   10   10    2      0.84      0.00
   10   10    0      2.88      0.00
   10   10   30     -5.22      0.00
   10   10   32      7.78      0.00
    8   10   34     -0.07      0.00
    6   10   34      0.18      0.00
    4   10   36      5.17      0.00
    2   10   36      2.66      0.00
   10   18   14      3.35      0.00
   10   18   12     -0.69      0.00
   10   18   10      2.45      0.00
   10   19   11      3.80      0.00
   10   19    9     -1.98      0.00
   10   19    7      1.67      0.00
   10   19    5      4.26      0.00
   10   19    3     -0.78      0.00
   10   19    1     -1.74      0.00
   10   20   10      5.07      0.00
   10   20    6      0.55      0.00
   11   17   12      1.32      0.00
   11   17   10     -0.85      0.00
   11   17    8      0.50      0.00
   11   17    6      3.89      0.00
   11   17    4     -0.51      0.00
   11   17    2     -0.39      0.00
   11   17    0     -1.68      0.00
   11   16   19      9.38      0.00
   11   16   17     -5.08      0.00
   11   16   15     -0.59      0.00
   11   16   13     -0.96      0.00
   11   16   11     -0.05      0.00
   11   16    9      1.20      0.00
   11   16    7      2.40      0.00
   11   16    5     -1.99      0.00
   11   16    3      0.27      0.00
   11   16    1      0.34      0.00
   11   15   22     -2.78      0.00
   11   15   20      1.99      0.00
   11   15   18      1.90      0.00
   11   15   16      1.25      0.00
   11   15   14     -3.87      0.00
   11   15   12     -1.58      0.00
   11   15   10      1.85      0.00
   11   15    8      1.60      0.00
   11   15    6     -0.97      0.00
   11   15    4     -1.65      0.00
   11   15    2      0.02      0.00
   11   15    0      2.11      0.00
   11   14   25     -4.02      0.00
   11   14   23      2.26      0.00
   11   14   21      0.76      0.00
   11   14   19      0.50      0.00
   11   14   17     -1.74      0.00
   11   14   15      1.19      0.00
   11   14   13     -0.59      0.00
   11   14   11     -1.37      0.00
   11   14    9      0.09      0.00
   11   14    7     -1.07      0.00
   11   14    5      0.25      0.00
   11   14    3     -0.04      0.00
   11   14    1     -0.24      0.00
   11   13   26      0.13      0.00
   11   13   24     -0.90      0.00
   11   13   22      2.59      0.00
   11   13   20     -4.99      0.00
   11   13   18      2.24      0.00
   11   13   16      0.25      0.00
   11   13   14     -0.96      0.00
   11   13   12     -0.55      0.00
   11   13   10      1.87      0.00
   11   13    8     -1.83      0.00
   11   13    6     -1.15      0.00
   11   13    4     -2.08      0.00
   11   13    2      1.04      0.00
   11   13    0      1.44      0.00
   11   12   27      4.13      0.00
   11   12   25     -2.63      0.00
   11   12   23     -1.45      0.00
   11   12   21      0.64      0.00
   11   12   19     -0.01      0.00
   11   12   17     -0.58      0.00
   11   12   15      0.25      0.00
   11   12   13     -0.39      0.00
   11   12   11      0.69      0.00
   11   12    9     -0.68      0.00
   11   12    7     -0.09      0.00
   11   12    5     -0.82      0.00
   11   12    3      1.57      0.00
   11   12    1     -1.18      0.00
   11   11   26     -4.33      0.00
   11   11   24     -0.68      0.00
   11   11   22     -0.28      0.00
   11   11   20      4.86      0.00
   11   11   18     -0.53      0.00
   11   11   16     -2.84      0.00
   11   11   14     -0.81      0.00
   11   11   12      0.60      0.00
   11   11   10      0.94      0.00
   11   11    8      1.71      0.00
   11   11    6      1.58      0.00
   11   11    4     -1.56      0.00
   11   11    2     -3.87      0.00
   11   11    0      6.71      0.00
   11   11   28      2.22      0.00
    6   11   33      0.27      0.00
    5   11   34      4.38      0.00
    0   11   35     -3.49      0.00
   11   17   14     -3.01      0.00
   11   18   13     -0.96      0.00
   11   18   11     -1.03      0.00
   11   18    9      2.12      0.00
   11   18    7     -0.79      0.00
   11   18    5      0.07      0.00
   11   18    3     -1.13      0.00
   11   18    1      1.48      0.00
   11   19    8      3.48      0.00
   11   19    6     -4.70      0.00
   11   19    4      2.21      0.00
   11   19    2     -0.80      0.00
   11   19    0      0.96      0.00
   11   20    7      0.71      0.00
   12   17    7      1.57      0.00
   12   17    5     -2.98      0.00
   12   17    3      2.10      0.00
   12   17    1      0.37      0.00
   12   16   16      2.98      0.00
   12   16   14     -1.17      0.00
   12   16   12     -1.96      0.00
   12   16   10      4.50      0.00
   12   16    8      0.14      0.00
   12   16    6     -5.02      0.00
   12   16    4      3.00      0.00
   12   16    2     -0.06      0.00
   12   16    0      3.31      0.00
   12   15   21     -1.50      0.00
   12   15   19      0.15      0.00
   12   15   17      5.30      0.00
   12   15   15     -0.98      0.00
   12   15   13     -1.05      0.00
   12   15   11      1.50      0.00
   12   15    9     -0.08      0.00
   12   15    7     -0.40      0.00
   12   15    5     -2.75      0.00
   12   15    3      4.73      0.00
   12   15    1     -0.72      0.00
   12   14   22     -2.94      0.00
   12   14   20      2.65      0.00
   12   14   18      0.14      0.00
   12   14   16     -0.46      0.00
   12   14   14      2.16      0.00
   12   14   12     -1.87      0.00
   12   14   10     -2.27      0.00
   12   14    8      0.14      0.00
   12   14    6      3.27      0.00
   12   14    4      0.84      0.00
   12   14    2     -1.43      0.00
   12   14    0     -1.68      0.00
   12   13   23     -1.44      0.00
   12   13   21     -0.73      0.00
   12   13   19      1.36      0.00
   12   13   17      0.64      0.00
   12   13   15     -3.09      0.00
   12   13   13      0.62      0.00
   12   13   11      1.01      0.00
   12   13    9     -1.36      0.00
   12   13    7      0.97      0.00
   12   13    5     -2.30      0.00
   12   13    3      0.29      0.00
   12   13    1     -0.33      0.00
   12   12   24      1.48      0.00
   12   12   22     -6.33      0.00
   12   12   20      3.74      0.00
   12   12   18     -0.32      0.00
   12   12   16     -2.37      0.00
   12   12   14      1.32      0.00
   12   12   12     -2.93      0.00
   12   12   10      1.20      0.00
   12   12    8     -1.05      0.00
   12   12    6      1.24      0.00
   12   12    4      1.50      0.00
   12   12    2     -3.11      0.00
   12   12    0     -0.89      0.00
   12   17    9     -0.91      0.00
   12   18   10      0.12      0.00
   12   18    8     -1.79      0.00
   12   18    6      2.10      0.00
   12   18    4      0.61      0.00
   12   18    2      0.39      0.00
   12   18    0     -3.51      0.00
   12   19    5      4.13      0.00
   12   19    3      2.99      0.00
   13   16   11      0.05      0.00
   13   16    9     -0.74      0.00
   13   16    7      2.08      0.00
   13   16    5      2.24      0.00
   13   16    3      5.80      0.00
   13   16    1     -6.14      0.00
   13   15   18     -2.87      0.00
   13   15   16     -0.12      0.00
   13   15   14     -1.27      0.00
   13   15   12      2.63      0.00
   13   15   10     -0.83      0.00
   13   15    8      1.45      0.00
   13   15    6      0.38      0.00
   13   15    4      3.38      0.00
   13   15    2     -3.89      0.00
   13   15    0      4.14      0.00
   13   14   21      3.14      0.00
   13   14   19     -3.61      0.00
   13   14   17      1.02      0.00
   13   14   15      1.68      0.00
   13   14   13      0.67      0.00
   13   14   11     -0.60      0.00
   13   14    9      0.49      0.00
   13   14    7     -0.49      0.00
   13   14    5      3.27      0.00
   13   14    3     -1.88      0.00
   13   14    1      0.43      0.00
   13   13   22      8.46      0.00
   13   13   20     -3.81      0.00
   13   13   18     -3.11      0.00
   13   13   16      2.62      0.00
   13   13   14     -1.11      0.00
   13   13   12      3.94      0.00
   13   13   10      1.03      0.00
   13   13    8     -3.27      0.00
   13   13    6     -3.06      0.00
   13   13    4      1.09      0.00
   13   13    2     -0.71      0.00
   13   13    0      3.66      0.00
   13   17   10     -8.44      0.00
   13   17    6      3.82      0.00
   13   17    4     -0.58      0.00
   13   17    2     -1.26      0.00
   13   17    0     -1.77      0.00
   13   18    9      1.21      0.00
   13   18    7     -3.73      0.00
   13   18    5      3.33      0.00
   13   18    3      0.22      0.00
   13   18    1     -2.41      0.00
   13   19    6    -10.47      0.00
   14   15   13      1.35      0.00
   14   15   11      0.17      0.00
   14   15    9      1.31      0.00
   14   15    7     -0.01      0.00
   14   15    5      1.37      0.00
   14   15    3     -1.90      0.00
   14   15    1      1.75      0.00
   14   14   20     -5.81      0.00
   14   14   18      3.56      0.00
   14   14   16      0.87      0.00
   14   14   14      3.82      0.00
   14   14   12     -0.42      0.00
   14   14   10     -3.64      0.00
   14   14    8      3.67      0.00
   14   14    6      0.81      0.00
   14   14    4     -0.60      0.00
   14   14    2      6.24      0.00
   14   14    0    -10.11      0.00
   14   16   10      3.09      0.00
   14   16    6     -6.21      0.00
   14   16    4      4.93      0.00
   14   16    2      0.23      0.00
   14   16    0     -2.19      0.00
   14   17    7      0.18      0.00
   14   17    5     -1.56      0.00
   14   17    3     -8.20      0.00
   14   17    1      6.77      0.00
   14   18    6     -1.28      0.00
   13   15   20      8.91      0.00
   15   15   10      3.47      0.00
   15   15    8     -1.87      0.00
   15   15    6      4.89      0.00
   15   15    4     -2.02      0.00
   15   15    2     -1.17      0.00
   15   15    0      0.40      0.00
   15   16    7      3.59      0.00
   15   16    5     -3.06      0.00
   15   16    3      7.40      0.00
   15   16    1     -6.25      0.00
   15   17    6      5.55      0.00
   15   17    4     -8.71      0.00
   15   17    2      3.24      0.00
   12   16   20     -3.54      0.00
   12   16   18      2.97      0.00
   14   16    8      1.08      0.00
   16   16    6     -5.88      0.00
   16   16    4      8.71      0.00
   16   16    2     -4.91      0.00
   12   17   13      0.90      0.00
   12   17   11      1.53      0.00
   11   17   18     -0.09      0.00
   11   17   16      1.93      0.00
   10   17   19     -4.23      0.00
   10   17   17      1.77      0.00
   13   17    8      4.36      0.00
   11   18   15      5.83      0.00
   10   18   16      0.91      0.00
    9   18   17      1.92      0.00
   14   18    4      1.37      0.00
   14   18    2     -0.39      0.00
   10   19   15      4.19      0.00
   10   19   13     -4.88      0.00
    9   19   16      0.88      0.00
    9   19   14      3.85      0.00
    9   19   10     -5.48      0.00
    8   19   15      7.83      0.00
    6   19   17     -1.22      0.00
   12   19    1     -5.82      0.00
   13   19    4      4.36      0.00
    9   20   13      6.01      0.00
    9   20   11     -5.98      0.00
    9   20    9      6.88      0.00
    8   20   14     -3.41      0.00
    9   20    1     -2.72      0.00
   10   20    4      3.16      0.00
   10   20    2     -1.19      0.00
   10   20    0     -1.41      0.00
   11   20    3      2.18      0.00
    5   21    2     -0.37      0.00
    5   21    0      5.64      0.00
    6   21    1     -2.73      0.00
    7   21    4      2.60      0.00
    7   21    2     -3.03      0.00
    7   21    0      0.36      0.00
    8   21    5     10.48      0.00
    8   21    3     -3.10      0.00
    8   21    1     -2.19      0.00
    9   21    4      3.59      0.00
    9   21    2     -2.49      0.00
    4   22    8      7.62      0.00
    3   22    9      0.36      0.00
    2   22   10      0.14      0.00
    2   22    8      3.13      0.00
    2   22    6     -1.70      0.00
    2   22    4     -0.08      0.00
    2   22    2      1.72      0.00
    1   22    9     -3.73      0.00
    1   22    7     11.72      0.00
    1   22    5     -5.44      0.00
    1   22    3     -1.79      0.00
    1   22    1      1.08      0.00
    0   22    8      3.36      0.00
    0   22    6     -1.14      0.00
    0   22    4     -3.43      0.00
    0   22    0      1.04      0.00
    2   22    0     -2.25      0.00
    3   22    7     -0.55      0.00
    3   22    5      2.77      0.00
    3   22    3     -1.88      0.00
    3   22    1      1.37      0.00
    4   22    6     -5.91      0.00
    4   22    4      4.10      0.00
    4   22    2      2.13      0.00
    4   22    0     -4.72      0.00
    5   22    5     -0.62      0.00
    5   22    3      0.71      0.00
    5   22    1      2.08      0.00
    6   22    2      0.59      0.00
    3    3    0    152.49      0.00
    0    1    1      7.71      0.00
    0    0    2   -214.14      0.00
    0    0    0      0.00      0.00
# SQUEEZE RESULTS (Version = 300517)
# Note: Data are Listed for all Voids in the P1 Unit Cell
# i.e. Centre of Gravity, Solvent Accessible Volume,
# Recovered number of Electrons in the Void and
# Details about the Squeezed Material
loop_
  _platon_squeeze_void_nr
  _platon_squeeze_void_average_x
  _platon_squeeze_void_average_y
  _platon_squeeze_void_average_z
  _platon_squeeze_void_volume
  _platon_squeeze_void_count_electrons
  _platon_squeeze_void_content
   1 -0.063 -0.037 -0.002      2647       646 ' '
# Missing Reflections Below sin(th)/lambda = 0.25
loop_
  _platon_missing_refln_index_h
  _platon_missing_refln_index_k
  _platon_missing_refln_index_l
  _platon_missing_refln_theta
    3    3    0     5.743
    0    1    1     1.556
    0    0    2     1.541
_platon_squeeze_void_probe_radius                  1.20
_platon_squeeze_details
)
TITL P17_035Ttg in I4/mmm [Zr6O4(OH)49ndc)4(nbdc)2]
CELL   14.8400   14.8400   26.0300     90.00     90.00     90.00
SPGR I4/mmm
# Solvent Accessible Volume =      2688
# Electrons Found in S.A.V. =       641
# Note: Atoms in Void are Labelled as Cxxx and Qxxx for all Others
C101 0.500 0.508 0.242 !       1.32 eA-3
Q102 1.000 0.684 0.413 !       1.31 eA-3
Q103 0.500 0.809 0.916 !       1.31 eA-3
Q104 0.027 0.298 0.597 !       1.29 eA-3
Q105 0.527 0.798 0.097 !       1.29 eA-3
Q106 0.027 0.704 0.590 !       1.27 eA-3
Q107 0.705 0.996 0.609 !       1.26 eA-3
Q108 0.500 0.503 0.141 !       1.25 eA-3
C109 1.000 0.391 0.188 !       1.14 eA-3
Q110 0.500 0.126 0.089 !       1.10 eA-3
C111 0.466 0.129 0.157 !       1.02 eA-3
C112 0.673 0.021 0.741 !       0.99 eA-3
C113 0.173 0.521 0.241 !       0.99 eA-3
C114 1.000 0.658 0.224 !       0.98 eA-3
C115 0.500 0.098 0.150 !       0.98 eA-3
Q116 0.210 0.465 0.136 !       0.98 eA-3
C117 1.000 0.372 0.263 !       0.96 eA-3
C118 0.500 0.156 0.175 !       0.96 eA-3
C119 0.500 0.827 0.135 !       0.95 eA-3
C120 0.670 1.000 0.297 !       0.94 eA-3
C121 0.500 0.107 0.174 !       0.93 eA-3
Q122 0.801 0.204 0.443 !       0.93 eA-3
C123 0.500 0.501 0.273 !       0.90 eA-3
C124 0.386 0.969 0.165 !       0.89 eA-3
C125 0.344 1.003 0.141 !       0.89 eA-3
C126 0.028 0.408 0.264 !       0.88 eA-3
C127 0.528 0.908 0.764 !       0.88 eA-3
C128 0.804 0.499 0.281 !       0.88 eA-3
Q129 0.468 0.470 0.164 !       0.88 eA-3
C130 0.500 0.156 0.338 !       0.87 eA-3
C131 0.923 0.454 0.157 !       0.87 eA-3
C132 0.595 0.047 0.198 !       0.87 eA-3
Q133 0.099 0.390 0.070 !       0.86 eA-3
C134 0.580 0.078 0.251 !       0.86 eA-3
Q135 0.112 0.433 0.078 !       0.84 eA-3
C136 0.580 0.048 0.319 !       0.83 eA-3
C137 0.500 0.779 0.358 !       0.83 eA-3
C138 1.000 0.279 0.858 !       0.83 eA-3
C139 0.500 0.887 0.203 !       0.82 eA-3
C140 0.500 0.894 0.797 !       0.82 eA-3
C141 0.609 0.997 0.703 !       0.82 eA-3
C142 0.517 0.203 0.178 !       0.80 eA-3
Q143 0.176 0.171 0.010 !       0.80 eA-3
C144 0.500 0.926 0.202 !       0.80 eA-3
C145 0.158 0.531 0.771 !       0.79 eA-3
C146 0.817 0.469 0.164 !       0.77 eA-3
C147 0.972 0.657 0.195 !       0.77 eA-3
C148 0.472 0.157 0.695 !       0.77 eA-3
C149 0.028 0.343 0.805 !       0.77 eA-3
Q150 0.061 0.297 0.349 !       0.76 eA-3
C151 1.000 0.563 0.213 !       0.76 eA-3
C152 0.529 0.096 0.271 !       0.73 eA-3
C153 0.618 0.940 0.236 !       0.72 eA-3
Q154 0.390 0.389 0.046 !       0.72 eA-3
Q155 0.303 1.000 0.086 !       0.72 eA-3
Q156 0.357 0.108 0.313 !       0.71 eA-3
Q157 0.500 0.531 0.000 !       0.71 eA-3
C158 1.000 1.000 0.000 !       0.71 eA-3
Q159 0.986 0.005 0.452 !       0.71 eA-3
C160 0.091 0.424 0.651 !       0.70 eA-3
C161 0.591 0.924 0.151 !       0.70 eA-3
Q162 0.564 0.499 0.156 !       0.69 eA-3
C163 1.000 0.299 0.179 !       0.69 eA-3
C164 0.139 0.403 0.113 !       0.69 eA-3
Q165 0.436 0.762 0.189 !       0.68 eA-3
Q166 0.063 0.731 0.686 !       0.68 eA-3
C167 0.623 0.902 0.182 !       0.68 eA-3
Q168 0.523 0.188 0.391 !       0.68 eA-3
Q169 0.023 0.688 0.891 !       0.68 eA-3
Q170 0.477 0.812 0.609 !       0.68 eA-3
Q171 0.721 0.502 0.422 !       0.68 eA-3
C172 0.487 0.488 0.298 !       0.67 eA-3
Q173 0.549 0.108 0.105 !       0.67 eA-3
C174 0.344 0.934 0.159 !       0.67 eA-3
C175 0.443 0.828 0.195 !       0.67 eA-3
Q176 0.640 0.641 0.179 !       0.66 eA-3
C177 0.586 0.990 0.148 !       0.66 eA-3
C178 0.404 0.109 0.290 !       0.66 eA-3
C179 0.525 0.875 0.370 !       0.65 eA-3
Q180 0.874 0.633 0.425 !       0.65 eA-3
Q181 0.337 0.250-0.001 !       0.64 eA-3
Q182 0.579 1.000 0.078 !       0.64 eA-3
Q183 0.500 0.495 0.023 !       0.64 eA-3
Q184 0.119 0.651 0.581 !       0.63 eA-3
Q185 0.345 0.982 0.887 !       0.63 eA-3
Q186 0.552 0.245 0.149 !       0.62 eA-3
Q187 0.500 0.279 0.146 !       0.62 eA-3
Q188 0.500 0.607 0.172 !       0.62 eA-3
Q189 1.000 0.107 0.672 !       0.62 eA-3
C190 0.081 0.359 0.344 !       0.61 eA-3
Q191 0.016 0.063 0.387 !       0.61 eA-3
C192 0.935 0.556 0.221 !       0.61 eA-3
Q193 0.076 0.916 0.337 !       0.61 eA-3
Q194 0.402 0.595 0.190 !       0.61 eA-3
C195 0.500 0.487 0.219 !       0.61 eA-3
C196 0.021 0.064 0.212 !       0.61 eA-3
C197 0.478 0.221 0.257 !       0.61 eA-3
Q198 0.783 0.219 0.413 !       0.60 eA-3
C199 0.500 0.532 0.352 !       0.60 eA-3
)
;
_shelx_fab_checksum              2559
loop_
_space_group_symop_operation_xyz
'x, y, z'
'-x, -y, z'
'-y, x, z'
'y, -x, z'
'-x, y, -z'
'x, -y, -z'
'y, x, -z'
'-y, -x, -z'
'x+1/2, y+1/2, z+1/2'
'-x+1/2, -y+1/2, z+1/2'
'-y+1/2, x+1/2, z+1/2'
'y+1/2, -x+1/2, z+1/2'
'-x+1/2, y+1/2, -z+1/2'
'x+1/2, -y+1/2, -z+1/2'
'y+1/2, x+1/2, -z+1/2'
'-y+1/2, -x+1/2, -z+1/2'
'-x, -y, -z'
'x, y, -z'
'y, -x, -z'
'-y, x, -z'
'x, -y, z'
'-x, y, z'
'-y, -x, z'
'y, x, z'
'-x+1/2, -y+1/2, -z+1/2'
'x+1/2, y+1/2, -z+1/2'
'y+1/2, -x+1/2, -z+1/2'
'-y+1/2, x+1/2, -z+1/2'
'x+1/2, -y+1/2, z+1/2'
'-x+1/2, y+1/2, z+1/2'
'-y+1/2, -x+1/2, z+1/2'
'y+1/2, x+1/2, z+1/2'
loop_
_atom_site_label
_atom_site_type_symbol
_atom_site_fract_x
_atom_site_fract_y
_atom_site_fract_z
_atom_site_U_iso_or_equiv
_atom_site_adp_type
_atom_site_occupancy
_atom_site_site_symmetry_order
_atom_site_calc_flag
_atom_site_refinement_flags_posn
_atom_site_refinement_flags_adp
_atom_site_refinement_flags_occupancy
Zr1 Zr 0.5000 0.5000 0.09458(3) 0.0492(4) Uani 1 8 d S T P
Zr2 Zr 0.38139(4) 0.38139(4) 0.0000 0.0633(4) Uani 1 4 d S T P
O1M O 0.3636(7) 0.5000 0.0522(4) 0.066(3) Uani 0.5 2 d S T P
O12M O 0.3992(6) 0.5000 0.0396(3) 0.054(2) Uani 0.5 2 d S T P
O1 O 0.3321(3) 0.3321(3) 0.07651(18) 0.108(2) Uani 1 2 d S T P
O2 O 0.4115(2) 0.4115(2) 0.13720(15) 0.0817(13) Uani 1 2 d S T P
O3 O 0.4107(7) 0.2345(4) 0.0000 0.130(3) Uani 1 2 d S T P
C1 C 0.3520(4) 0.3520(4) 0.1224(3) 0.096(3) Uani 1 2 d S T P
C2 C 0.3053(4) 0.3053(4) 0.1644(3) 0.106(3) Uani 1 2 d S T P
C3 C 0.3263(4) 0.3263(4) 0.2137(3) 0.124(4) Uani 1 2 d S T P
H3 H 0.3698 0.3698 0.2205 0.149 Uiso 1 2 calc R U P
C4 C 0.2417(5) 0.2417(5) 0.1536(3) 0.156(5) Uani 1 2 d S T P
H4 H 0.2284 0.2284 0.1196 0.187 Uiso 1 2 calc R U P
C5 C 0.1967(4) 0.1967(4) 0.1926(3) 0.197(8) Uani 1 2 d S T P
H5 H 0.1534 0.1534 0.1850 0.237 Uiso 1 2 calc R U P
C6 C 0.2182(4) 0.2182(4) 0.2450(3) 0.131(4) Uani 1 2 d S T P
C7 C 0.5000 0.1920(14) 0.0000 0.156(6) Uani 1 4 d S TU P
C8 C 0.5000 0.0944(13) 0.0000 0.147(5) Uani 1 4 d S TU P
C9 C 0.4202(13) 0.0461(10) 0.0000 0.201(6) Uani 1 2 d DS TU P
N1 N 0.3301(18) 0.0860(17) 0.0000 0.206(14) Uani 0.25 2 d DS TU P
O4 O 0.280(3) 0.108(2) 0.0387(7) 0.35(3) Uani 0.25 1 d D U P
loop_
_atom_site_aniso_label
_atom_site_aniso_U_11
_atom_site_aniso_U_22
_atom_site_aniso_U_33
_atom_site_aniso_U_23
_atom_site_aniso_U_13
_atom_site_aniso_U_12
Zr1 0.0609(5) 0.0609(5) 0.0258(4) 0.000 0.000 0.000
Zr2 0.0785(5) 0.0785(5) 0.0330(4) 0.000 0.000 -0.0204(4)
O1M 0.061(6) 0.092(6) 0.046(5) 0.000 0.007(4) 0.000
O12M 0.058(5) 0.073(5) 0.031(4) 0.000 -0.003(3) 0.000
O1 0.136(3) 0.136(3) 0.051(3) 0.0095(16) 0.0095(16) -0.054(4)
O2 0.096(2) 0.096(2) 0.054(2) 0.0081(14) 0.0081(14) -0.020(3)
O3 0.243(8) 0.071(3) 0.075(3) 0.000 0.000 -0.032(4)
C1 0.123(4) 0.123(4) 0.043(3) 0.005(2) 0.005(2) -0.044(5)
C2 0.136(5) 0.136(5) 0.044(3) 0.008(2) 0.008(2) -0.059(6)
C3 0.159(6) 0.159(6) 0.054(4) 0.006(2) 0.006(2) -0.086(7)
C4 0.210(8) 0.210(8) 0.047(4) 0.016(3) 0.016(3) -0.102(10)
C5 0.270(13) 0.270(13) 0.053(4) 0.011(3) 0.011(3) -0.191(14)
C6 0.173(6) 0.173(6) 0.046(3) 0.012(3) 0.012(3) -0.088(7)
C7 0.136(13) 0.112(8) 0.220(18) 0.000 0.000 0.000
C8 0.144(11) 0.112(8) 0.186(14) 0.000 0.000 0.000
C9 0.183(12) 0.130(9) 0.292(17) 0.000 0.000 -0.030(7)
N1 0.24(3) 0.09(2) 0.29(3) 0.000 0.000 0.03(2)
O4 0.38(4) 0.16(2) 0.52(6) 0.01(3) 0.22(4) 0.02(3)
loop_
_atom_type_symbol
_atom_type_description
_atom_type_scat_dispersion_real
_atom_type_scat_dispersion_imag
_atom_type_scat_source
C C 0.0030 0.0016 'International Tables Vol C Tables 4.2.6.8 and 6.1.1.4'
H H 0.0000 0.0000 'International Tables Vol C Tables 4.2.6.8 and 6.1.1.4'
N N 0.0059 0.0032 'International Tables Vol C Tables 4.2.6.8 and 6.1.1.4'
O O 0.0105 0.0059 'International Tables Vol C Tables 4.2.6.8 and 6.1.1.4'
Zr Zr -3.5084 0.5477 'International Tables Vol C Tables 4.2.6.8 and 6.1.1.4'
loop_
_geom_angle_atom_site_label_1
_geom_angle_atom_site_label_2
_geom_angle_atom_site_label_3
_geom_angle
_geom_angle_site_symmetry_1
_geom_angle_site_symmetry_3
O12M Zr1 O12M 61.4(3) . 3_655
O12M Zr1 O12M 61.4(3) . 4_565
O12M Zr1 O12M 92.5(5) 3_655 4_565
O12M Zr1 O12M 92.5(5) . 2_665
O12M Zr1 O12M 61.4(3) 3_655 2_665
O12M Zr1 O12M 61.4(3) 4_565 2_665
O12M Zr1 O2 142.47(7) . 2_665
O12M Zr1 O2 142.47(7) 3_655 2_665
O12M Zr1 O2 85.2(2) 4_565 2_665
O12M Zr1 O2 85.2(2) 2_665 2_665
O12M Zr1 O2 142.47(7) . 3_655
O12M Zr1 O2 85.2(2) 3_655 3_655
O12M Zr1 O2 142.47(7) 4_565 3_655
O12M Zr1 O2 85.2(2) 2_665 3_655
O2 Zr1 O2 74.76(11) 2_665 3_655
O12M Zr1 O2 85.2(2) . 4_565
O12M Zr1 O2 142.47(7) 3_655 4_565
O12M Zr1 O2 85.2(2) 4_565 4_565
O12M Zr1 O2 142.47(7) 2_665 4_565
O2 Zr1 O2 74.76(11) 2_665 4_565
O2 Zr1 O2 118.3(2) 3_655 4_565
O12M Zr1 O2 85.2(2) . .
O12M Zr1 O2 85.2(2) 3_655 .
O12M Zr1 O2 142.47(7) 4_565 .
O12M Zr1 O2 142.47(7) 2_665 .
O2 Zr1 O2 118.3(2) 2_665 .
O2 Zr1 O2 74.76(11) 3_655 .
O2 Zr1 O2 74.76(11) 4_565 .
O12M Zr1 O1M 70.68(19) . 3_655
O12M Zr1 O1M 15.2(3) 3_655 3_655
O12M Zr1 O1M 107.7(4) 4_565 3_655
O12M Zr1 O1M 70.68(19) 2_665 3_655
O2 Zr1 O1M 141.12(6) 2_665 3_655
O2 Zr1 O1M 73.27(19) 3_655 3_655
O2 Zr1 O1M 141.12(6) 4_565 3_655
O2 Zr1 O1M 73.27(19) . 3_655
O12M Zr1 O1M 107.7(4) . 2_665
O12M Zr1 O1M 70.68(19) 3_655 2_665
O12M Zr1 O1M 70.68(19) 4_565 2_665
O12M Zr1 O1M 15.2(3) 2_665 2_665
O2 Zr1 O1M 73.27(19) 2_665 2_665
O2 Zr1 O1M 73.27(19) 3_655 2_665
O2 Zr1 O1M 141.12(6) 4_565 2_665
O2 Zr1 O1M 141.11(6) . 2_665
O1M Zr1 O1M 76.76(19) 3_655 2_665
O12M Zr1 O1M 70.68(19) . 4_565
O12M Zr1 O1M 107.7(4) 3_655 4_565
O12M Zr1 O1M 15.2(3) 4_565 4_565
O12M Zr1 O1M 70.68(19) 2_665 4_565
O2 Zr1 O1M 73.27(19) 2_665 4_565
O2 Zr1 O1M 141.12(6) 3_655 4_565
O2 Zr1 O1M 73.27(19) 4_565 4_565
O2 Zr1 O1M 141.11(6) . 4_565
O1M Zr1 O1M 122.8(4) 3_655 4_565
O1M Zr1 O1M 76.76(19) 2_665 4_565
O12M Zr1 O1M 15.1(3) . .
O12M Zr1 O1M 70.68(19) 3_655 .
O12M Zr1 O1M 70.68(19) 4_565 .
O12M Zr1 O1M 107.7(4) 2_665 .
O2 Zr1 O1M 141.12(6) 2_665 .
O2 Zr1 O1M 141.12(6) 3_655 .
O2 Zr1 O1M 73.27(19) 4_565 .
O2 Zr1 O1M 73.27(19) . .
O1M Zr1 O1M 76.76(19) 3_655 .
O1M Zr1 O1M 122.8(4) 2_665 .
O1M Zr1 O1M 76.76(19) 4_565 .
O12M Zr2 O12M 60.2(4) 3_655 20_655
O12M Zr2 O12M 91.8(5) 3_655 18
O12M Zr2 O12M 61.9(5) 20_655 18
O12M Zr2 O12M 61.9(5) 3_655 .
O12M Zr2 O12M 91.8(5) 20_655 .
O12M Zr2 O12M 60.2(4) 18 .
O12M Zr2 O1M 72.3(3) 3_655 .
O12M Zr2 O1M 107.7(4) 20_655 .
O12M Zr2 O1M 69.3(2) 18 .
O12M Zr2 O1M 15.9(3) . .
O12M Zr2 O1M 15.9(3) 3_655 3_655
O12M Zr2 O1M 69.3(2) 20_655 3_655
O12M Zr2 O1M 107.7(4) 18 3_655
O12M Zr2 O1M 72.3(3) . 3_655
O1M Zr2 O1M 79.5(5) . 3_655
O12M Zr2 O1M 69.3(2) 3_655 20_655
O12M Zr2 O1M 15.9(3) 20_655 20_655
O12M Zr2 O1M 72.3(3) 18 20_655
O12M Zr2 O1M 107.7(4) . 20_655
O1M Zr2 O1M 123.6(4) . 20_655
O1M Zr2 O1M 74.7(4) 3_655 20_655
O12M Zr2 O1M 107.7(4) 3_655 18
O12M Zr2 O1M 72.3(3) 20_655 18
O12M Zr2 O1M 15.9(3) 18 18
O12M Zr2 O1M 69.3(2) . 18
O1M Zr2 O1M 74.7(4) . 18
O1M Zr2 O1M 123.6(4) 3_655 18
O1M Zr2 O1M 79.5(5) 20_655 18
O12M Zr2 O3 87.6(3) 3_655 .
O12M Zr2 O3 87.6(3) 20_655 .
O12M Zr2 O3 144.5(2) 18 .
O12M Zr2 O3 144.5(2) . .
O1M Zr2 O3 142.5(2) . .
O1M Zr2 O3 74.4(3) 3_655 .
O1M Zr2 O3 74.4(3) 20_655 .
O1M Zr2 O3 142.5(2) 18 .
O12M Zr2 O3 144.5(2) 3_655 7
O12M Zr2 O3 144.5(2) 20_655 7
O12M Zr2 O3 87.6(3) 18 7
O12M Zr2 O3 87.6(3) . 7
O1M Zr2 O3 74.4(3) . 7
O1M Zr2 O3 142.5(2) 3_655 7
O1M Zr2 O3 142.5(2) 20_655 7
O1M Zr2 O3 74.4(3) 18 7
O3 Zr2 O3 112.6(5) . 7
O12M Zr2 O1 82.9(2) 3_655 .
O12M Zr2 O1 140.0(2) 20_655 .
O12M Zr2 O1 140.0(2) 18 .
O12M Zr2 O1 82.9(2) . .
O1M Zr2 O1 71.3(2) . .
O1M Zr2 O1 71.3(2) 3_655 .
O1M Zr2 O1 139.1(3) 20_655 .
O1M Zr2 O1 139.1(3) 18 .
O3 Zr2 O1 75.18(13) . .
O3 Zr2 O1 75.18(13) 7 .
O12M Zr2 O1 140.0(2) 3_655 18
O12M Zr2 O1 82.9(2) 20_655 18
O12M Zr2 O1 82.9(2) 18 18
O12M Zr2 O1 140.0(2) . 18
O1M Zr2 O1 139.1(3) . 18
O1M Zr2 O1 139.1(3) 3_655 18
O1M Zr2 O1 71.3(2) 20_655 18
O1M Zr2 O1 71.3(2) 18 18
O3 Zr2 O1 75.18(13) . 18
O3 Zr2 O1 75.18(13) 7 18
O1 Zr2 O1 125.1(3) . 18
O12M O1M Zr2 65.2(8) . .
O12M O1M Zr2 65.2(8) . 19_565
Zr2 O1M Zr2 103.6(4) . 19_565
O12M O1M Zr1 60.4(16) . .
Zr2 O1M Zr1 100.8(3) . .
Zr2 O1M Zr1 100.8(3) 19_565 .
O1M O12M Zr2 98.9(9) . .
O1M O12M Zr2 98.9(9) . 19_565
Zr2 O12M Zr2 117.7(4) . 19_565
O1M O12M Zr1 104.4(17) . .
Zr2 O12M Zr1 116.1(3) . .
Zr2 O12M Zr1 116.1(3) 19_565 .
C1 O1 Zr2 133.3(5) . .
C1 O2 Zr1 132.0(4) . .
C7 O3 Zr2 126.7(9) . .
O1 C1 O2 126.5(6) . .
O1 C1 C2 118.8(7) . .
O2 C1 C2 114.7(6) . .
C3 C2 C4 120.9(7) . .
C3 C2 C1 119.1(7) . .
C4 C2 C1 120.0(7) . .
C2 C3 C6 120.0(8) . 25
C2 C4 C5 121.1(8) . .
C4 C5 C6 118.7(8) . .
C6 C6 C3 120.1(9) 25 25
C6 C6 C5 119.3(8) 25 .
C3 C6 C5 120.7(8) 25 .
C8 C7 O3 115.4(8) . 5_655
C8 C7 O3 115.4(8) . .
O3 C7 O3 129.1(15) 5_655 .
C9 C8 C9 118(2) 5_655 .
C9 C8 C7 121.2(10) 5_655 .
C9 C8 C7 121.2(10) . .
C9 C9 C8 121.2(10) 21 .
C9 C9 N1 113.9(12) 21 .
C8 C9 N1 125.0(17) . .
O4 N1 O4 102(3) 18 .
O4 N1 C9 129.1(15) 18 .
O4 N1 C9 129.1(15) . .
loop_
_geom_bond_atom_site_label_1
_geom_bond_atom_site_label_2
_geom_bond_distance
_geom_bond_site_symmetry_2
Zr1 O12M 2.070(9) .
Zr1 O12M 2.070(9) 3_655
Zr1 O12M 2.070(9) 4_565
Zr1 O12M 2.070(9) 2_665
Zr1 O2 2.164(4) 2_665
Zr1 O2 2.164(4) 3_655
Zr1 O2 2.164(4) 4_565
Zr1 O2 2.164(4) .
Zr1 O1M 2.305(11) 3_655
Zr1 O1M 2.305(11) 2_665
Zr1 O1M 2.305(11) 4_565
Zr1 O1M 2.305(11) .
Zr2 O12M 2.057(4) 3_655
Zr2 O12M 2.057(4) 20_655
Zr2 O12M 2.057(4) 18
Zr2 O12M 2.057(4) .
Zr2 O1M 2.239(6) .
Zr2 O1M 2.239(6) 3_655
Zr2 O1M 2.239(6) 20_655
Zr2 O1M 2.239(6) 18
Zr2 O3 2.223(6) .
Zr2 O3 2.223(6) 7
Zr2 O1 2.244(5) .
Zr2 O1 2.244(5) 18
O1M O12M 0.622(9) .
O1M Zr2 2.239(6) 19_565
O12M Zr2 2.057(4) 19_565
O1 C1 1.265(8) .
O2 C1 1.306(9) .
O3 C7 1.467(12) .
C1 C2 1.469(10) .
C2 C3 1.358(11) .
C2 C4 1.362(13) .
C3 C6 1.423(10) 25
C4 C5 1.387(12) .
C5 C6 1.438(12) .
C6 C6 1.360(17) 25
C6 C3 1.423(10) 25
C7 C8 1.45(3) .
C7 O3 1.467(12) 5_655
C8 C9 1.384(17) 5_655
C8 C9 1.384(17) .
C9 C9 1.37(3) 21
C9 N1 1.462(19) .
N1 O4 1.298(18) 18
N1 O4 1.298(18) .
