#------------------------------------------------------------------------------
#$Date: 2019-11-22 15:53:07 +0200 (Fri, 22 Nov 2019) $
#$Revision: 231202 $
#$URL: file:///home/coder/svn-repositories/cod/cif/1/55/03/1550335.cif $
#------------------------------------------------------------------------------
#
# This file is available in the Crystallography Open Database (COD),
# http://www.crystallography.net/
#
# All data on this site have been placed in the public domain by the
# contributors.
#
data_1550335
loop_
_publ_author_name
'Rui-Biao Lin'
'Libo Li'
'Hao-Long Zhou'
'Hui Wu'
'Chaohui He'
'Shun Li'
'Rajamani Krishna'
'Jinping Li'
'Wei Zhou'
'Banglin Chen'
_publ_section_title
;
 Molecular sieving of ethylene from ethane using a rigid metal-organic
 framework
;
_journal_name_full               'Nature Materials'
_journal_page_first              1128
_journal_page_last               1133
_journal_paper_doi               10.1038/s41563-018-0206-2
_journal_volume                  17
_journal_year                    2018
_chemical_formula_moiety         'C4 Ca O4, (O), O'
_chemical_formula_sum            'C4 Ca O6'
_chemical_formula_weight         184.12
_space_group_crystal_system      tetragonal
_space_group_IT_number           122
_space_group_name_Hall           'I -4 2bw'
_space_group_name_H-M_alt        'I -4 2 d'
_symmetry_space_group_name_Hall  'I -4 2bw'
_symmetry_space_group_name_H-M   'I -4 2 d'
_atom_sites_solution_hydrogens   .
_cell_angle_alpha                90
_cell_angle_beta                 90
_cell_angle_gamma                90
_cell_formula_units_Z            8
_cell_length_a                   13.575(2)
_cell_length_b                   13.575(2)
_cell_length_c                   7.687(2)
_cell_measurement_reflns_used    4890
_cell_measurement_temperature    200(2)
_cell_measurement_theta_max      66.567
_cell_measurement_theta_min      4.606
_cell_volume                     1416.6(5)
_computing_molecular_graphics    'Olex2 (Dolomanov et al., 2009)'
_computing_publication_material  'Olex2 (Dolomanov et al., 2009)'
_computing_structure_refinement  'XL (Sheldrick, 2008)'
_diffrn_ambient_temperature      200(2)
_diffrn_measured_fraction_theta_full 0.997
_diffrn_measured_fraction_theta_max 0.995
_diffrn_measurement_device_type  Burker
_diffrn_radiation_type           CuK\a
_diffrn_radiation_wavelength     1.54178
_diffrn_reflns_av_R_equivalents  0.0405
_diffrn_reflns_av_unetI/netI     0.0288
_diffrn_reflns_Laue_measured_fraction_full 0.997
_diffrn_reflns_Laue_measured_fraction_max 0.995
_diffrn_reflns_limit_h_max       16
_diffrn_reflns_limit_h_min       -13
_diffrn_reflns_limit_k_max       16
_diffrn_reflns_limit_k_min       -14
_diffrn_reflns_limit_l_max       9
_diffrn_reflns_limit_l_min       -9
_diffrn_reflns_number            4890
_diffrn_reflns_point_group_measured_fraction_full 1.000
_diffrn_reflns_point_group_measured_fraction_max 0.997
_diffrn_reflns_theta_full        66.570
_diffrn_reflns_theta_max         66.570
_diffrn_reflns_theta_min         6.618
_exptl_absorpt_coefficient_mu    7.615
_exptl_absorpt_correction_T_max  66.567
_exptl_absorpt_correction_T_min  4.606
_exptl_absorpt_correction_type   multi-scan
_exptl_crystal_colour            colourless
_exptl_crystal_colour_primary    colourless
_exptl_crystal_density_diffrn    1.727
_exptl_crystal_description       prism
_exptl_crystal_F_000             736
_exptl_crystal_size_max          0.15
_exptl_crystal_size_mid          0.1
_exptl_crystal_size_min          0.1
_refine_diff_density_max         1.150
_refine_diff_density_min         -0.380
_refine_diff_density_rms         0.150
_refine_ls_abs_structure_details
;
 Refined as an inversion twin.
;
_refine_ls_abs_structure_Flack   0.15(7)
_refine_ls_extinction_coef       0.0036(15)
_refine_ls_extinction_expression Fc^*^=kFc[1+0.001xFc^2^\l^3^/sin(2\q)]^-1/4^
_refine_ls_extinction_method     'SHELXL-2014/7 (Sheldrick 2014'
_refine_ls_goodness_of_fit_ref   1.225
_refine_ls_hydrogen_treatment    undef
_refine_ls_matrix_type           full
_refine_ls_number_parameters     63
_refine_ls_number_reflns         623
_refine_ls_number_restraints     18
_refine_ls_restrained_S_all      1.211
_refine_ls_R_factor_all          0.0632
_refine_ls_R_factor_gt           0.0632
_refine_ls_shift/su_max          0.000
_refine_ls_shift/su_mean         0.000
_refine_ls_structure_factor_coef Fsqd
_refine_ls_weighting_details
'w=1/[\s^2^(Fo^2^)+(0.0816P)^2^+16.3881P] where P=(Fo^2^+2Fc^2^)/3'
_refine_ls_weighting_scheme      calc
_refine_ls_wR_factor_gt          0.1734
_refine_ls_wR_factor_ref         0.1734
_reflns_Friedel_coverage         0.707
_reflns_Friedel_fraction_full    1.004
_reflns_Friedel_fraction_max     1.000
_reflns_number_gt                622
_reflns_number_total             623
_reflns_threshold_expression     'I > 2\s(I)'
_iucr_refine_instructions_details
;

    1.res created by SHELXL-2014/7

TITL cu_LRB280AS_0m_a.res in I-4 New: I-42d
CELL 1.54178 13.575 13.575 7.687 90 90 90
ZERR 8 0.002 0.002 0.002 0 0 0
LATT -2
SYMM +Y,-X,-Z
SYMM -X,-Y,+Z
SYMM -Y,+X,-Z
SYMM +X,0.5-Y,0.25-Z
SYMM 0.5-Y,-X,0.75+Z
SYMM -X,0.5+Y,0.25-Z
SYMM 0.5+Y,+X,0.75+Z
SFAC C Ca O
UNIT 32 8 48
DELU O3B O3B O3A
SIMU 0.04 0.08 1.7 O3B O3A O3B
RIGU O3B O3A O3B
ISOR 0.001 0.002 O3B O3A O3B
 
L.S. 99
PLAN  -20
TEMP 20
CONF
fmap 2
acta
TWIN -1 0 0 0 -1 0 0 0 -1 2
REM <olex2.extras>
REM <HklSrc "%.\\1.hkl">
REM </olex2.extras>
 
WGHT    0.081600   16.388098
EXTI    0.003579
BASF   0.15208
FVAR       0.50183
CA1   2    0.309583    0.250000    0.125000    10.50000    0.01934    0.01183 =
         0.01009   -0.00247    0.00000    0.00000
O2    3    0.268407   -0.154614    0.073964    11.00000    0.03715    0.01248 =
         0.01182    0.00031    0.00172    0.00449
O1    3    0.270496    0.085255    0.086329    11.00000    0.12709    0.01187 =
         0.01623   -0.00716    0.01279   -0.01929
C2    1    0.258183   -0.086744   -0.032993    11.00000    0.02558    0.00857 =
         0.01640   -0.00013   -0.00188   -0.00328
C1    1    0.259795    0.022069   -0.029862    11.00000    0.05309    0.00798 =
         0.01398   -0.00288    0.00983   -0.00196
O4    3    0.500000    0.000000    0.563107    10.50000    0.28063    0.08602 =
         0.14843    0.00000    0.00000   -0.06100
PART 1
O3A   3    0.476782    0.250000    0.125000    10.16667    0.04134    0.04313 =
         0.04073    0.00065    0.00000    0.00000
PART 0
PART 2
O3B   3    0.470916    0.160219    0.112440    10.33333    0.04454    0.04721 =
         0.04454   -0.00022   -0.00144    0.00306
HKLF 4
 
REM  cu_LRB280AS_0m_a.res in I-4 New: I-42d
REM R1 =  0.0632 for     622 Fo > 4sig(Fo)  and  0.0632 for all     623 data
REM     63 parameters refined using     18 restraints
 
END  
     
WGHT      0.0816     16.3884 

REM Highest difference peak  1.150,  deepest hole -0.380,  1-sigma level  0.150
Q1    1   0.4834  0.2971  0.1353  11.00000  0.05    1.15
Q2    1   0.4494  0.3825  0.1101  11.00000  0.05    1.14
Q3    1   0.4852  0.0343  0.1424  11.00000  0.05    0.52
Q4    1   0.2906  0.2533 -0.0314  11.00000  0.05    0.42
Q5    1   0.2032 -0.0225 -0.0569  11.00000  0.05    0.40
Q6    1   0.5277  0.0253 -0.1150  11.00000  0.05    0.31
Q7    1   0.2465  0.1930  0.0750  11.00000  0.05    0.31
Q8    1   0.2500  0.4161 -0.1250  10.50000  0.05    0.30
Q9    1   0.2280  0.4536  0.1336  11.00000  0.05    0.29
Q10   1   0.2140  0.2503 -0.0322  11.00000  0.05    0.26
Q11   1   0.4602  0.1429 -0.1256  11.00000  0.05    0.26
Q12   1   0.3367  0.4561 -0.0502  11.00000  0.05    0.26
Q13   1   0.5353  0.0888  0.1593  11.00000  0.05    0.25
Q14   1   0.2018  0.1166  0.0350  11.00000  0.05    0.24
Q15   1   0.4230  0.2500  0.1250  10.50000  0.05    0.24
Q16   1   0.5946  0.0339  0.0830  11.00000  0.05    0.24
Q17   1   0.2500  0.0145 -0.1250  10.50000  0.05    0.23
Q18   1   0.3576  0.2227 -0.1078  11.00000  0.05    0.22
Q19   1   0.2814 -0.0291 -0.0030  11.00000  0.05    0.22
Q20   1   0.1809  0.3970  0.0779  11.00000  0.05    0.21

  REM The information below was added by Olex2.
  REM
  REM R1 = 0.0632 for 622 Fo > 4sig(Fo) and 0.0632 for all 5055 data
  REM n/a parameters refined using n/a restraints
  REM Highest difference peak 1.15, deepest hole -0.38
  REM Mean Shift 0, Max Shift 0.000.

  REM +++ Tabular Listing of Refinement Information +++
  REM R1_all = 0.0632
  REM R1_gt = 0.0632
  REM wR_ref = 0.1734
  REM GOOF = 1.225
  REM Shift_max = 0.000
  REM Shift_mean = 0
  REM Reflections_all = 5055
  REM Reflections_gt = 622
  REM Parameters = n/a
  REM Hole = -0.38
  REM Peak = 1.15
  REM Flack = n/a

  
;
_cod_data_source_file            File-4.cif
_cod_data_source_block           CaC4O4_H2O
_cod_original_cell_volume        1416.6(6)
_cod_database_code               1550335
_shelx_space_group_comment
;
The symmetry employed for this shelxl refinement is uniquely defined
by the following loop, which should always be used as a source of
symmetry information in preference to the above space-group names.
They are only intended as comments.
;
_olex2_refinement_description
;
1. Twinned data refinement
 Scales: 0.85(7)
 0.15(7)
2. Rigid bond restraints
 O3B, O3B, O3A
 with sigma for 1-2 distances of 0.01 and sigma for 1-3 distances of 0.01
3. Uiso/Uaniso restraints and constraints
O3B \\sim O3A \\sim O3B: within 1.7A with sigma of 0.04 and sigma for terminal
atoms of 0.08
Uanis(O3B) \\sim Ueq, Uanis(O3A) \\sim Ueq, Uanis(O3B) \\sim Ueq: with sigma of
0.001 and sigma for terminal atoms of 0.002
4. Rigid body (RIGU) restrains
 O3B, O3A, O3B
 with sigma for 1-2 distances of 0.004 and sigma for 1-3 distances of 0.004
5. Others
 Fixed Sof: O3A(0.16667) O3B(0.33333)
;
_olex2_submission_special_instructions 'No special instructions were received'
loop_
_space_group_symop_operation_xyz
'x, y, z'
'y, -x, -z'
'-x, -y, z'
'-y, x, -z'
'x, -y+1/2, -z+1/4'
'-y+1/2, -x, z+3/4'
'-x, y+1/2, -z+1/4'
'y+1/2, x, z+3/4'
'x+1/2, y+1/2, z+1/2'
'y+1/2, -x+1/2, -z+1/2'
'-x+1/2, -y+1/2, z+1/2'
'-y+1/2, x+1/2, -z+1/2'
'x+1/2, -y+1, -z+3/4'
'-y+1, -x+1/2, z+5/4'
'-x+1/2, y+1, -z+3/4'
'y+1, x+1/2, z+5/4'
loop_
_atom_site_label
_atom_site_type_symbol
_atom_site_fract_x
_atom_site_fract_y
_atom_site_fract_z
_atom_site_U_iso_or_equiv
_atom_site_adp_type
_atom_site_occupancy
_atom_site_site_symmetry_order
_atom_site_calc_flag
_atom_site_refinement_flags_posn
_atom_site_refinement_flags_adp
_atom_site_refinement_flags_occupancy
_atom_site_disorder_assembly
_atom_site_disorder_group
Ca1 Ca 0.30958(16) 0.2500 0.1250 0.0138(9) Uani 1 2 d S T P . .
O2 O 0.2684(6) -0.1546(4) 0.0740(8) 0.0205(19) Uani 1 1 d . . . . .
O1 O 0.2705(10) 0.0853(5) 0.0863(9) 0.052(3) Uani 1 1 d . . . . .
C2 C 0.2582(9) -0.0867(6) -0.0330(12) 0.017(2) Uani 1 1 d . . . . .
C1 C 0.2598(10) 0.0221(6) -0.0299(12) 0.025(2) Uani 1 1 d . . . . .
O4 O 0.5000 0.0000 0.563(4) 0.172(15) Uani 1 2 d S T P . .
O3A O 0.477(3) 0.2500 0.1250 0.042(8) Uani 0.3333 2 d S TU P A 1
O3B O 0.4709(19) 0.1602(19) 0.112(4) 0.045(6) Uani 0.3333 1 d . U . A 2
loop_
_atom_site_aniso_label
_atom_site_aniso_U_11
_atom_site_aniso_U_22
_atom_site_aniso_U_33
_atom_site_aniso_U_23
_atom_site_aniso_U_13
_atom_site_aniso_U_12
Ca1 0.0193(15) 0.0118(14) 0.0101(12) -0.0025(11) 0.000 0.000
O2 0.037(5) 0.012(3) 0.012(3) 0.000(2) 0.002(3) 0.004(3)
O1 0.127(10) 0.012(3) 0.016(4) -0.007(3) 0.013(5) -0.019(4)
C2 0.026(5) 0.009(4) 0.016(4) 0.000(4) -0.002(4) -0.003(4)
C1 0.053(7) 0.008(4) 0.014(5) -0.003(4) 0.010(5) -0.002(5)
O4 0.28(4) 0.086(18) 0.15(3) 0.000 0.000 -0.06(2)
O3A 0.041(8) 0.043(8) 0.041(8) 0.001(3) 0.000 0.000
O3B 0.045(6) 0.047(6) 0.045(6) 0.000(3) -0.001(3) 0.003(3)
loop_
_atom_type_symbol
_atom_type_description
_atom_type_scat_dispersion_real
_atom_type_scat_dispersion_imag
_atom_type_scat_source
C C 0.0181 0.0091 'International Tables Vol C Tables 4.2.6.8 and 6.1.1.4'
Ca Ca 0.3641 1.2855 'International Tables Vol C Tables 4.2.6.8 and 6.1.1.4'
O O 0.0492 0.0322 'International Tables Vol C Tables 4.2.6.8 and 6.1.1.4'
loop_
_geom_angle_atom_site_label_1
_geom_angle_atom_site_label_2
_geom_angle_atom_site_label_3
_geom_angle
_geom_angle_site_symmetry_1
_geom_angle_site_symmetry_3
O2 Ca1 Ca1 31.59(13) 4 11_554
O2 Ca1 Ca1 167.50(18) 10 11_554
O2 Ca1 Ca1 35.14(15) 8_554 11_554
O2 Ca1 Ca1 103.13(15) 14_454 11_554
O2 Ca1 O2 138.10(17) 8_554 14_454
O2 Ca1 O2 65.5(2) 10 14_454
O2 Ca1 O2 156.4(3) 10 8_554
O2 Ca1 O2 65.5(2) 8_554 4
O2 Ca1 O2 72.8(3) 4 14_454
O2 Ca1 O2 138.10(17) 10 4
O2 Ca1 C2 23.1(2) 4 4
O2 Ca1 C2 115.1(2) 10 4
O2 Ca1 C2 49.7(2) 4 14_454
O2 Ca1 C2 88.5(2) 8_554 4
O2 Ca1 C2 115.1(2) 8_554 14_454
O2 Ca1 C2 88.5(2) 10 14_454
O2 Ca1 C2 49.7(2) 14_454 4
O2 Ca1 C2 23.1(2) 14_454 14_454
O2 Ca1 O3B 80.5(7) 10 5
O2 Ca1 O3B 80.5(7) 8_554 .
O2 Ca1 O3B 78.9(8) 8_554 5
O2 Ca1 O3B 78.9(8) 10 .
O1 Ca1 Ca1 78.1(2) . 11_554
O1 Ca1 Ca1 91.7(2) 5 11_554
O1 Ca1 O2 78.4(3) 5 4
O1 Ca1 O2 94.0(3) . 10
O1 Ca1 O2 91.3(3) 5 10
O1 Ca1 O2 80.4(3) . 4
O1 Ca1 O2 78.4(3) . 14_454
O1 Ca1 O2 80.4(3) 5 14_454
O1 Ca1 O2 91.3(3) . 8_554
O1 Ca1 O2 94.0(3) 5 8_554
O1 Ca1 O1 153.5(7) 5 .
O1 Ca1 C2 77.4(4) . 4
O1 Ca1 C2 76.8(4) 5 4
O1 Ca1 C2 77.4(4) 5 14_454
O1 Ca1 C2 76.8(4) . 14_454
O1 Ca1 O3B 74.1(7) 5 5
O1 Ca1 O3B 74.1(7) . .
O1 Ca1 O3B 132.4(7) 5 .
O1 Ca1 O3B 132.4(7) . 5
C2 Ca1 Ca1 54.04(17) 4 11_554
C2 Ca1 Ca1 80.34(18) 14_454 11_554
C2 Ca1 C2 26.6(3) 4 14_454
O3A Ca1 Ca1 112.83(6) . 11_554
O3A Ca1 O2 143.62(13) . 4
O3A Ca1 O2 78.21(16) . 10
O3A Ca1 O2 143.62(13) . 14_454
O3A Ca1 O2 78.21(16) . 8_554
O3A Ca1 O1 103.2(3) . .
O3A Ca1 O1 103.2(3) . 5
O3A Ca1 C2 166.68(17) . 14_454
O3A Ca1 C2 166.68(17) . 4
O3B Ca1 Ca1 107.7(7) . 11_554
O3B Ca1 Ca1 112.0(7) 5 11_554
O3B Ca1 O2 136.6(7) 5 14_454
O3B Ca1 O2 132.8(7) 5 4
O3B Ca1 O2 136.6(7) . 4
O3B Ca1 O2 132.8(7) . 14_454
O3B Ca1 C2 147.3(7) . 14_454
O3B Ca1 C2 149.1(6) . 4
O3B Ca1 C2 149.1(6) 5 14_454
O3B Ca1 C2 147.3(7) 5 4
O3B Ca1 O3B 58.3(12) 5 .
Ca1 O2 Ca1 113.3(2) 12_545 2
C2 O2 Ca1 101.5(5) . 2
C2 O2 Ca1 141.6(6) . 12_545
C1 O1 Ca1 141.5(6) . .
O2 C2 Ca1 55.5(4) . 2
O2 C2 C2 132.1(5) . 15_544
O2 C2 C1 136.8(9) . .
C2 C2 Ca1 76.69(17) 15_544 2
C2 C2 C1 91.1(5) 15_544 .
C1 C2 Ca1 167.7(6) . 2
O1 C1 C2 134.5(9) . .
O1 C1 C1 136.5(5) . 15_544
C2 C1 C1 88.9(5) . 15_544
loop_
_geom_bond_atom_site_label_1
_geom_bond_atom_site_label_2
_geom_bond_distance
_geom_bond_site_symmetry_2
Ca1 Ca1 4.170(2) 11_554
Ca1 O2 2.613(7) 4
Ca1 O2 2.613(7) 14_454
Ca1 O2 2.378(6) 10
Ca1 O2 2.378(6) 8_554
Ca1 O1 2.318(7) 5
Ca1 O1 2.318(7) .
Ca1 C2 3.109(8) 14_454
Ca1 C2 3.109(8) 4
Ca1 O3A 2.27(4) .
Ca1 O3B 2.51(3) 5
Ca1 O3B 2.51(3) .
O2 Ca1 2.613(7) 2
O2 Ca1 2.378(6) 12_545
O2 C2 1.243(11) .
O1 C1 1.247(12) .
C2 Ca1 3.109(8) 2
C2 C2 1.432(18) 15_544
C2 C1 1.477(11) .
C1 C1 1.487(19) 15_544
loop_
_geom_torsion_atom_site_label_1
_geom_torsion_atom_site_label_2
_geom_torsion_atom_site_label_3
_geom_torsion_atom_site_label_4
_geom_torsion
_geom_torsion_site_symmetry_1
_geom_torsion_site_symmetry_2
_geom_torsion_site_symmetry_3
_geom_torsion_site_symmetry_4
Ca1 O2 C2 Ca1 -154.9(13) 12_545 . . 2
Ca1 O2 C2 C2 -155.6(12) 12_545 . . 15_544
Ca1 O2 C2 C2 -1(2) 2 . . 15_544
Ca1 O2 C2 C1 -178.8(15) 2 . . .
Ca1 O2 C2 C1 26(3) 12_545 . . .
Ca1 O1 C1 C2 161.7(12) . . . .
Ca1 O1 C1 C1 -21(4) . . . 15_544
Ca1 C2 C1 O1 -177(3) 2 . . .
Ca1 C2 C1 C1 5(5) 2 . . 15_544
O2 C2 C1 O1 -2(3) . . . .
O2 C2 C1 C1 180.0(14) . . . 15_544
C2 C2 C1 O1 179.6(16) 15_544 . . .
C2 C2 C1 C1 1.4(16) 15_544 . . 15_544
loop_
_refln_index_h
_refln_index_k
_refln_index_l
_refln_F_squared_meas
_refln_F_squared_sigma
-1 1 0 24 2
1 -1 0 21.6 1.6
-1 1 0 22.4 1.6
-2 2 0 51.59 3.7
-2 2 0 53.39 4.5
2 -2 0 52.79 3.8
2 -2 0 52.89 4.6
-1 3 0 857.91 50.69
3 1 0 858.41 50.79
3 1 0 737.23 50.69
-1 3 0 781.82 50.69
1 3 0 907.41 50.59
3 -1 0 760.32 51.19
3 -1 0 837.32 50.39
3 -1 0 716.53 50.39
-3 1 0 795.32 50.39
-3 3 0 64.49 5
3 -3 0 69.29 4.9
3 -3 0 60.29 5.6
-3 3 0 70.19 6
-3 3 0 66.89 4.9
3 3 0 62.69 5.1
-2 4 0 978.2 55.99
-2 4 0 819.52 54.19
4 2 0 797.42 54.19
4 2 0 845.22 54.39
-2 4 0 871.51 54.29
0 4 0 9999 621.94
-4 2 0 799.12 50.29
-4 2 0 777.52 50.19
4 -2 0 784.02 51.39
4 -2 0 840.02 50.29
2 4 0 807.92 50.09
4 -2 0 779.12 50.19
4 -4 0 496.85 32
-4 4 0 530.15 33.8
-4 4 0 482.55 32
4 -4 0 513.85 32.1
-4 4 0 480.05 32.1
3 -5 0 2637.64 182.68
-3 5 0 3235.18 185.48
-3 5 0 2913.11 182.98
-1 5 0 4706.83 294.57
5 1 0 4743.13 294.87
5 1 0 4598.14 294.57
-1 5 0 4867.31 294.77
5 -1 0 4297.87 285.67
1 5 0 4688.13 283.77
-5 1 0 4489.15 283.87
5 -1 0 4483.55 283.87
5 -1 0 4824.52 284.17
5 -3 0 2872.91 168.58
3 5 0 2568.44 168.48
-5 3 0 2682.73 168.58
-5 3 0 2743.53 168.38
5 -3 0 2573.64 170.08
5 -3 0 2739.63 168.38
-5 5 0 295.37 24.7
5 5 0 344.47 20.5
-5 5 0 294.37 21
5 -5 0 301.27 20.7
-4 6 0 1041.4 67.89
6 4 0 1040.3 65.29
-4 6 0 1026.7 64.69
6 4 0 1056.39 64.69
-4 6 0 949.71 64.99
-2 6 0 38.8 4.7
-2 6 0 43.1 8.4
6 2 0 33.8 4.7
0 6 0 1653.63 103.09
6 0 0 1778.72 103.49
6 0 0 1587.24 105.79
-6 0 0 1566.54 103.09
-6 2 0 31 4.8
-6 2 0 43.9 4.9
2 6 0 36.5 4.1
6 -2 0 36.5 6.4
6 -2 0 37.4 4.7
6 -4 0 1042.1 63.69
-6 4 0 1036.4 63.39
4 6 0 998.9 63.29
-6 4 0 930.41 63.79
6 6 0 308.97 24.1
6 6 0 327.27 23.9
-6 6 0 331.07 23.1
6 6 0 333.97 22.1
6 -6 0 341.17 22.9
-6 6 0 335.57 22.1
-5 7 0 13 3.4
-5 7 0 15.7 5.9
7 5 0 12 3.3
7 5 0 9.1 6.1
5 -7 0 15.8 6.4
7 5 0 17.3 7.1
-3 7 0 860.21 52.49
-3 7 0 798.82 51.59
7 3 0 750.92 51.49
7 3 0 810.52 50.79
-3 7 0 841.72 50.89
-3 7 0 745.93 55.59
-3 7 0 788.82 53.09
7 1 0 3884.21 242.48
7 1 0 3875.71 242.88
-1 7 0 3841.42 242.48
-1 7 0 4049.69 247.48
-1 7 0 3776.62 242.88
7 -1 0 3885.41 240.48
7 -1 0 3470.45 242.98
-7 1 0 3960 240.58
1 7 0 3837.42 240.48
7 -1 0 4118.29 241.08
7 -3 0 828.42 49.6
7 -3 0 790.42 48.9
3 7 0 783.02 48.9
-7 3 0 799.72 49
7 -3 0 699.33 51.19
-7 3 0 697.33 49.6
-7 3 0 780.52 49.4
5 7 0 8.8 3.4
7 -5 0 15.6 4.7
-7 5 0 15.2 5.4
5 7 0 21.1 7.2
7 -5 0 14.5 5
-7 5 0 21.8 5.5
-7 7 0 13.6 4.6
7 -7 0 20.2 9.1
7 7 0 12.7 4.5
-7 7 0 7.2 5.5
7 7 0 19.7 7
-6 8 0 962.5 59.79
-6 8 0 958.6 59.49
8 6 0 977.7 59.49
8 6 0 886.01 63.29
6 -8 0 840.42 59.89
4 -8 0 396.96 27.9
-4 8 0 409.06 27.7
-4 8 0 407.86 26.7
8 4 0 391.56 27.7
8 4 0 406.06 26.7
8 2 0 433.46 30.6
8 2 0 436.06 31
-2 8 0 437.56 29.9
-2 8 0 462.75 31.4
8 2 0 470.35 29.9
-2 8 0 522.05 45
-2 8 0 462.15 30.8
8 0 0 1241.58 76.29
8 0 0 1092.59 79.49
8 0 0 1253.17 75.59
0 8 0 1195.28 75.49
8 0 0 1191.38 75.69
0 8 0 1203.28 75.99
2 8 0 460.55 30.1
8 -2 0 469.35 29.1
-8 2 0 438.86 29.5
8 -2 0 465.25 30.3
8 -2 0 383.56 32.5
2 8 0 451.55 29
4 8 0 351.96 26.9
8 -4 0 379.66 28.2
8 -4 0 415.96 26.2
-8 4 0 392.16 26.2
4 8 0 403.96 26
-8 4 0 390.56 26.3
8 -4 0 390.76 26.1
-8 6 0 972.3 63.39
6 8 0 921.81 64.09
8 -6 0 1021.6 63.19
-8 6 0 1016.6 63.39
6 8 0 1013.2 63.49
8 -8 0 1195.38 73.99
8 8 0 1180.18 74.59
-8 8 0 1176.88 74.39
-8 8 0 1196.68 74.79
8 8 0 1066.89 74.29
-7 9 0 45.7 9.7
-7 9 0 48.1 10.3
9 7 0 49.7 8.1
7 -9 0 36.8 7.9
9 7 0 36.6 8
9 5 0 148.49 13.6
-5 9 0 160.18 12.7
9 5 0 139.89 13.8
-5 9 0 142.09 13.3
3 -9 0 328.27 24.9
9 3 0 310.67 22.9
-3 9 0 347.27 22.6
-3 9 0 327.77 22.9
-3 9 0 333.77 23.4
9 3 0 324.47 22.3
9 1 0 1116.89 70.49
-1 9 0 1095.99 70.49
9 1 0 1105.49 72.89
-1 9 0 1104.49 70.59
-1 9 0 1111.99 71.09
9 1 0 1133.49 70.49
9 -1 0 1063.09 67.89
9 -1 0 1092.79 69.69
1 9 0 1080.59 68.09
-9 1 0 1083.59 67.99
1 9 0 1020.7 68.69
1 9 0 1058.59 67.99
9 -1 0 1091.49 67.89
3 9 0 332.97 22.3
9 -3 0 294.47 21.1
3 9 0 324.37 21.3
9 -3 0 312.67 21.3
-9 3 0 307.67 27.4
-9 3 0 289.47 21.4
9 -5 0 119.59 15
5 9 0 126.89 13.2
9 -5 0 149.39 11.7
5 9 0 151.98 14.3
-9 5 0 148.99 12.3
-9 5 0 138.19 13.4
-9 7 0 37.2 8.6
7 9 0 35.8 7.5
9 -7 0 49.5 8
7 9 0 43 8.7
-9 7 0 25.4 8.6
-9 9 0 55.79 9.7
9 9 0 73.89 11.2
9 9 0 88.49 11.3
-8 10 0 640.14 45.3
-8 10 0 670.03 43.9
10 8 0 663.03 43.9
8 -10 0 659.83 43.9
10 8 0 701.23 44.4
-6 10 0 568.44 38.4
10 6 0 591.84 38.3
-6 10 0 575.84 38.6
6 -10 0 570.74 38.7
10 4 0 396.16 26.4
10 4 0 392.96 26.7
4 -10 0 411.16 28.5
-4 10 0 389.86 26.7
-4 10 0 357.26 27
10 2 0 82.89 9.4
-2 10 0 88.99 11
-2 10 0 85.89 10.5
10 2 0 101.89 9
10 0 0 353.36 23.7
0 10 0 334.97 29.4
0 10 0 343.97 24
10 0 0 366.86 23.8
10 -2 0 76.89 8.6
2 10 0 112.19 11.6
10 -2 0 91.79 9.2
-10 2 0 75.49 11.4
2 10 0 99.89 9.2
2 10 0 106.89 15
-10 4 0 372.76 25.9
4 10 0 370.96 26.3
10 -4 0 398.66 25.9
10 -4 0 394.86 27
4 10 0 380.06 26.6
6 10 0 576.44 38.1
-10 6 0 572.24 37.2
10 -6 0 592.94 37.4
6 10 0 533.85 37.9
-10 8 0 644.44 41.8
8 10 0 657.43 43
8 10 0 613.54 42.5
10 -8 0 649.93 41.8
10 10 0 539.95 35.6
-10 10 0 525.95 34.9
10 -10 0 533.45 35.5
10 10 0 541.65 37.9
-9 11 0 252.17 19.1
11 9 0 283.57 19.6
-7 11 0 192.78 16.2
11 7 0 191.28 15.8
11 7 0 198.48 16.5
-7 11 0 192.78 18.7
-5 11 0 149.09 14.1
-5 11 0 159.48 14.2
11 5 0 150.58 13
11 5 0 138.69 12.8
-3 11 0 19.4 6.6
11 3 0 13.5 4.9
11 3 0 14.6 5.2
-3 11 0 11.9 5.2
-1 11 0 266.37 20.1
11 1 0 291.27 19.8
11 1 0 275.57 19.5
-1 11 0 274.27 20.7
1 11 0 295.47 20.3
11 -1 0 271.37 19.5
1 11 0 287.67 20.5
1 11 0 278.87 23.7
11 -1 0 268.77 20.1
11 -3 0 16.6 4.3
3 11 0 10.9 4.8
3 11 0 14.9 6
11 -3 0 18.5 7.3
11 -5 0 133.79 11.4
5 11 0 125.89 13.6
5 11 0 147.39 13.1
-11 5 0 137.09 13
5 11 0 131.69 13.9
7 11 0 194.98 16.2
7 11 0 178.48 16
-11 7 0 164.78 14.8
11 -7 0 185.58 14
9 11 0 248.28 18.8
11 -9 0 250.07 18.1
11 11 0 -0.3 4.5
11 11 0 36.6 21
12 10 0 54.19 7.5
12 8 0 84.69 9.4
12 8 0 78.69 13.9
-8 12 0 84.99 9.8
-6 12 0 22.3 7
12 6 0 7.9 7.6
12 4 0 202.78 15.7
-4 12 0 223.08 17.4
12 4 0 189.98 16.3
-4 12 0 212.98 17.1
-2 12 0 484.05 32.8
-2 12 0 491.75 32.5
12 2 0 482.65 32.4
-2 12 0 465.55 32.9
12 2 0 487.85 32
0 12 0 1428.66 91.79
0 12 0 1482.75 91.49
12 0 0 1428.66 91.59
12 0 0 1431.76 91.19
2 12 0 454.25 33.9
2 12 0 483.25 32
12 -2 0 447.06 32.2
2 12 0 466.65 31.8
12 -2 0 488.25 31.1
4 12 0 194.38 17.8
4 12 0 188.38 16.1
12 -4 0 175.18 14.1
4 12 0 189.68 15.9
6 12 0 13.9 8.7
12 -6 0 19.2 5.4
6 12 0 15.5 7.8
6 12 0 23.8 8.7
8 12 0 76.99 14.5
8 12 0 85.29 10.7
8 12 0 59.89 10.3
10 12 0 113.89 29.9
10 12 0 84.69 10
13 9 0 166.98 12.4
-7 13 0 58.09 8.8
13 7 0 67.59 7.9
13 7 0 49.9 11.9
13 5 0 10.5 5.3
-5 13 0 16.6 13.3
-5 13 0 11.2 6.7
13 5 0 11.8 8.7
13 3 0 38.8 7.4
-3 13 0 30.9 7.9
13 3 0 19.5 7.4
-3 13 0 31.3 7.6
13 1 0 265.77 21.5
-1 13 0 295.17 20.6
-1 13 0 273.67 20.9
-1 13 0 292.27 21.2
13 1 0 268.67 19.6
13 -1 0 301.27 19.2
1 13 0 266.37 20.5
1 13 0 271.27 20.4
13 -1 0 248.08 22.5
3 13 0 34.1 8.2
3 13 0 24.8 7.5
3 13 0 29.6 7.2
13 -3 0 33.9 5.3
5 13 0 -0.4 6.6
13 -5 0 10.1 4.3
5 13 0 21.4 9.1
5 13 0 22.5 9
7 13 0 41.3 9
7 13 0 64.39 15.1
13 -7 0 59.49 7.1
7 13 0 65.19 10
9 13 0 185.08 15.3
9 13 0 214.68 16.1
14 8 0 59.69 6.8
-6 14 0 8.3 5.3
14 6 0 16.8 4.6
14 6 0 10.7 17.1
14 4 0 20.8 11.9
-4 14 0 21 12.4
14 4 0 11.5 4.4
-4 14 0 14.6 6
14 2 0 76.79 17.1
-2 14 0 82.99 10.4
14 2 0 82.29 8.4
0 14 0 396.36 27.3
0 14 0 413.36 28.3
14 0 0 368.46 26
0 14 0 378.96 26.9
14 -2 0 92.89 8.6
2 14 0 89.89 10.6
2 14 0 72.59 10.9
4 14 0 11.1 10.2
14 -4 0 6.6 3.8
4 14 0 15.1 6.2
4 14 0 6 13.7
4 14 0 8.9 5.6
6 14 0 13.6 5.7
6 14 0 32.8 13.1
14 -6 0 10.2 3.9
6 14 0 -3 10.4
6 14 0 12.2 6.2
8 14 0 53.89 9.9
8 14 0 37.6 7.4
8 14 0 41.8 7.6
15 5 0 73.89 7.1
-5 15 0 74.89 8.5
15 3 0 12.8 4.1
-3 15 0 -6.1 20.4
-3 15 0 21.9 6
-1 15 0 48.2 8.8
15 1 0 51.69 6.5
-1 15 0 69.69 16.8
15 -1 0 55.19 6.6
1 15 0 42.2 9.1
1 15 0 71.89 12.7
3 15 0 15.5 5.6
15 -3 0 14.6 3.9
3 15 0 20.7 6.2
3 15 0 24.5 11
5 15 0 70.39 9.7
15 -5 0 74.09 7.2
5 15 0 88.39 9.5
16 2 0 19.4 4
-2 16 0 29.4 5.6
0 16 0 21.8 5.6
16 0 0 25 4.2
2 16 0 23.8 5.8
16 -2 0 24 3.8
-1 0 -1 38.6 3
0 -1 -1 38.4 3.5
0 1 -1 38.7 2.6
1 0 -1 36.3 3.8
-1 0 -1 37.1 2.7
1 0 1 35.4 2.7
0 1 1 40.9 3.6
1 0 1 37.1 3
1 -2 -1 429.66 27.8
-1 2 -1 404.96 26.5
2 1 1 427.06 26.7
2 -1 -1 388.46 23.1
-2 1 1 291.37 22.7
3 2 -1 309.67 19.1
-2 3 -1 282.57 19
-2 3 -1 267.37 19
2 -3 -1 267.07 20.6
2 -3 1 325.17 19.1
-3 -2 1 274.97 19
-2 3 1 311.07 18.8
-2 3 1 332.77 21
2 -3 1 310.87 19
3 2 1 276.37 19.1
-3 0 -1 1279.27 81.59
3 0 -1 1233.28 83.29
0 3 -1 1342.87 81.39
0 3 -1 1276.97 81.39
3 0 -1 1379.06 81.29
0 -3 1 1326.97 81.39
-3 0 1 1170.88 81.39
3 0 1 1334.27 81.59
3 0 1 1210.58 81.29
0 3 1 1469.35 83.39
3 -2 -1 284.67 18.7
2 3 -1 299.97 19
-3 2 -1 264.27 19
3 -2 -1 281.47 20.7
3 -2 1 323.77 19.1
3 -2 1 301.57 18.9
-2 -3 1 270.77 19
-3 2 1 318.17 18.9
-3 2 1 312.47 18.8
-3 4 -1 983.7 65.29
-3 4 -1 976.5 65.39
4 3 -1 1054.49 65.29
-3 4 -1 1074.89 66.09
4 3 1 1138.19 65.69
3 -4 1 1048.1 65.29
-3 4 1 1064.59 65.19
-4 -3 1 952.4 65.29
3 -4 1 1063.49 65.49
4 3 1 1022.4 65.09
-3 4 1 1069.99 69.79
-3 4 1 1020.7 65.19
4 1 -1 1165.78 84.69
-1 4 -1 1506.15 84.89
-1 4 -1 1448.06 84.79
4 1 -1 1282.97 84.69
1 -4 1 1201.68 84.69
-1 4 1 1280.17 86.99
4 1 1 1541.35 85.09
-4 -1 1 1440.46 84.89
4 1 1 1321.47 84.59
4 -1 -1 1398.06 79.79
1 4 -1 1136.69 79.69
4 -1 -1 1425.86 82.49
-4 1 -1 1462.85 80.09
-4 1 1 1147.19 79.79
4 -1 1 1218.28 79.89
-1 -4 1 1426.86 79.79
4 -1 1 1113.59 79.59
-4 1 1 1136.09 79.59
4 -3 -1 969.5 66.59
-4 3 -1 1011.8 64.49
3 4 -1 1031.5 64.29
-4 3 -1 1048.2 64.29
4 -3 -1 1080.89 64.19
-4 3 1 930.91 64.39
-4 3 1 1129.19 67.09
-3 -4 1 895.61 64.19
4 -3 1 1063.69 64.29
4 -3 1 1117.79 64.49
-4 3 1 1035.4 64.19
3 4 1 957.2 63.99
5 4 -1 1743.33 110.09
-4 5 -1 1795.52 111.09
-4 5 -1 1692.33 110.39
5 4 1 1902.91 110.69
-5 -4 1 1626.14 109.99
-4 5 1 1639.44 110.09
5 4 1 1830.52 109.89
-4 5 1 1815.92 113.89
5 2 -1 1457.55 93.59
5 2 -1 1560.94 93.49
2 -5 1 1527.45 93.29
-2 5 1 1693.33 97.09
5 2 1 1416.26 93.69
-5 -2 1 1310.57 93.29
-2 5 1 1450.55 93.19
-2 5 1 1495.85 93.39
5 0 -1 3988.3 229.88
0 5 -1 3514.05 229.78
-5 0 -1 3452.35 230.08
0 5 -1 3652.23 229.98
5 0 -1 3464.05 232.88
5 0 -1 3693.23 229.78
-5 0 1 3469.55 229.78
0 -5 1 3639.24 229.78
5 0 1 3904.61 230.18
0 5 1 4179.18 233.78
5 0 1 3483.75 229.68
0 5 1 3789.22 229.58
5 -2 -1 1258.47 83.69
-5 2 -1 1317.07 83.89
5 -2 -1 1422.16 83.69
2 5 -1 1168.58 84.49
-5 2 -1 1303.07 83.99
5 -2 -1 1282.17 86.49
5 -2 1 1541.05 84.19
-5 2 1 1357.66 83.69
2 5 1 1278.97 83.39
-2 -5 1 1412.96 83.69
5 -4 -1 1641.94 111.79
-5 4 -1 1997.5 108.69
4 5 -1 1680.13 108.49
-5 4 -1 1808.32 108.99
5 -4 1 1810.12 108.89
-5 4 1 1542.45 108.49
4 5 1 1772.22 108.29
-5 4 1 1598.14 108.39
6 5 -1 1425.86 90.19
-5 6 -1 1447.56 89.89
6 5 -1 1422.76 89.69
-5 6 -1 1480.15 89.59
6 5 -1 1515.35 89.69
6 5 1 1429.36 90.59
5 -6 1 1498.85 89.59
-5 6 1 1399.66 89.49
5 -6 1 1395.56 89.59
-5 6 1 1365.66 90.09
-5 6 1 1198.58 89.79
6 5 1 1485.45 89.39
-5 6 1 1403.96 95.49
6 3 -1 1028.5 66.09
-3 6 -1 1010.4 66.49
6 3 -1 1036.3 67.39
-3 6 -1 1066.89 66.09
-3 6 -1 1147.59 68.59
6 3 1 1087.69 65.89
-3 6 1 960.4 66.19
-6 -3 1 973.9 66.09
6 3 1 1110.69 66.79
6 1 -1 1097.49 68.69
-1 6 1 1050.59 68.79
-6 -1 1 1152.48 68.59
6 1 1 1088.09 68.39
6 1 1 1206.18 69.19
-1 6 1 1037.6 68.39
1 -6 1 992.7 68.59
-6 1 -1 1035.5 69.49
6 -1 -1 1128.19 69.19
6 -1 -1 1118.09 72.79
6 -1 -1 1224.88 69.29
6 -1 1 998.2 70.29
-1 -6 1 1077.99 69.09
6 -3 -1 1137.69 65.99
-6 3 -1 986 66.39
3 6 -1 995.4 65.79
6 -3 -1 1016.7 69.49
6 -3 -1 1049.7 65.89
-6 3 -1 1038.3 65.99
6 -3 1 1060.49 65.89
6 -3 1 1061.79 66.29
3 6 1 1009.7 65.59
-6 3 1 993.6 65.99
-6 3 1 1126.79 65.99
5 6 -1 1398.06 89.99
5 6 -1 1458.85 89.99
6 -5 -1 1492.15 90.09
-6 5 -1 1472.75 90.29
-6 5 -1 1495.55 89.99
-6 5 1 1434.66 89.89
6 -5 1 1407.36 89.99
6 -5 1 1461.45 89.89
-6 5 1 1393.06 90.29
5 6 1 1440.26 90.89
5 6 1 1443.76 89.79
6 -5 1 1360.56 90.59
-6 5 1 1287.47 90.29
6 -7 -1 723.63 46.2
-6 7 -1 754.72 46.1
7 6 -1 635.54 45.7
7 6 -1 694.93 45.8
-6 7 -1 736.43 45.9
7 6 1 724.73 47.5
-6 7 1 655.13 46.1
7 6 1 753.52 45.7
6 -7 1 697.43 45.7
6 -7 1 704.03 46
-4 7 -1 503.95 30.2
7 4 -1 429.36 29.3
7 4 -1 397.76 30.3
-4 7 -1 512.75 29.4
7 4 -1 417.56 29.8
7 4 1 481.05 30.9
-4 7 1 391.56 32.1
4 -7 1 435.86 29.7
-4 7 1 410.86 31
-4 7 1 450.05 29.2
-4 7 1 491.55 44.8
7 2 -1 201.88 14.7
-2 7 -1 220.28 20
-2 7 -1 218.98 15.4
-2 7 -1 211.28 16
7 2 -1 190.88 15.3
7 2 -1 203.08 14.2
7 2 1 223.38 13.9
-2 7 1 184.58 14
7 2 1 232.28 15.3
-2 7 1 189.08 21.6
-7 -2 1 220.18 14.7
2 -7 1 189.28 15.2
-2 7 1 169.88 15
7 0 -1 798.52 48.7
0 7 -1 716.23 49.1
0 7 -1 771.02 48.6
7 0 -1 816.22 48.9
7 0 -1 759.92 53.79
7 0 1 782.92 49.2
0 7 1 783.92 55.09
7 0 1 752.22 48.4
7 0 1 688.23 50.29
0 7 1 774.22 48.4
7 -2 -1 208.28 15
7 -2 -1 200.88 21.6
-7 2 -1 200.98 16.5
2 7 -1 176.28 13.7
7 -2 -1 228.18 14.4
7 -2 1 200.48 13.7
2 7 1 205.48 13.7
7 -2 1 203.58 15
-7 2 1 196.88 13.8
-7 2 1 185.98 15.1
7 -2 1 190.58 15.5
7 -4 -1 525.35 30.2
7 -4 -1 513.85 30.4
-7 4 -1 505.15 30.7
4 7 -1 415.96 29.7
4 7 -1 386.86 30
7 -4 -1 476.05 36.1
7 -4 1 428.16 30.9
7 -4 1 423.76 30.1
7 -4 1 442.26 29.6
-7 4 1 425.06 30.4
-7 4 1 469.45 29.8
-7 4 1 382.76 30.9
4 7 1 516.35 29.7
-7 6 -1 715.33 45
-7 6 -1 733.13 44.9
-7 6 -1 593.14 48.2
6 7 -1 689.63 44.6
6 7 -1 644.94 44.6
7 -6 -1 736.93 44.7
7 -6 1 657.33 44.5
6 7 1 735.13 46.7
7 -6 1 678.63 44.5
6 7 1 714.83 44.5
-7 6 1 674.93 44.4
-7 6 1 683.33 44.9
8 7 -1 64.79 9.5
-7 8 -1 48.5 10
-7 8 -1 73.99 12.9
7 -8 -1 61.89 12.4
8 7 -1 67.39 9.3
7 -8 1 74.69 9
8 7 1 65.69 8.3
8 7 1 53.99 10.5
-7 8 1 76.49 8.9
-7 8 1 80.89 10.1
-5 8 -1 367.66 24.7
8 5 -1 347.47 24
8 5 -1 337.77 24.2
-5 8 -1 379.56 24.2
5 -8 1 341.07 24.1
-5 8 1 298.77 24.7
8 5 1 388.96 26.4
-5 8 1 324.87 23.7
8 5 1 384.56 23.8
-3 8 -1 394.46 28.5
-3 8 -1 407.36 29
8 3 -1 468.35 28.5
-3 8 -1 430.66 28.4
8 3 -1 408.46 29.8
8 3 -1 454.55 28.8
3 -8 1 497.45 28.9
-8 -3 1 358.46 31.7
-3 8 1 462.75 30.2
8 3 1 417.06 29.8
8 3 1 420.26 28
-3 8 1 483.15 28.3
8 3 1 368.46 33.6
-1 8 -1 278.97 18.6
8 1 -1 309.97 18.8
8 1 -1 293.37 19.2
-1 8 -1 265.87 19.9
-1 8 -1 267.27 19.3
8 1 -1 309.07 19.9
-1 8 -1 255.37 21.4
8 1 -1 270.07 26.8
8 1 1 239.98 19.8
-8 -1 1 242.28 19.3
8 1 1 248.88 20.1
8 1 1 256.97 18.2
-1 8 1 314.57 18.6
8 -1 -1 267.77 19.1
1 8 -1 298.07 20.6
8 -1 -1 259.67 20
8 -1 -1 250.07 19.2
1 8 -1 317.27 19.2
1 8 -1 300.17 19.6
-8 1 1 277.97 19.5
-8 1 1 291.67 19.2
1 8 1 275.17 18.8
8 -1 1 284.37 18.8
8 -1 1 279.87 20.7
8 -1 1 274.47 19.7
3 8 -1 468.45 28.4
8 -3 -1 378.06 28.6
3 8 -1 453.05 28.6
-8 3 -1 370.46 30.4
8 -3 -1 384.06 28.2
8 -3 -1 395.56 29.3
-8 3 1 450.25 28.3
3 8 1 396.26 33.4
8 -3 1 483.55 28.3
8 -3 1 456.15 30.5
-8 3 1 434.56 28.5
8 -3 1 461.85 28.6
3 8 1 433.56 28.1
8 -5 -1 376.96 23.8
-8 5 -1 389.46 24.2
5 8 -1 308.07 23.7
5 8 -1 319.47 23.6
-8 5 1 323.97 23.4
5 8 1 370.66 23.6
8 -5 1 351.76 24.1
-8 5 1 316.27 24
8 -5 1 352.56 23.5
5 8 1 361.36 26.3
7 8 -1 74.69 9.4
7 8 -1 79.29 9.5
-8 7 -1 54.69 9.8
-8 7 1 66.29 9.2
8 -7 1 76.19 8.6
-8 7 1 69.39 9.7
7 8 1 55.79 8.9
7 8 1 70.19 11.5
9 8 -1 123.49 11.9
-8 9 -1 129.79 12.3
9 8 -1 114.09 12.9
9 8 1 119.49 11.9
9 8 1 131.19 14.7
-8 9 1 109.99 12.1
8 -9 1 108.59 11.3
-8 9 1 107.09 12.5
-6 9 -1 172.38 22.8
-6 9 -1 179.88 14.9
9 6 -1 157.98 14.4
9 6 -1 172.38 14.3
-6 9 1 169.88 13.7
6 -9 1 159.58 14.1
9 6 1 186.48 13.6
9 6 1 190.88 16.5
-6 9 1 156.78 14.9
-4 9 -1 267.77 18.4
9 4 -1 233.78 18.2
-4 9 -1 268.77 18.8
9 4 -1 228.78 18
9 4 1 284.97 19.9
-4 9 1 226.38 17.9
9 4 1 262.77 17.7
9 2 -1 90.49 9.4
-2 9 -1 113.09 15.5
-2 9 -1 110.89 10.1
9 2 -1 85.39 8.8
-2 9 -1 111.39 9.1
9 2 -1 81.19 15.6
-2 9 -1 110.09 10.4
9 2 1 110.89 10.6
-2 9 1 81.49 13.5
-2 9 1 88.39 12.4
-9 -2 1 94.19 11.6
2 -9 1 76.19 10.9
9 2 1 110.69 8.5
9 0 -1 205.08 14.2
9 0 -1 191.48 17.9
9 0 -1 193.08 14.1
0 9 -1 189.48 14
0 9 -1 191.98 14.6
0 9 -1 180.48 16.7
9 0 -1 178.78 28.2
9 0 1 205.48 13.6
0 9 1 186.08 17.3
9 0 1 190.08 14.6
0 9 1 180.18 13.7
-9 0 1 178.28 14.9
-9 0 1 198.68 14.6
9 -2 -1 101.19 9.8
2 9 -1 75.59 9.2
2 9 -1 82.09 10.3
9 -2 -1 92.29 16.9
2 9 -1 83.39 8.1
9 -2 1 85.69 9.1
-9 2 1 84.19 9
2 9 1 94.99 13.7
-9 2 1 72.39 8.8
9 -2 1 81.69 7.7
2 9 1 105.59 8.3
4 9 -1 204.98 16.4
4 9 -1 214.08 16.2
9 -4 -1 239.08 16.1
-9 4 1 200.78 16.1
9 -4 1 220.68 16.1
9 -4 1 222.78 15.9
4 9 1 270.27 19.6
-9 4 1 200.68 16.2
6 9 -1 176.08 14.3
-9 6 -1 179.48 15
9 -6 -1 172.68 13.8
6 9 -1 175.28 14.2
9 -6 1 157.68 13.6
6 9 1 159.48 17.4
-9 6 1 170.98 14.3
6 9 1 178.78 14.3
9 -6 1 153.28 15.9
-9 6 1 184.18 14.1
8 9 -1 102.79 12.6
9 -8 -1 123.39 13
-9 8 -1 127.49 12.4
8 9 -1 111.79 12
-9 8 1 108.19 11.8
-9 8 1 115.99 13
9 -8 1 105.69 11.2
8 9 1 136.89 12.6
8 9 1 143.69 15.2
10 9 -1 33 10.5
-9 10 -1 23.7 7.2
10 9 -1 12.2 9
9 -10 1 23.6 8.5
10 9 1 12.4 7.2
-9 10 1 23.8 7.2
10 9 1 27.8 9.8
-9 10 1 8.8 9.6
10 7 -1 57.09 9.2
-7 10 -1 55.19 15.4
-7 10 -1 69.59 10.5
10 7 -1 39 10.5
-7 10 1 57.89 10.1
10 7 1 78.09 12.1
-7 10 1 55.09 10.4
10 7 1 77.69 8.9
-5 10 -1 533.95 31.2
10 5 -1 402.86 30.3
10 5 -1 434.46 30.7
-5 10 1 398.96 31.1
10 5 1 513.15 31.2
10 5 1 520.95 30.5
-5 10 1 424.66 30.5
5 -10 1 394.06 30.5
-3 10 -1 254.87 27.9
-3 10 -1 287.57 18.3
10 3 1 304.17 18.8
3 -10 1 219.68 18.8
-3 10 1 212.08 19.1
-3 10 1 223.68 17.9
10 1 -1 56.29 7.9
-1 10 -1 45.4 9.8
10 1 -1 60.89 7.3
-1 10 -1 55.69 8.9
-1 10 -1 50.89 8.1
-1 10 1 47.6 7.3
-1 10 1 49.1 12.4
1 -10 1 53.09 9
10 1 1 60.19 6.7
-10 -1 1 55.09 8.7
10 1 1 38.6 8
10 -1 -1 58.59 8.9
1 10 -1 50.99 7.7
10 -1 -1 57.59 7.2
1 10 -1 48 7.1
1 10 1 64.49 7.3
1 10 1 73.09 12.1
10 -1 1 58.69 7.9
10 -1 1 45.9 6.6
-10 1 1 46.3 8.3
3 10 -1 201.48 15.3
3 10 -1 186.48 15.4
3 10 -1 202.68 16.3
-10 3 1 195.98 14.9
10 -3 1 214.78 15
-10 3 1 197.38 16.1
5 10 -1 393.86 27.9
5 10 -1 389.66 27.6
10 -5 1 408.06 28
-10 5 1 409.56 28.1
10 -5 1 392.16 27.2
-10 5 1 426.46 27.3
7 10 -1 55.69 10.3
7 10 -1 48.4 9.4
7 10 1 45.7 9.7
-10 7 1 49.99 8.9
10 -7 1 54.39 8
-10 7 1 55.39 12.4
9 10 -1 21.5 8.9
9 10 -1 30.6 8.9
-10 9 1 2.2 12.7
9 10 1 30.3 9.6
9 10 1 16 7.5
-10 9 1 20.3 8.4
11 10 -1 45.8 7.3
11 10 -1 40.3 7.7
11 10 -1 40 14.9
11 10 1 55.29 9.6
-10 11 1 55.19 7.4
11 10 1 58.09 13.3
10 -11 1 30.2 7.3
11 8 -1 91.69 12.7
11 8 -1 79.99 14
-8 11 -1 114.39 11.2
11 8 1 109.09 12
8 -11 1 69.89 11.4
11 8 1 124.69 12.8
-8 11 1 85.69 15
-6 11 -1 236.68 22.5
-6 11 -1 245.78 19
11 6 -1 229.48 18
11 6 -1 242.88 19.4
11 6 1 249.38 19.1
6 -11 1 267.87 18.9
-6 11 1 227.28 18.7
-6 11 1 242.68 19.5
11 6 1 254.27 18.2
11 4 -1 381.96 26.5
-4 11 -1 401.06 27.3
-4 11 -1 390.06 27.7
11 4 -1 375.36 27.1
-4 11 1 367.06 27.3
4 -11 1 357.76 27.4
11 4 1 430.56 26.7
11 4 1 422.46 27.1
-4 11 1 387.36 27
-2 11 -1 112.09 11.2
-2 11 -1 107.49 11.5
11 2 -1 100.79 10
11 2 -1 101.79 11.2
-2 11 -1 123.49 10.9
-2 11 -1 87.69 17.5
2 -11 1 120.59 14
11 2 1 107.99 10.5
-2 11 1 97.29 12.2
-2 11 1 112.99 10.4
-2 11 1 104.69 12.4
11 2 1 106.59 9.7
11 0 -1 64.39 7.7
0 11 -1 58.39 8.8
0 11 -1 68.89 9.2
0 11 -1 76.39 13.1
0 11 -1 74.89 8.7
11 0 -1 51.49 10.4
0 -11 1 80.49 11.9
11 0 1 59.49 7.9
0 11 1 48.5 11.8
0 11 1 59.69 11.2
0 11 1 65.49 8.4
11 0 1 61.69 7.6
2 11 -1 118.09 11.2
2 11 -1 97.09 10.8
11 -2 -1 90.89 9.5
2 11 -1 127.39 13
-11 2 1 102.19 10.4
2 11 1 121.89 13.9
2 11 1 105.49 10.3
11 -2 1 106.29 10.2
11 -2 1 103.69 9.9
11 -4 -1 430.76 25.3
4 11 -1 351.16 26
4 11 -1 342.27 25.5
4 11 -1 341.57 26.3
11 -4 1 366.56 25.9
4 11 1 358.96 27.6
4 11 1 389.56 26.1
4 11 1 372.16 27.1
11 -4 1 387.96 25.3
-11 4 1 366.06 25
6 11 -1 239.48 19.2
6 11 -1 233.58 18.5
11 -6 -1 258.47 17.7
6 11 -1 233.18 19
6 11 1 214.18 20.4
11 -6 1 232.38 17.4
6 11 1 231.88 18.9
-11 6 1 268.47 17.5
8 11 -1 80.19 11.7
8 11 -1 78.49 13.7
8 11 -1 91.49 15.8
-11 8 1 66.39 9.2
8 11 1 92.69 13.5
11 -8 1 62.79 10.4
10 11 -1 57.39 7.9
10 11 -1 50.69 14.5
10 11 -1 51.69 8.2
10 11 1 38.5 8.3
-11 10 1 45.8 7.4
11 -10 1 37.3 7.5
12 9 -1 173.38 25.9
12 9 -1 213.28 15.2
12 9 -1 179.88 15.1
12 9 1 237.88 19.2
12 9 1 245.88 16.3
-9 12 1 201.98 15.4
12 7 -1 378.66 30.4
12 7 -1 340.47 23.8
-7 12 -1 337.57 24.5
-7 12 1 342.47 28.7
7 -12 1 291.27 26.1
12 7 1 364.26 25.1
-7 12 1 362.96 24.6
12 7 1 355.96 24.4
-5 12 -1 585.94 38.4
12 5 -1 589.34 37.7
12 5 -1 562.94 38.9
-5 12 1 574.04 38.6
12 5 1 602.34 38
12 5 1 588.44 38.1
5 -12 1 484.85 41.1
-5 12 1 583.04 38.5
12 3 -1 824.42 55.19
12 3 -1 866.31 54.39
-3 12 -1 840.02 55.39
-3 12 -1 853.11 55.09
-3 12 1 882.71 55.09
12 3 1 834.42 54.49
-3 12 1 859.61 55.19
12 3 1 816.32 54.69
-1 12 -1 673.53 45.8
12 1 -1 746.63 45.2
-1 12 -1 612.64 47.4
-1 12 -1 681.03 45.9
12 1 -1 711.03 46.4
-1 12 -1 686.23 45.5
12 1 1 684.33 45.1
12 1 1 740.93 45.6
-1 12 1 720.33 45.8
-1 12 1 712.73 46.1
1 12 -1 760.42 47.5
1 12 -1 728.93 47.5
1 12 -1 724.03 48.1
1 12 -1 753.52 47
12 -1 -1 704.93 46.6
12 -1 1 748.83 47.1
12 -1 1 732.43 46.7
1 12 1 670.63 47.4
1 12 1 686.23 47.8
1 12 1 717.53 47.4
12 -3 -1 796.52 53.19
3 12 -1 888.91 53.79
3 12 -1 823.42 54.39
3 12 -1 913.91 54.49
12 -3 1 813.22 53.79
3 12 1 837.72 54.29
12 -3 1 863.91 53.29
3 12 1 831.82 54.19
-12 3 1 707.23 53.09
5 12 -1 541.95 36.8
5 12 -1 523.05 37.6
5 12 -1 563.94 37.8
12 -5 -1 577.94 36.1
5 12 1 572.44 37.6
-12 5 1 498.95 35.9
5 12 1 571.34 38.7
5 12 1 539.35 37.9
12 -5 1 583.54 36.3
7 12 -1 333.37 25.8
7 12 -1 331.87 23.6
7 12 -1 318.97 22.7
12 -7 -1 312.47 21.9
7 12 1 301.07 24
-12 7 1 284.27 21.6
7 12 1 345.87 24.5
12 -7 1 328.57 21.7
7 12 1 309.87 23.9
9 12 -1 176.28 23.5
9 12 -1 200.38 15
9 12 -1 213.78 15.9
9 12 1 226.98 19.8
9 12 1 176.98 16.6
12 -9 1 195.08 14.3
13 8 -1 185.88 13.1
13 8 1 177.28 18.5
-8 13 1 170.98 13.3
13 8 1 170.98 13.9
-6 13 -1 433.56 29.1
13 6 -1 412.56 34.3
13 6 1 459.45 30.5
-6 13 1 397.86 31.3
-6 13 1 433.06 29.5
13 6 1 453.35 29
13 4 -1 660.03 42.9
13 4 -1 569.04 45
-4 13 -1 616.84 44.6
-4 13 -1 561.84 46.2
13 4 1 678.63 41.4
-4 13 1 581.84 44.6
13 4 1 696.93 41.3
-4 13 1 622.54 41.8
-2 13 -1 495.35 30.7
13 2 -1 378.06 34.4
13 2 -1 425.76 29.4
-2 13 -1 404.86 31.3
13 2 1 476.25 30.4
13 2 1 484.35 29.8
-2 13 1 441.96 30.8
-2 13 1 436.86 30.7
13 0 -1 157.38 12.8
0 13 -1 174.68 14.5
0 13 -1 169.28 14.1
0 13 -1 174.38 15.6
0 13 -1 162.38 23.6
0 13 1 149.99 14.8
13 0 1 155.88 14.3
0 13 1 151.08 15.6
13 0 1 154.98 12.9
2 13 -1 423.56 30.2
13 -2 -1 453.35 29.3
2 13 -1 410.66 29.7
2 13 -1 382.86 33.5
13 -2 1 417.36 29.3
2 13 1 477.05 31.2
2 13 1 465.85 31.1
2 13 1 487.55 30.9
4 13 -1 609.74 43.2
4 13 -1 671.83 43.3
13 -4 -1 639.84 41.5
4 13 -1 646.14 43.4
4 13 1 690.83 43.2
13 -4 1 611.34 43.7
4 13 1 612.24 42.8
13 -6 -1 415.66 27.6
6 13 -1 412.26 28.4
6 13 -1 437.56 29.4
6 13 -1 437.36 31.7
6 13 1 385.16 29.3
6 13 1 459.35 31.2
13 -6 1 399.86 27.6
6 13 1 401.06 31.6
8 13 -1 185.98 14.6
8 13 -1 165.68 13.2
8 13 -1 149.99 33
8 13 1 146.29 15.5
8 13 1 170.58 16.8
13 -8 1 156.28 12.1
8 13 1 183.98 19.4
14 7 -1 67.09 7.6
14 7 1 64.99 8
14 5 -1 134.99 11.2
-5 14 -1 152.18 12.6
-5 14 1 158.18 13
-5 14 1 147.09 18.1
14 5 1 150.48 11.9
14 5 1 135.49 16
-3 14 -1 157.48 24.1
14 3 -1 149.59 12
-3 14 -1 145.89 13.3
14 3 1 151.38 16.1
-3 14 1 170.78 14.1
-3 14 1 168.38 16.1
14 3 1 160.08 12.3
14 1 -1 177.58 12.9
-1 14 -1 151.68 14.2
-1 14 -1 158.88 20
14 1 1 177.98 17.4
-1 14 1 189.98 17.1
14 1 1 167.48 13.2
-1 14 1 174.48 14.9
1 14 -1 165.98 13.8
1 14 -1 172.18 14.1
14 -1 -1 164.58 12.5
1 14 1 150.98 15.4
14 -1 1 166.58 12.7
14 -1 1 196.08 18.3
1 14 1 150.78 14.6
1 14 1 155.38 15.6
3 14 -1 151.08 13.4
14 -3 -1 147.19 11.9
3 14 -1 143.19 12.8
3 14 -1 193.48 18.9
3 14 1 136.39 15.5
3 14 1 151.58 14.4
3 14 1 179.78 17.5
14 -3 1 165.98 12
5 14 -1 144.49 12
5 14 -1 129.29 15.6
14 -5 -1 135.89 11
5 14 -1 144.49 12.4
14 -5 1 144.49 10.8
5 14 1 149.79 13.6
5 14 1 130.19 17.3
7 14 -1 78.89 8.5
7 14 -1 88.69 11.6
7 14 1 69.19 22.6
14 -7 1 69.99 7
7 14 1 61.79 12.3
15 4 -1 276.37 19.2
-4 15 -1 274.87 19.9
-4 15 1 277.27 20.2
15 4 1 324.47 19.6
-2 15 -1 156.58 12.5
15 2 -1 128.69 10.9
-2 15 1 140.69 17.8
-2 15 1 146.59 12.9
15 2 1 148.59 11.2
15 2 1 164.48 29.1
0 15 -1 52.69 8.4
0 15 -1 61.49 21.3
15 0 -1 46.2 6.3
0 15 1 55.69 13.6
0 15 1 45.6 9
15 0 1 53.29 6.5
2 15 -1 116.59 11.5
2 15 -1 127.39 12.1
15 -2 -1 134.49 10.3
2 15 -1 156.98 27.9
15 -2 1 124.49 10.3
2 15 1 156.38 12.9
2 15 1 143.29 16.7
4 15 -1 296.07 20.2
4 15 -1 280.57 20.1
15 -4 -1 295.77 19.2
4 15 1 315.37 20.9
4 15 1 267.17 23.8
15 -4 1 264.37 19.2
16 1 -1 66.59 6.3
16 1 1 54.99 6.2
-1 16 1 59.49 8.6
1 16 -1 74.19 8.8
16 -1 -1 57.09 6.8
16 -1 1 68.69 6.5
0 0 -2 40.8 4.5
0 0 -2 41.4 2.9
0 0 2 34.3 2.7
0 0 2 39.5 4.7
1 -1 -2 3336.27 208.88
-1 -1 2 3251.67 206.88
1 1 2 3189.08 206.78
1 -1 2 3395.96 206.68
-1 1 2 3592.34 209.18
1 1 2 3156.18 208.28
0 2 -2 221.58 14.6
2 0 -2 259.37 17.4
0 -2 -2 213.88 16.4
-2 0 -2 238.58 14.8
0 2 2 216.88 16.6
-2 0 2 234.78 14.8
2 0 2 234.28 14.8
0 2 2 214.88 14.6
0 -2 2 202.78 14.7
2 0 2 243.88 15.7
-2 2 -2 48.7 4
-2 2 -2 49.1 4
2 2 2 48.6 4.1
-2 -2 2 56.19 4.1
2 2 2 44.6 5.8
2 -2 2 47.3 3.9
-2 2 2 54.49 3.9
2 -2 2 46.4 3.8
-1 3 -2 115.79 7.8
1 -3 -2 100.09 9.9
3 1 -2 126.69 11.1
3 1 2 100.99 7.9
-1 3 2 134.79 11
3 1 2 96.59 9
1 3 -2 120.79 8.6
1 3 -2 129.19 8
3 -1 -2 100.49 10.5
-3 1 -2 96.69 8.2
1 3 2 109.49 10.6
-3 1 2 125.89 8.1
3 -1 2 126.79 7.9
3 -1 2 131.69 8.2
3 -3 -2 143.59 14
3 3 -2 176.78 11.6
-3 3 -2 144.09 11.4
3 -3 2 188.88 11.5
3 3 2 148.89 11.5
3 3 2 155.08 16.6
-3 3 2 184.68 11.1
-3 3 2 189.28 10.8
-2 4 -2 277.77 19.3
-2 4 -2 292.07 19.2
4 2 -2 262.87 19.1
4 2 2 306.37 19.4
-2 4 2 325.47 18.7
2 -4 2 276.07 19.1
4 2 2 312.47 22
4 2 2 260.57 18.6
-2 4 2 315.27 18.8
-4 0 -2 1216.08 72.89
0 4 -2 1062.59 72.49
4 0 -2 1243.28 72.19
4 0 -2 1127.99 76.09
0 4 -2 1021.3 72.49
4 0 2 1236.18 72.89
4 0 2 1182.78 73.09
0 4 2 1198.88 76.09
4 0 2 1205.68 72.29
0 -4 2 1065.39 72.49
4 -2 -2 262.37 22.6
-4 2 -2 295.37 19.7
2 4 -2 287.87 19.4
4 -2 2 300.37 19.6
2 4 2 327.37 23.6
-2 -4 2 313.17 19.5
-4 4 -2 95.19 8.7
4 -4 -2 101.19 12.1
4 -4 2 104.79 7.7
-4 4 2 98.59 7.3
4 4 2 101.69 8.5
-4 4 2 110.89 7.6
-4 4 2 116.59 13.5
4 -4 2 104.09 8.2
-3 5 -2 187.58 13.9
-3 5 -2 193.58 13.5
-3 5 -2 188.88 13.7
5 3 -2 202.88 13.2
5 3 2 181.38 13.3
-3 5 2 193.78 18.7
-3 5 2 180.18 12.8
-3 5 2 188.28 12.9
3 -5 2 197.08 13.1
5 3 2 203.78 13.9
5 1 -2 2488.15 135.19
5 1 -2 2172.28 142.19
5 1 -2 2179.88 135.29
5 1 2 1917.61 136.79
5 1 2 1939.11 134.89
5 1 2 2208.78 136.59
-1 5 2 2232.28 134.99
1 5 -2 2179.48 130.09
5 -1 -2 1991.6 134.09
5 -1 -2 2092.99 129.69
1 5 -2 2208.38 130.29
1 5 2 1976.4 134.49
5 -1 2 2027.9 129.89
5 -3 -2 202.48 18.2
-5 3 -2 189.28 14.3
-5 3 2 204.68 13.1
-3 -5 2 202.88 13.7
5 -3 2 191.48 13.7
-5 3 2 164.38 12.7
3 5 2 194.58 20.3
5 -3 2 197.78 13.1
-5 5 -2 83.19 13
5 5 -2 80.89 8.6
-5 5 -2 78.69 10.8
5 5 -2 92.69 7.8
5 -5 2 82.89 9.2
5 5 2 82.69 7.1
-5 -5 2 67.79 9.2
-5 5 2 91.59 7
5 -5 2 75.89 8.7
5 -5 2 88.79 7
-5 5 2 88.09 8.1
5 5 2 84.79 9.3
-4 6 -2 628.24 42
6 4 -2 658.13 40.9
6 4 -2 639.74 40.9
-4 6 -2 633.24 42.7
-4 6 -2 612.54 41.4
6 4 -2 640.94 41.2
4 -6 2 710.23 40.7
-4 6 2 677.83 40.6
6 4 2 609.34 40.3
-6 -4 2 606.04 40.7
6 4 2 595.24 41.8
-6 -4 2 591.44 40.8
-4 6 2 589.34 40.8
4 -6 2 682.93 41
6 2 -2 1174.78 69.29
-2 6 -2 1026.3 69.79
-2 6 2 1125.89 69.09
-6 -2 2 1078.39 69.29
2 -6 2 1113.09 69.19
-2 6 2 1132.79 69.29
6 2 2 1078.29 69.89
6 2 2 985.3 68.89
-2 6 2 1162.98 75.59
6 0 -2 1043.3 70.19
0 6 -2 991.4 64.99
6 0 -2 1141.79 64.49
6 0 -2 983.7 64.69
6 0 2 1071.49 65.29
0 6 2 890.31 64.79
6 0 2 989.6 64.49
0 6 2 1041.6 70.69
-6 0 2 1066.49 64.79
2 6 -2 1028.7 66.79
2 6 -2 1094.59 66.49
6 -2 -2 999.9 71.59
-6 2 -2 958.4 67.19
6 -2 -2 1030.5 65.99
6 -2 2 1102.39 66.29
-6 2 2 1062.79 66.39
2 6 2 1094.79 73.89
2 6 2 998.9 65.99
6 -2 2 1146.59 67.19
-6 4 -2 601.54 41.2
4 6 -2 661.73 40.2
6 -4 -2 551.14 46
-6 4 -2 594.14 41.7
4 6 -2 635.34 40.2
-6 4 2 652.93 41.1
-4 -6 2 614.24 40.5
6 -4 2 621.54 41
4 6 2 595.34 39.7
-6 4 2 584.24 40.1
-6 4 2 701.03 40.1
6 -4 2 680.43 40.1
6 -4 2 622.64 40.4
4 6 2 613.74 41.2
-6 6 -2 87.89 14.7
-6 6 -2 92.99 12.5
6 6 -2 93.19 9.1
6 6 -2 96.19 9.1
6 6 2 93.29 8.2
6 -6 2 93.29 8.6
-6 -6 2 87.39 10.8
-6 6 2 90.89 11.5
-6 6 2 82.69 7.8
6 -6 2 99.29 9.2
7 5 -2 81.39 8.6
7 5 -2 54.49 14.7
7 5 -2 76.59 8.8
-5 7 2 82.19 12.3
5 -7 2 78.49 8.3
-5 7 2 88.09 7.5
5 -7 2 75.99 8.7
-3 7 -2 31.5 6.4
-3 7 -2 33.6 11.2
7 3 -2 18.6 4.4
7 3 -2 25.5 5.2
-3 7 -2 24.3 7
-3 7 -2 27.5 4.9
7 3 -2 17.7 5
-3 7 2 20.2 4.2
7 3 2 28 4.2
3 -7 2 20.4 4.4
7 3 2 21.4 5.5
7 1 -2 182.98 14
7 1 -2 204.28 13.5
7 1 -2 191.78 21.6
-1 7 -2 180.38 15.3
7 1 -2 176.88 14.1
-1 7 -2 188.48 13.8
-1 7 -2 182.98 14.6
-7 -1 2 173.68 12.9
-1 7 2 178.78 14.4
7 1 2 170.08 14.5
-7 -1 2 170.48 13.9
1 -7 2 207.98 13.4
7 1 2 179.78 12.8
-1 7 2 191.38 12.9
1 -7 2 199.98 14.5
7 -1 -2 177.48 14.1
7 -1 -2 191.08 12.9
1 7 -2 178.08 13
1 7 -2 160.38 14.5
-7 1 -2 175.58 15
1 7 -2 180.48 13.4
7 -1 -2 179.58 20.7
7 -1 2 194.58 12.7
-1 -7 2 166.58 14.5
-7 1 2 180.98 13.8
-7 1 2 189.98 12.8
1 7 2 182.08 12.6
7 -1 2 197.48 14.5
-7 3 -2 31.4 7.7
3 7 -2 19.1 4.9
7 -3 -2 24.2 11.1
3 7 -2 15.8 4.8
3 7 -2 14.8 4.1
7 -3 2 12.5 5.6
7 -3 2 23 4.3
-7 3 2 16.5 4
7 -3 2 23.3 5.8
-3 -7 2 23.3 5.9
-7 3 2 18.8 5.1
5 7 -2 82.79 8.2
5 7 -2 92.99 8.6
7 -5 2 78.59 7.9
7 -5 2 73.79 9.1
-7 5 2 70.19 9.8
-7 5 2 85.89 7.7
7 7 -2 159.18 13.2
-7 7 -2 156.78 18.2
7 7 -2 170.18 14.3
7 -7 2 167.88 13.8
-7 7 2 155.28 14.2
7 7 2 140.69 14.8
7 -7 2 165.48 13.2
-7 7 2 166.88 13.1
-6 8 -2 112.69 16.6
8 6 -2 86.49 13.9
-6 8 -2 88.89 11.4
8 6 -2 82.09 9.4
8 6 2 89.69 13.5
6 -8 2 89.09 9.4
-6 8 2 77.09 11.5
-6 8 2 87.29 8.6
6 -8 2 86.49 11.8
-4 8 -2 484.75 34.8
-4 8 -2 484.65 34.6
8 4 -2 568.64 35.8
-4 8 -2 477.95 35.7
8 4 -2 559.74 34.8
-4 8 2 598.14 34.5
4 -8 2 562.84 34.9
8 4 2 492.45 33.9
8 4 2 493.75 37.3
-8 -4 2 469.35 34.3
4 -8 2 551.84 34.6
-4 8 2 548.15 36.2
-2 8 -2 476.55 32.1
-2 8 -2 454.65 32.5
8 2 -2 504.95 35.3
-8 -2 -2 468.85 34.5
8 2 -2 557.84 32.7
8 2 -2 569.04 32.4
-2 8 -2 454.15 33.2
-2 8 -2 466.05 32.3
-8 -2 2 472.25 32.2
-8 -2 2 454.35 32.1
-2 8 2 553.64 32.1
2 -8 2 548.65 32.6
8 2 2 439.06 31.7
8 2 2 463.05 34
0 8 -2 1233.38 73.19
8 0 -2 1158.78 73.49
0 8 -2 1122.19 73.19
-8 0 -2 1091.19 73.89
8 0 -2 1080.79 81.69
8 0 -2 1225.08 73.29
0 8 -2 1125.99 73.59
0 8 -2 1172.48 73.39
-8 0 2 1172.68 73.19
-8 0 2 1222.98 73.19
8 0 2 1164.98 72.99
0 -8 2 1133.19 73.39
8 0 2 1100.29 73.49
0 8 2 1174.68 72.99
2 8 -2 565.24 33.2
2 8 -2 527.75 33.2
2 8 -2 512.55 33.6
8 -2 -2 461.65 33.1
-8 2 -2 475.25 34
8 -2 2 544.15 33
-8 2 2 524.25 33.2
2 8 2 456.75 32.7
-8 2 2 524.05 33
8 -2 2 527.05 33.5
-2 -8 2 454.35 33.8
4 8 -2 557.44 35.2
4 8 -2 560.34 35.4
-8 4 -2 475.15 36.4
8 -4 -2 489.35 35
4 8 -2 498.05 36.4
8 -4 2 581.94 35
-8 4 2 538.65 34.9
-8 4 2 544.75 35.6
8 -4 2 575.34 35.3
4 8 2 513.85 34.8
6 8 -2 76.79 8.9
-8 6 -2 86.39 15.1
-8 6 2 68.69 8.6
8 -6 2 78.29 9.1
8 -6 2 86.59 9.6
-8 6 2 80.49 9.8
8 8 -2 27.5 7.8
-8 8 -2 13.7 11.7
8 8 -2 21.8 5.8
-8 8 2 11.5 6.4
8 -8 2 24 6
9 7 -2 1224.48 74.59
9 7 -2 1282.97 75.49
-7 9 -2 1090.79 74.39
-7 9 -2 1044.8 76.49
9 7 2 1192.28 74.79
7 -9 2 1191.38 74.49
9 7 2 1068.99 75.89
-7 9 2 1233.28 75.29
-7 9 2 1193.88 74.99
9 5 -2 968.2 62.09
-5 9 -2 879.51 61.59
9 5 -2 949.9 60.09
-5 9 -2 920.31 60.29
5 -9 2 936.71 59.99
9 5 2 939.11 59.99
-5 9 2 975.4 60.29
-5 9 2 911.71 60.79
9 5 2 958.6 61.59
-3 9 -2 928.71 60.49
9 3 -2 966.6 60.69
-3 9 -2 922.31 60.29
9 3 -2 935.41 60.09
-3 9 -2 993.3 60.19
9 3 2 951.7 59.99
-3 9 2 895.81 61.29
9 3 2 925.81 60.89
3 -9 2 902.41 59.99
-3 9 2 987.9 60.29
9 1 -2 493.55 31.5
-1 9 -2 427.16 31.6
-1 9 -2 441.26 30.8
-9 -1 2 486.55 30.8
-1 9 2 465.15 30.4
9 1 2 454.75 30.3
9 1 2 461.65 31.2
-9 -1 2 507.35 30.9
-1 9 2 414.56 37
9 -1 -2 488.05 31.2
1 9 -2 463.95 31.9
1 9 -2 446.06 31.2
9 -1 2 502.05 31
1 9 2 462.35 30.9
9 -1 2 488.45 31.4
-9 1 2 453.75 31
3 9 -2 887.81 59.19
3 9 -2 874.01 59.29
9 -3 -2 926.51 59.19
3 9 -2 932.01 58.89
-9 3 2 931.01 58.99
3 9 2 943.41 58.99
9 -3 2 928.01 58.99
9 -3 2 949.71 58.99
-9 3 2 927.11 58.99
5 9 -2 900.61 58.99
9 -5 -2 923.61 59.09
5 9 -2 874.91 59.39
5 9 -2 926.61 59.59
9 -5 2 968.2 59.19
-9 5 2 918.01 59.19
9 -5 2 924.81 59.09
5 9 2 941.11 59.39
-9 5 2 920.51 59.29
7 9 -2 1264.77 77.89
7 9 -2 1170.28 77.49
7 9 -2 1213.78 77.09
9 -7 2 1196.98 76.99
9 -7 2 1153.88 77.39
-9 7 2 1280.47 77.39
7 9 2 1155.78 77.39
-9 7 2 1244.58 77.39
9 9 -2 1165.48 76.59
9 9 -2 1084.79 77.59
9 9 2 1239.18 77.29
9 9 2 1206.98 83.59
-9 9 2 1225.48 77.29
9 -9 2 1239.18 76.59
-9 9 2 1265.17 76.99
10 8 -2 -1.5 11.3
10 8 -2 24.7 5.8
10 8 2 6.2 6.8
-8 10 2 20.5 7
8 -10 2 14.7 5.6
10 6 -2 92.09 9.7
10 6 -2 85.19 13.9
-6 10 -2 85.99 12
-6 10 2 99.19 12.3
10 6 2 88.39 15.3
10 6 2 92.39 9.9
6 -10 2 89.69 10.3
-4 10 -2 510.55 35.3
-4 10 -2 544.15 37
10 4 -2 543.35 36.3
10 4 -2 538.75 34.9
-4 10 -2 494.85 36.9
-4 10 2 561.24 35.2
-4 10 2 524.15 36
4 -10 2 537.55 35
10 4 2 518.85 34.7
10 4 2 521.85 36.1
10 2 -2 837.52 51.79
-2 10 -2 769.72 50.89
10 2 -2 855.81 50.59
-2 10 -2 807.92 50.59
-2 10 -2 684.33 52.49
-2 10 -2 722.73 51.39
2 -10 2 789.92 50.49
-2 10 2 827.82 52.09
-10 -2 2 772.12 50.19
10 2 2 766.22 50.79
10 2 2 803.52 50.49
0 10 -2 1234.68 77.29
0 10 -2 1257.07 76.99
10 0 -2 1293.17 76.99
0 10 -2 1168.68 77.49
10 0 2 1166.48 76.99
-10 0 2 1264.77 76.89
-10 0 2 1216.68 77.29
0 10 2 1106.29 77.99
2 10 -2 785.32 53.69
2 10 -2 831.32 53.19
10 -2 -2 784.22 52.99
2 10 -2 852.41 53.99
2 10 2 811.52 53.29
10 -2 2 843.52 53.29
10 -2 2 863.01 53.29
-10 2 2 842.82 53.09
-10 2 2 843.42 54.29
4 10 -2 524.85 36
4 10 -2 526.15 35.3
4 10 -2 496.75 35.9
10 -4 -2 529.85 35.2
4 10 2 528.75 35.6
10 -4 2 553.14 35.4
-10 4 2 541.95 35.6
-10 4 2 559.54 35.3
10 -4 2 558.14 35.5
6 10 -2 100.59 10
10 -6 -2 99.29 11.8
6 10 -2 78.89 12.4
6 10 -2 98.19 11.2
10 -6 2 90.79 9.6
-10 6 2 92.59 10.7
10 -6 2 80.69 11.6
-10 6 2 90.29 9.8
6 10 2 86.59 11.4
8 10 -2 11.2 5.9
8 10 -2 8 10.4
8 10 -2 20.2 6.1
-10 8 2 15.1 5.7
-10 8 2 1.3 6.9
8 10 2 10.5 7.6
10 -8 2 15.6 5.6
10 10 -2 9.7 5.1
10 10 -2 12.6 5
-10 10 2 10.9 11.7
10 -10 2 13.7 4.9
-10 10 2 3.9 4.6
10 10 2 9.5 9.7
10 10 2 0.4 11.5
11 9 -2 496.55 32.1
11 9 -2 497.45 32.5
11 9 2 407.16 34
-9 11 2 458.65 34.7
11 9 2 485.25 33.9
-9 11 2 542.95 32.5
9 -11 2 514.15 32
11 7 -2 277.77 18.7
11 7 -2 243.08 24.5
11 7 2 223.18 23
-7 11 2 279.17 19.9
-7 11 2 225.58 19.3
7 -11 2 263.67 20.6
11 5 -2 156.98 19.2
-5 11 -2 124.79 21.4
11 5 -2 186.28 13.6
-5 11 -2 154.68 15
11 5 2 138.69 16
11 5 2 168.68 13.7
5 -11 2 180.08 14.2
-5 11 2 180.78 14.3
-5 11 2 181.28 15.6
11 3 -2 42.2 11.5
-3 11 -2 44.4 9.4
11 3 -2 34.3 6
-3 11 -2 59.49 13.2
-3 11 -2 35.9 10.6
11 3 2 58.69 10
11 3 2 51.59 7.1
-3 11 2 43.5 7.8
-3 11 2 38 8.5
3 -11 2 42.1 7.3
-1 11 -2 37.3 8.4
-1 11 -2 48.2 8.8
-1 11 -2 47.1 7.7
-1 11 -2 41.4 10.5
11 1 2 41.5 6.8
-1 11 2 57.59 9.6
-11 -1 2 39.6 7.9
1 -11 2 46.8 9.1
11 1 2 48.3 8.3
1 11 -2 61.89 9.1
1 11 -2 64.29 8.2
1 11 -2 73.09 10.8
-11 1 2 64.69 7.9
1 11 2 50.49 12.3
11 -1 2 59.59 8.6
11 -1 2 67.39 7.7
3 11 -2 29 5.6
3 11 -2 48.1 10.1
3 11 -2 32.4 7.4
11 -3 -2 40.6 7.4
-11 3 2 41.4 10.6
-11 3 2 40.7 6.8
11 -3 2 38.7 7.4
3 11 2 41.1 8.4
11 -3 2 41.4 6.3
5 11 -2 179.78 16.8
5 11 -2 166.88 15.5
11 -5 -2 158.38 14.1
5 11 -2 171.78 14.1
11 -5 2 183.98 13.9
-11 5 2 190.08 13.6
11 -5 2 171.88 15.2
5 11 2 151.98 15
-11 5 2 177.98 15.7
7 11 -2 272.37 20.5
7 11 -2 233.18 22.9
7 11 -2 271.97 19.5
11 -7 2 258.57 18.8
-11 7 2 255.97 21.8
-11 7 2 274.87 19
9 11 -2 485.35 33.1
9 11 -2 529.85 33.8
9 11 2 480.75 35.1
11 -9 2 495.45 32.8
-11 9 2 519.45 32.9
11 11 -2 151.88 11.7
11 -11 2 143.89 11.8
-11 11 2 143.99 11.5
12 10 -2 71.19 7.3
-10 12 2 87.49 7.7
12 8 -2 74.49 8.6
12 8 -2 70.49 7.7
-8 12 2 69.39 8.9
12 8 2 41.5 10.4
12 8 2 56.79 12.3
8 -12 2 68.29 9.3
12 6 -2 47.7 7.6
-6 12 2 63.59 10.4
6 -12 2 52.49 9.7
-6 12 2 49.99 10.3
12 4 -2 136.99 11.2
-4 12 -2 108.89 18.7
-4 12 -2 111.79 13.1
-4 12 2 127.39 12.3
12 4 2 125.79 11.7
-4 12 2 128.39 13.7
4 -12 2 132.79 13.2
12 4 2 124.79 13.3
-2 12 -2 348.47 25.8
-2 12 -2 349.47 27.4
12 2 -2 398.86 24.9
-2 12 -2 347.97 28.6
-2 12 -2 338.27 25.1
12 2 2 361.46 25.3
12 2 2 372.46 25.2
-2 12 2 375.36 26.6
2 -12 2 378.96 25.9
-2 12 2 390.86 25.7
0 12 -2 865.31 57.59
0 12 -2 896.31 56.59
12 0 -2 931.31 56.39
0 12 -2 900.51 56.89
0 12 -2 851.31 57.49
0 12 2 818.62 57.59
0 -12 2 841.42 56.79
12 0 2 906.21 56.69
12 0 2 884.01 56.49
-12 0 2 907.51 56.79
2 12 -2 377.36 25.4
2 12 -2 363.76 25
12 -2 -2 369.26 24.6
2 12 -2 371.56 26.3
12 -2 2 389.06 25
-12 2 2 392.86 24.5
12 -2 2 404.26 25.4
-2 -12 2 312.97 26.4
2 12 2 333.37 25.6
2 12 2 302.07 29
4 12 -2 108.99 11.3
4 12 -2 105.69 12
12 -4 -2 132.89 11.1
4 12 -2 89.59 15.5
4 12 -2 112.09 13.4
12 -4 2 113.29 12.5
12 -4 2 135.69 11.1
4 12 2 120.59 12.8
-12 4 2 130.39 10.4
6 12 -2 52.39 8.7
6 12 -2 51.99 22.9
6 12 -2 49.5 10.7
6 12 2 31.9 12.4
12 -6 2 41.1 7.4
-12 6 2 46.1 7.1
8 12 -2 81.19 10.1
8 12 -2 70.59 8.4
-12 8 2 70.39 7.4
12 -8 2 58.69 7.2
8 12 2 44 11.8
8 12 2 59.09 13.7
10 12 -2 76.59 8.4
10 12 -2 68.59 7.3
10 12 2 60.79 12.7
13 7 -2 48.4 7.8
13 7 -2 50.49 6.5
13 7 2 60.49 12.6
13 7 2 39.1 8.3
-7 13 2 34 11.9
-7 13 2 46.2 8
13 5 -2 20.3 5.1
-5 13 -2 24.7 7.6
5 -13 2 28 9.3
13 5 2 37.1 9.2
13 5 2 49.3 9.3
-5 13 2 39.5 10.7
-5 13 2 30.2 7
-3 13 -2 139.49 13.1
13 3 -2 136.69 11.7
-3 13 2 163.88 14.1
-3 13 2 141.09 13.2
3 -13 2 105.29 15.3
13 3 2 119.09 12.4
13 3 2 120.69 12.5
-1 13 -2 447.06 28.6
-1 13 -2 428.46 29.7
13 1 -2 461.25 28.2
-1 13 -2 439.36 32.1
-1 13 -2 371.96 34.6
13 1 2 353.86 28.1
-1 13 2 411.66 28.6
13 1 2 436.96 30.2
13 -1 -2 410.66 30.2
1 13 -2 472.85 30.6
1 13 -2 455.05 33
1 13 -2 487.65 30
13 -1 2 449.95 29.7
13 -1 2 377.96 29.6
3 13 -2 150.98 13.8
3 13 -2 131.79 14.6
3 13 -2 145.69 12.6
13 -3 -2 123.99 11.4
3 13 2 140.19 14.4
13 -3 2 139.79 11.5
13 -3 2 135.49 13.9
3 13 2 140.49 22.2
5 13 -2 18.6 5.4
5 13 -2 15 5.4
5 13 -2 13.6 6.4
13 -5 -2 11.9 5.9
5 13 2 21.6 11.3
-13 5 2 18.5 5.1
7 13 -2 59.29 9.6
7 13 -2 48.9 8.4
7 13 -2 57.69 7.7
7 13 2 82.39 15.5
13 -7 2 51.29 6.3
14 6 -2 153.48 13.2
14 6 -2 153.38 11.4
14 6 2 173.28 18.4
-6 14 2 162.88 12.7
14 6 2 139.09 13.2
14 4 -2 75.89 7.5
-4 14 -2 65.59 12.9
14 4 -2 57.79 12
-4 14 2 70.09 10.1
14 4 2 78.79 9
14 4 2 72.49 12.2
-4 14 2 94.99 13
-2 14 -2 21.6 6.6
14 2 -2 31.5 4.9
14 2 2 19.3 5.4
-2 14 2 30.6 6.9
-2 14 2 25.4 7.9
14 2 2 21.3 7.8
14 0 -2 10.2 4.4
0 14 -2 -0.2 10.4
0 14 -2 8.3 5.9
0 14 -2 13.8 5.4
14 0 2 14.6 8.3
0 14 2 13.4 6.8
0 14 2 9.7 7
14 0 2 15.7 4.3
2 14 -2 24.1 6.2
2 14 -2 29.5 5.7
14 -2 -2 25.7 4.8
2 14 -2 28 8.7
14 -2 2 30.1 5.7
14 -2 2 39.9 10.6
2 14 2 14.8 7.5
4 14 -2 84.99 12.5
4 14 -2 88.19 8.5
14 -4 -2 74.39 8.9
4 14 -2 89.09 9.6
4 14 2 74.09 12.1
4 14 2 64.89 15.1
14 -4 2 67.19 7.6
6 14 -2 144.39 12.4
6 14 -2 154.28 11.7
6 14 -2 135.59 13.8
6 14 2 172.38 20.7
14 -6 2 155.18 11.1
15 3 -2 103.89 8.6
-1 15 -2 281.47 21.6
15 1 -2 317.27 20.6
-1 15 2 350.16 22.4
15 1 2 292.07 20.8
15 -1 -2 252.77 19.7
1 15 -2 328.27 20.7
1 15 2 284.47 24
1 15 2 309.97 21.7
15 -1 2 304.67 19.9
15 -3 -2 86.99 10.3
3 15 -2 107.09 10.2
3 15 -2 120.89 25.7
3 15 -2 105.79 9.4
15 -3 2 108.99 8.5
3 15 2 88.49 17
-1 0 -3 2136.19 127.09
0 1 -3 2115.29 129.49
-1 0 -3 2090.19 129.09
0 1 -3 2138.59 126.99
0 -1 -3 2161.48 129.89
1 0 -3 2014.6 129.99
-1 0 3 1808.72 126.89
0 1 3 1929.31 126.69
0 -1 3 2008.9 126.89
0 1 3 2178.98 130.59
1 0 3 1856.91 126.89
1 0 3 1966.7 126.79
-1 2 -3 3076.79 181.68
-1 2 -3 2983.7 179.78
1 -2 -3 3068.59 183.28
2 1 -3 2808.62 183.28
1 -2 3 2693.43 179.68
1 -2 3 2708.83 179.58
-1 2 3 2967 183.68
2 1 3 2708.13 179.78
2 1 3 2909.31 182.48
-2 1 -3 2817.22 176.38
1 2 -3 2833.22 175.68
-2 1 -3 2929.41 177.08
2 -1 -3 3093.69 179.98
1 2 -3 2815.12 178.98
2 -1 3 2603.84 175.58
-2 1 3 2644.14 175.68
1 2 3 3070.89 179.58
2 -1 3 2518.85 175.78
1 2 3 2857.81 175.88
-2 3 -3 995.2 58.99
3 2 -3 867.31 66.29
-2 3 -3 952.1 58.29
2 -3 -3 945.41 62.29
-2 3 3 874.21 57.69
2 -3 3 901.71 58.09
2 -3 3 914.61 57.89
3 2 3 927.41 58.39
3 2 3 903.31 61.89
-3 0 -3 1672.63 105.19
3 0 -3 1763.52 109.19
0 3 -3 1684.03 107.49
0 3 -3 1721.03 105.19
3 0 3 1631.64 104.49
0 3 3 1690.63 108.89
0 3 3 1511.05 104.69
3 0 3 1647.14 105.09
-3 0 3 1752.22 104.89
2 3 -3 923.31 57.79
3 -2 -3 915.91 62.39
-3 2 -3 931.51 58.79
2 3 -3 920.01 62.19
-3 2 3 805.62 57.69
2 3 3 1008.6 62.69
2 3 3 997.5 58.39
3 -2 3 890.01 57.79
3 -2 3 882.31 58.09
-3 4 -3 2270.77 146.79
3 -4 -3 2320.77 151.68
4 3 -3 2335.77 145.99
4 3 -3 2407.86 152.78
-4 -3 3 2459.35 146.39
-3 4 3 2179.78 145.99
-3 4 3 2391.96 152.68
3 -4 3 2286.27 146.09
4 3 3 2429.96 146.99
4 3 3 2291.17 151.38
-1 4 -3 1703.93 107.69
4 1 -3 1687.33 110.79
-1 4 3 1606.54 105.29
-1 4 3 1792.82 110.99
1 -4 3 1657.63 105.69
4 1 3 1789.12 106.39
-4 -1 3 1635.74 105.79
4 1 3 1688.43 105.09
4 1 3 1592.24 107.49
1 4 -3 1732.93 108.79
4 -1 -3 1732.63 113.79
1 4 3 1829.52 109.09
-1 -4 3 1871.61 108.89
4 -1 3 1529.85 109.79
-4 1 3 1661.13 108.69
4 -1 3 1692.53 108.49
1 4 3 1837.22 114.29
4 -3 -3 2303.47 150.88
3 4 -3 2276.67 145.19
3 4 -3 2209.18 145.29
-4 3 -3 2329.07 145.99
3 4 3 2410.46 151.78
-3 -4 3 2469.75 145.49
4 -3 3 2270.37 145.09
4 -3 3 2282.57 145.69
3 4 3 2441.86 146.09
-4 3 3 2224.88 145.09
5 4 -3 1533.75 93.39
-4 5 -3 1437.86 94.29
-4 5 -3 1408.36 93.99
-5 -4 3 1334.77 93.39
4 -5 3 1669.03 93.39
-5 -4 3 1429.36 93.49
5 4 3 1362.36 94.39
4 -5 3 1535.85 93.69
-4 5 3 1635.44 93.29
-2 5 -3 903.51 61.69
-2 5 -3 907.51 60.99
5 2 -3 1041.3 67.99
-2 5 -3 869.31 60.79
-5 -2 3 961.8 60.89
-2 5 3 940.81 59.79
5 2 3 1006.9 61.09
2 -5 3 958.1 60.99
-5 -2 3 1042.9 60.49
5 2 3 957.2 59.79
2 -5 3 955.9 60.19
5 2 3 890.61 65.39
0 5 -3 475.25 30.8
5 0 -3 446.36 36.3
5 0 3 476.45 31.1
0 -5 3 520.05 30.5
0 5 3 484.25 37.9
5 0 3 456.25 30.1
-5 0 3 449.16 30.4
2 5 -3 924.21 62.49
-5 2 -3 947.71 62.99
5 -2 -3 953.3 68.29
-5 2 -3 924.91 62.59
2 5 -3 989.4 62.19
-5 2 -3 1058.99 63.89
2 5 -3 914.61 62.09
5 -2 3 1017.1 61.79
-2 -5 3 940.51 62.29
5 -2 3 1001.9 62.59
-2 -5 3 973.7 61.99
2 5 3 1004.8 70.29
-5 2 3 1012 61.99
2 5 3 1061.49 63.39
4 5 -3 1511.15 89.39
4 5 -3 1518.35 88.89
-5 4 -3 1296.07 89.59
-5 4 -3 1282.97 89.59
4 5 -3 1320.97 89.69
5 -4 -3 1315.37 95.99
4 5 -3 1478.25 89.39
5 -4 3 1446.56 89.39
5 -4 3 1488.15 89.09
5 -4 3 1563.74 88.99
-4 -5 3 1328.37 89.09
4 5 3 1380.56 90.19
5 -4 3 1412.86 89.79
-4 -5 3 1421.36 89.09
6 5 -3 571.74 34.8
6 5 -3 550.24 35.7
-5 6 -3 507.25 36
-5 6 -3 518.35 36.2
5 -6 3 524.95 34.7
-6 -5 3 554.24 35
5 -6 3 523.55 34.8
-5 6 3 546.35 34.7
6 5 3 519.85 34.3
-6 -5 3 542.95 35
-5 6 3 512.05 37
6 3 -3 621.84 41.1
-3 6 -3 658.13 42
6 3 -3 591.24 51.29
-3 6 -3 670.43 43
-3 6 3 595.04 40.8
3 -6 3 575.64 40.9
-6 -3 3 724.43 41.5
6 3 3 666.43 42.6
6 3 3 639.44 40.6
-6 -3 3 742.43 41.3
3 -6 3 551.14 41.3
-6 -1 -3 685.93 47.8
6 1 -3 702.53 47.3
-1 6 -3 769.32 47.2
6 1 -3 702.93 55.09
-1 6 -3 753.52 47.8
1 -6 3 754.72 47.1
-6 -1 3 764.82 47.6
-1 6 3 746.73 46.8
-1 6 3 733.43 47.2
6 1 3 782.32 48.2
1 -6 3 684.73 47.4
6 1 3 782.72 46.8
1 6 -3 698.53 47.5
6 -1 -3 749.13 54.89
-6 1 -3 731.33 47.9
1 6 -3 700.83 47.8
1 6 -3 697.03 47.4
1 6 -3 735.73 47
-6 1 -3 784.32 47.8
-6 1 3 708.33 46.9
6 -1 3 717.43 48
6 -1 3 722.43 46.7
1 6 3 827.12 48
-1 -6 3 825.72 47.1
-6 1 3 673.63 47.4
3 6 -3 570.14 39.9
3 6 -3 565.94 40.5
6 -3 -3 634.94 49.5
3 6 -3 579.04 40.4
-6 3 -3 672.83 41.3
-6 3 -3 702.73 41.2
6 -3 3 599.44 40.6
-3 -6 3 671.83 40.2
3 6 3 658.23 41.9
6 -3 3 569.34 41.3
-6 3 3 615.84 40
6 -3 3 628.04 40
-3 -6 3 676.63 40.5
-6 3 3 584.04 41
5 6 -3 540.75 35.8
5 6 -3 562.24 35.9
-6 5 -3 545.35 36.4
-6 5 -3 550.04 36.7
5 6 -3 534.25 35.1
6 -5 3 543.15 35.1
5 6 3 515.05 34.9
-5 -6 3 539.25 35.3
-5 -6 3 534.25 35.4
-6 5 3 549.74 35.2
6 -5 3 569.44 35.5
-6 5 3 506.85 36.2
7 6 -3 358.06 22.5
-6 7 -3 289.97 24.4
7 6 -3 342.27 23.2
-6 7 -3 301.97 23.8
7 6 -3 356.96 25.2
7 6 3 296.07 22.3
-6 7 3 306.37 23.9
-7 -6 3 317.27 22.5
6 -7 3 335.67 22.5
-6 7 3 352.26 22.5
7 4 -3 1020.9 59.29
-4 7 -3 864.81 58.99
7 4 -3 1010.7 57.69
-4 7 -3 813.72 58.19
-4 7 3 947.41 57.49
-7 -4 3 844.92 57.59
7 4 3 790.42 56.99
4 -7 3 971.5 57.59
-7 -4 3 853.41 57.59
-2 7 -3 453.15 31.7
-2 7 -3 417.26 35.2
-2 7 -3 454.35 32.6
7 2 -3 559.04 32
-2 7 -3 465.75 32.7
-7 -2 -3 516.85 33
-7 -2 3 493.35 31.7
-7 -2 3 502.55 32
2 -7 3 505.85 32.1
7 2 3 461.55 31.3
2 -7 3 510.35 31.7
0 7 -3 139.99 12.4
0 7 -3 130.59 13.1
0 7 -3 144.29 13
7 0 -3 143.09 12.1
0 7 -3 148.99 11.5
-7 0 -3 140.69 12.4
-7 0 3 168.78 11.8
0 7 3 134.79 10.8
7 0 3 140.69 10.6
-7 0 3 168.48 11
0 -7 3 149.29 11
0 -7 3 140.49 11.8
7 0 3 140.79 16.6
2 7 -3 511.55 31.9
2 7 -3 518.25 32.6
7 -2 -3 436.66 32.6
2 7 -3 515.95 32.6
-7 2 -3 462.15 32.8
-7 2 -3 440.06 33
2 7 3 456.05 31.6
7 -2 3 526.85 31.9
-2 -7 3 486.75 32.1
-7 2 3 501.25 32.5
-7 2 3 541.55 32.1
7 -2 3 483.05 32.7
-2 -7 3 494.35 32.3
4 7 -3 942.91 58.09
-7 4 -3 853.61 58.89
4 7 -3 975.4 58.39
4 7 3 816.12 57.49
-4 -7 3 812.82 57.89
-7 4 3 981.3 57.99
7 -4 3 937.71 57.99
-4 -7 3 849.61 57.79
-7 4 3 914.01 58.19
7 -4 3 977.4 57.89
-7 6 -3 307.37 24.5
6 7 -3 358.46 24.7
-7 6 -3 295.77 23.7
6 7 -3 357.76 22.6
6 7 -3 339.17 23.4
7 -6 3 352.96 22.8
6 7 3 293.97 22.7
7 -6 3 336.47 23
-7 6 3 359.86 22.9
-7 6 3 329.97 23.6
-6 -7 3 294.77 22.7
8 7 -3 53.29 9.5
-7 8 -3 40.1 9.1
8 7 -3 55.99 8.1
-7 8 3 61.69 7.9
7 -8 3 55.09 10.4
8 7 3 50.19 9
7 -8 3 44.5 8
-7 8 3 57.69 10.1
-5 8 -3 148.39 14.8
8 5 -3 143.69 12.1
-5 8 3 144.39 16.1
8 5 3 129.79 12.7
-5 8 3 134.49 11.6
-8 -5 3 159.88 12.1
5 -8 3 156.58 12.1
-3 8 -3 744.93 47.7
8 3 -3 682.43 46.9
-3 8 -3 755.12 48
-3 8 -3 728.03 49.5
-8 -3 3 803.12 47
3 -8 3 644.24 47
-8 -3 3 769.82 47.1
-3 8 3 685.53 46.8
8 3 3 753.32 46.7
-1 8 -3 541.05 34.4
-1 8 -3 559.44 33.9
-8 -1 -3 493.45 34.9
8 1 -3 478.05 33.8
1 -8 -3 587.64 36
-1 8 -3 532.35 34.9
-1 8 -3 539.25 39.7
1 -8 3 450.25 34.5
1 -8 3 470.55 33.8
-1 8 3 455.15 33.4
8 1 3 533.25 35.8
-8 -1 3 525.05 33.7
8 1 3 560.34 33.6
8 -1 -3 554.84 33.2
-8 1 -3 505.85 33.9
1 8 -3 502.55 33.2
1 8 -3 472.05 33.2
1 8 3 530.55 32.6
-8 1 3 467.15 32.8
8 -1 3 484.45 32.8
8 -1 3 457.15 33.6
-1 -8 3 541.15 33.3
-1 -8 3 519.35 33.3
-8 1 3 489.15 33.8
3 8 -3 659.83 45.5
8 -3 -3 716.03 45.3
-8 3 -3 718.13 46.2
3 8 -3 651.73 45.5
-8 3 -3 789.32 46.2
3 8 -3 665.23 44.8
-3 -8 3 809.92 45.9
3 8 3 725.73 44.8
-8 3 3 624.64 45.1
-8 3 3 640.34 45
8 -3 3 678.03 45
5 8 -3 146.99 15.9
-8 5 -3 167.38 15.3
-8 5 -3 174.88 13.8
5 8 -3 149.69 12.3
5 8 -3 146.79 13.7
-8 5 3 164.28 12.6
-8 5 3 145.29 12.9
8 -5 3 155.78 12.5
-5 -8 3 151.18 13.8
8 -5 3 150.78 13
5 8 3 140.89 15.3
-8 7 -3 30.5 8.9
7 8 -3 58.29 9.3
7 8 -3 48.7 12.1
7 8 -3 52.59 7.7
8 -7 3 47.6 8.3
-8 7 3 51.49 7.4
-8 7 3 50.59 9.3
7 8 3 60.09 9.8
8 -7 3 41.8 8.7
-8 9 -3 145.79 18.2
9 8 -3 153.88 13.8
9 8 -3 155.78 12.5
-8 9 3 138.99 13
9 8 3 126.79 14
-8 9 3 137.99 13.7
8 -9 3 147.09 12.5
9 6 -3 98.59 10.9
9 6 -3 91.59 9.4
-6 9 -3 77.49 13.8
9 6 3 69.19 9.7
-6 9 3 105.19 12.2
6 -9 3 77.29 14.7
-6 9 3 86.29 9.1
6 -9 3 94.59 9.6
-4 9 -3 236.38 20.7
9 4 -3 291.27 19.1
-4 9 -3 227.78 21.5
9 4 3 227.28 18.5
4 -9 3 297.87 19.1
4 -9 3 316.97 23.1
-4 9 3 285.67 22.6
9 2 -3 108.19 10.5
-9 -2 -3 107.99 13.9
2 -9 -3 104.39 22.8
-2 9 -3 120.29 10.7
-2 9 -3 112.19 12.4
-2 9 -3 112.99 12.3
2 -9 3 111.49 13.2
9 2 3 130.99 10.1
-9 -2 3 122.39 11.3
-9 -2 3 126.39 10
0 9 -3 112.89 10.1
-9 0 -3 106.59 11.6
0 9 -3 117.99 12
0 9 -3 107.09 11.6
0 9 -3 120.29 14.3
9 0 -3 108.39 10.6
-9 0 3 122.19 10.1
-9 0 3 125.99 10.1
0 -9 3 137.79 14.2
9 0 3 104.09 13.9
0 9 3 113.99 10.3
2 9 -3 112.69 11.7
9 -2 -3 118.39 11.4
2 9 -3 123.69 11.4
2 9 -3 113.69 10.3
-9 2 -3 122.59 11.6
-9 2 3 112.79 10.8
-2 -9 3 126.59 12.1
2 9 3 113.79 10.8
-9 2 3 123.79 10.2
9 -2 3 106.59 11.4
9 -2 3 121.19 10.2
4 9 -3 288.17 21.2
4 9 -3 293.07 23.4
4 9 -3 287.87 20.1
9 -4 3 284.07 20.5
-4 -9 3 236.18 22.2
-9 4 3 299.77 20.2
9 -4 3 309.87 20.3
-9 4 3 294.97 20.3
6 9 -3 107.79 11.5
6 9 -3 68.19 17.5
6 9 -3 93.99 9.9
9 -6 3 102.09 10.4
-9 6 3 110.29 10.6
6 9 3 74.89 11.7
9 -6 3 114.69 10.4
-9 6 3 97.99 9.9
8 9 -3 159.08 14.3
8 9 -3 161.38 12.8
9 -8 3 150.68 12.6
8 9 3 118.09 15
-9 8 3 153.78 13.4
-9 8 3 154.28 13.6
10 9 -3 231.28 17.7
10 9 -3 233.38 16.7
9 -10 3 238.08 16.7
-9 10 3 238.38 17.2
-9 10 3 214.58 19
10 9 3 238.28 19.7
10 7 -3 118.19 12.5
10 7 -3 115.09 11.1
-7 10 -3 109.99 23.8
-7 10 3 121.69 13.1
-7 10 3 119.99 11.9
7 -10 3 139.39 11.5
10 7 3 114.79 12.5
-5 10 -3 318.57 26.1
10 5 -3 368.06 23.9
10 5 3 338.27 23.9
5 -10 3 341.97 23.9
-5 10 3 354.06 25.6
-5 10 3 360.96 24.3
3 -10 -3 362.76 27.2
10 3 -3 349.47 24.8
-3 10 -3 383.36 26.2
-3 10 -3 387.26 26.3
-3 10 3 367.46 24.9
10 3 3 368.36 27.4
3 -10 3 360.96 24.7
-10 -3 3 359.96 24.5
-3 10 3 333.07 27.8
10 3 3 365.96 24.6
-1 10 -3 163.28 14.4
-1 10 -3 163.48 13.2
10 1 -3 179.98 13.2
-1 10 -3 140.49 14.9
-10 -1 3 177.78 14.3
10 1 3 172.98 12.7
-10 -1 3 167.58 12.7
10 1 3 156.28 15.2
1 10 -3 183.38 18.8
1 10 -3 192.38 14.1
10 -1 -3 164.38 14.2
1 10 -3 181.88 15.5
1 10 -3 199.18 15.2
10 -1 3 165.98 14.8
-10 1 3 204.78 14.5
-10 1 3 193.48 13.9
1 10 3 161.28 14.4
10 -1 3 196.68 14
3 10 -3 370.56 27.7
3 10 -3 376.96 25.3
3 10 -3 359.36 24.7
3 10 -3 371.56 25.8
10 -3 -3 358.96 25.1
10 -3 3 356.76 24.8
-10 3 3 349.07 24.6
3 10 3 367.86 25.2
-10 3 3 366.96 24.9
10 -3 3 358.36 25
5 10 -3 353.56 25
5 10 -3 356.26 23.9
5 10 -3 336.67 29.5
-10 5 3 357.16 24
10 -5 3 353.06 24.1
10 -5 3 362.16 24.2
5 10 3 335.27 24.9
-10 5 3 321.17 24.1
7 10 -3 126.89 10.9
7 10 -3 122.99 12.7
10 -7 3 110.69 10.9
7 10 3 94.49 13.8
-10 7 3 129.89 11.1
-10 7 3 85.59 11.4
9 10 -3 259.97 18.1
9 10 -3 222.68 16.8
10 -9 3 229.48 16.7
9 10 3 203.88 20.3
-10 9 3 226.08 19.4
-10 9 3 249.97 17.1
11 10 -3 78.69 7.8
11 10 -3 77.59 8.8
10 -11 -3 89.79 9.3
-10 11 3 90.49 8
8 -11 -3 126.89 11.9
11 8 -3 122.09 10.5
11 8 -3 117.59 11.8
-8 11 3 138.39 11.6
11 8 3 109.79 14.5
8 -11 3 125.19 10.7
-8 11 3 130.29 13.8
6 -11 -3 361.16 25.5
11 6 -3 389.06 25.6
-6 11 -3 333.67 29.3
11 6 3 312.67 24.6
6 -11 3 396.36 27.7
-6 11 3 344.97 24.7
4 -11 -3 665.23 43.5
11 4 -3 695.33 41.7
-4 11 -3 594.64 43.1
11 4 -3 694.53 42.7
11 4 3 557.64 43.2
-4 11 3 681.13 42.2
11 4 3 613.54 41.6
-4 11 3 629.14 43
4 -11 3 614.24 41.6
-2 11 -3 373.76 26.6
-2 11 -3 384.76 27.2
11 2 -3 393.16 25.8
-2 11 3 380.16 28.9
-2 11 3 378.06 26.1
11 2 3 391.86 25.8
11 2 3 360.36 26.9
2 -11 3 362.46 25.9
-11 -2 3 399.66 25.5
0 11 -3 216.98 18.3
0 11 -3 221.68 17.8
11 0 -3 243.78 16.8
0 11 -3 236.28 16.8
-11 0 3 220.98 19.1
11 0 3 236.78 17.5
-11 0 3 226.38 16.2
11 0 3 224.88 16.5
2 11 -3 360.66 26.7
2 11 -3 393.46 26.4
2 11 -3 378.56 25.6
11 -2 -3 378.56 25.8
11 -2 3 391.86 26
2 11 3 400.36 26.5
11 -2 3 384.96 25.9
-11 2 3 346.87 26.3
-11 2 3 378.86 25.4
4 11 -3 624.74 43.1
4 11 -3 687.53 42.4
4 11 -3 674.43 42.6
4 11 3 601.14 42.9
-11 4 3 662.33 42.1
11 -4 3 668.13 42.6
11 -4 3 664.63 42.3
-11 4 3 608.04 42.6
6 11 -3 449.76 29.6
6 11 -3 385.46 29.3
11 -6 3 388.26 28.4
-11 6 3 363.16 28
11 -6 3 457.25 28.6
-11 6 3 389.76 28.6
8 11 -3 130.09 10.9
8 11 -3 130.09 12
8 11 -3 143.19 12.4
8 11 3 122.29 15.7
11 -8 3 120.69 10.5
-11 8 3 125.99 10.5
-11 8 3 117.99 15.8
11 -10 -3 68.69 8.2
10 11 -3 91.89 7.8
-11 10 3 76.59 7.2
9 -12 -3 195.78 17
12 9 -3 191.28 14.3
-9 12 3 173.58 13.7
9 -12 3 204.58 14.7
7 -12 -3 78.69 12.8
12 7 -3 98.99 8.4
-7 12 3 87.19 12.6
-7 12 3 86.69 9.9
12 7 3 77.89 13.1
-5 12 -3 251.47 24.5
12 5 -3 275.77 19.1
12 5 -3 284.57 20.6
-5 12 3 285.37 21
-5 12 3 286.97 20.5
5 -12 3 302.27 19.7
12 5 3 258.67 22.9
12 5 3 236.28 20.1
12 3 -3 336.97 21.6
12 3 -3 336.57 25.6
12 3 3 336.17 26.8
-3 12 3 285.17 22
3 -12 3 311.67 23.4
12 3 3 268.67 21.5
-1 12 -3 146.49 14.4
-1 12 -3 130.49 14.8
12 1 -3 159.58 12.3
-1 12 -3 140.69 12.6
12 1 3 144.79 13.6
-1 12 3 153.38 13.1
-12 -1 3 151.48 12.9
1 -12 3 165.08 13.2
-1 12 3 137.19 18
12 1 3 141.99 12.5
1 12 -3 148.29 14.6
1 12 -3 147.29 14
12 -1 -3 147.49 12.5
1 12 -3 142.79 12.3
12 -1 3 150.88 12.6
-12 1 3 161.68 11.6
12 -1 3 154.98 12.5
-1 -12 3 126.99 13
1 12 3 122.39 23.1
3 12 -3 328.67 26.4
3 12 -3 334.97 24.4
3 12 -3 320.17 23
12 -3 -3 334.47 23.6
12 -3 3 318.77 23.2
-12 3 3 361.06 22.8
5 12 -3 284.17 21.1
5 12 -3 271.07 19.5
5 12 -3 276.27 20.6
-12 5 3 315.47 19.2
12 -5 3 236.38 22.2
12 -5 3 270.47 19.5
7 12 -3 90.19 10.7
7 12 -3 104.59 11.1
7 12 -3 101.69 9.4
12 -7 3 99.69 8.8
9 12 -3 163.78 12.5
9 12 -3 136.79 11.4
-12 9 3 153.68 11
13 8 -3 48.3 8.9
13 8 -3 34.9 5.6
8 -13 3 10.1 14.7
13 6 -3 134.79 14.4
13 6 -3 170.38 12
13 6 3 179.88 16.3
-6 13 3 162.68 13.5
-6 13 3 163.58 16.5
13 4 -3 181.98 14.5
-4 13 -3 233.08 21.9
-4 13 3 190.48 17.1
4 -13 3 191.58 15.7
13 4 3 216.08 17.3
13 4 3 230.78 16.8
-4 13 3 188.18 16.8
-2 13 -3 88.79 13.3
13 2 -3 68.49 7.8
-2 13 3 66.99 11.9
-2 13 3 74.39 11.4
2 -13 3 59.09 10.4
0 13 -3 22.4 7.7
0 13 -3 34.9 6.1
13 0 -3 38.3 7.2
0 13 -3 28.4 7.7
0 13 3 31.9 7.6
0 13 3 33.3 10
0 -13 3 27.8 7.7
13 0 3 44.4 8.4
13 0 3 34.7 6
2 13 -3 76.49 8.4
2 13 -3 59.09 10.8
2 13 -3 75.09 10.8
13 -2 3 79.59 8.1
-2 -13 3 77.59 12.5
13 -2 3 65.29 14.7
4 13 -3 184.78 15.7
4 13 -3 195.68 16.1
4 13 -3 192.08 14.3
-13 4 3 182.28 13.7
4 13 3 223.98 21.2
13 -4 3 190.78 13.9
4 13 3 217.18 18.7
13 -4 3 163.98 17.3
6 13 -3 122.99 14.9
6 13 -3 151.18 12.9
6 13 -3 151.88 11.2
13 -6 3 154.48 10.8
-13 6 3 121.49 10.6
6 13 3 140.19 18.6
8 13 -3 52.59 7.9
13 -8 -3 45.2 6.1
8 13 -3 50.99 5.9
13 -8 3 36 5.5
14 5 -3 84.09 8
-5 14 3 130.19 25.7
-5 14 3 95.09 9.7
14 5 3 101.59 13.6
14 3 -3 164.08 12.4
-3 14 3 178.98 16.6
14 3 3 199.88 15.9
14 3 3 136.19 13.7
-3 14 3 158.38 14.5
-1 14 -3 92.19 11.7
14 1 -3 85.29 8.7
-1 14 3 83.29 12.7
-1 14 3 94.89 12.4
14 1 3 87.49 9.5
14 1 3 96.39 12.1
1 14 -3 93.09 12.2
14 -1 -3 74.29 9.6
1 14 -3 84.09 8.6
1 14 3 86.09 13.6
14 -1 3 84.69 12.7
1 14 3 74.29 13.2
14 -1 3 90.99 8.4
3 14 -3 171.98 15.3
3 14 -3 175.78 13.2
14 -3 -3 190.78 13.8
14 -3 3 165.28 12.6
14 -3 3 141.59 22.5
3 14 3 171.38 17.2
14 -5 -3 80.49 8.7
5 14 -3 117.09 8.9
5 14 -3 85.19 11.3
5 14 3 106.59 14.8
14 -5 3 101.49 8.2
15 2 -3 79.29 8.2
-2 15 3 62.59 9.8
15 2 3 87.39 9.8
0 15 -3 14 17.2
0 15 3 35.1 8.9
15 0 3 17.8 4.7
2 15 -3 62.29 10.8
2 15 3 86.69 12.7
15 -2 3 73.89 7.1
0 0 -4 4431.26 267.57
0 0 4 4017.3 263.17
-1 1 -4 18.7 3.7
-1 1 -4 21.2 6.5
1 1 -4 16 7.6
1 -1 -4 17.1 7.8
1 1 4 17.7 2.4
-1 1 4 16.1 3
-1 -1 4 15.7 2.9
0 2 -4 1769.42 107.39
0 2 -4 1725.03 110.99
2 0 -4 1793.32 112.79
0 -2 -4 1827.12 112.29
0 2 4 1693.73 113.49
2 0 4 1516.65 107.19
-2 0 4 1676.53 107.39
0 -2 4 1699.83 107.29
2 2 -4 1556.54 104.89
-2 2 -4 1617.74 100.49
2 -2 -4 1672.63 100.69
-2 2 -4 1647.24 101.19
2 -2 -4 1570.74 105.59
-2 -2 -4 1677.93 100.59
-2 2 -4 1704.93 101.79
-2 -2 4 1605.84 99.99
2 2 4 1577.64 105.79
2 -2 4 1495.35 99.89
2 2 4 1513.05 99.89
2 -2 4 1584.84 99.69
-2 2 4 1465.35 99.69
-1 3 -4 14.3 4.7
1 -3 -4 23.5 4.8
-3 -1 -4 10.7 3.6
3 1 -4 19.4 8.1
-1 3 -4 14.1 7.1
-1 3 -4 23.8 6
3 1 -4 19.2 10
-3 -1 4 14 3.2
3 1 4 14.9 4.9
1 -3 4 17.4 3.1
3 -1 -4 15.3 7.4
-3 1 -4 13.2 3.7
3 -1 -4 16 4.6
-1 -3 -4 25 5.2
-3 1 -4 18.7 6.2
-3 1 -4 15.5 3.8
3 -1 4 15 2.9
1 3 4 11.2 10.3
-1 -3 4 21.1 3.3
1 3 4 18.8 3.3
-3 1 4 12.8 3.2
3 -1 4 15.9 3.8
3 3 -4 49.8 14.5
-3 3 -4 59.49 6.7
-3 3 -4 50.59 8.5
3 -3 -4 57.59 7.2
3 3 -4 46.4 7.8
-3 3 -4 50.39 10.8
3 -3 -4 53.99 14.7
-3 -3 -4 59.29 8
3 -3 4 51.59 6.3
3 3 4 48.5 7.1
-3 -3 4 62.79 5.4
-3 -3 4 55.49 8.7
-3 3 4 49.99 5
3 3 4 57.29 20.8
3 -3 4 57.29 4.9
2 -4 -4 382.96 23.6
4 2 -4 335.67 24.5
-2 4 -4 357.66 23.7
4 2 -4 304.97 30.9
-2 4 -4 347.17 23.4
-4 -2 -4 344.17 23.3
-2 4 -4 359.06 25.3
4 2 4 346.97 23.6
2 -4 4 330.67 22.2
-2 4 4 308.27 21.9
-4 -2 4 358.56 22.6
2 -4 4 313.27 23.9
-4 -2 4 323.87 23.7
0 4 -4 253.77 19.2
4 0 -4 259.37 26.4
-4 0 -4 289.17 19.4
0 4 -4 279.97 20.2
0 -4 -4 315.67 20.1
0 4 -4 309.47 20.9
4 0 -4 279.67 20.1
0 4 -4 244.18 25
-4 0 -4 269.37 20.6
0 -4 4 291.17 18.6
4 0 4 278.67 18.2
-4 0 4 286.57 18.7
4 0 4 274.47 19.3
0 -4 4 278.27 20
-4 2 -4 367.16 23.8
4 -2 -4 373.66 23.3
2 4 -4 297.17 29.1
4 -2 -4 364.76 31.8
-4 2 -4 363.46 22.9
2 4 -4 306.17 23.2
2 4 -4 306.57 23.1
-2 -4 -4 341.87 23.4
4 -2 4 303.87 22.8
4 -2 4 336.97 21.9
-2 -4 4 327.77 23
-2 -4 4 367.56 22.4
2 4 4 292.77 23.4
-4 2 4 348.97 22.2
4 4 -4 391.66 27.5
-4 -4 -4 404.16 27.5
-4 4 -4 413.86 27.3
4 4 -4 389.66 26.6
-4 4 -4 426.26 27.7
-4 4 4 384.46 26.2
-4 -4 4 415.66 27
4 -4 4 397.46 26.2
4 4 4 377.36 28.7
-4 -4 4 449.16 26.7
4 -4 4 367.56 27.4
5 3 -4 777.22 52.59
-3 5 -4 894.51 53.69
5 3 -4 770.22 53.69
-3 5 -4 914.41 53.59
3 -5 -4 888.51 53.49
-5 -3 -4 791.82 53.19
5 3 -4 777.72 55.29
3 -5 4 833.62 52.59
3 -5 4 764.52 52.89
5 3 4 798.32 54.49
-5 -3 4 870.21 53.09
-3 5 4 743.13 52.29
-5 -3 4 899.61 52.89
5 1 -4 586.24 42
-1 5 -4 644.74 41.9
-1 5 -4 663.93 42.1
1 -5 -4 689.73 41.8
-5 -1 -4 630.94 41.4
-1 5 -4 662.63 41.7
1 -5 4 645.24 40.9
1 -5 4 618.94 41.4
-5 -1 4 675.63 41.1
5 1 4 600.14 42.1
5 1 4 631.44 40.4
-5 -1 4 602.84 41.6
1 5 -4 581.44 39
1 5 -4 539.55 44.9
1 5 -4 631.24 41
-5 1 -4 639.64 39.6
1 5 -4 579.64 38.6
-5 1 -4 638.84 39
-1 -5 -4 628.04 39.4
5 -1 -4 630.94 39.4
5 -1 4 575.34 38
5 -1 4 546.05 39.4
-1 -5 4 623.14 38.9
-5 1 4 620.24 38.5
-5 1 4 518.45 39.4
-3 -5 -4 806.22 52.79
3 5 -4 782.92 52.59
3 5 -4 804.02 51.99
-5 3 -4 864.61 53.19
-5 3 -4 868.61 52.89
3 5 4 799.92 54.09
-5 3 4 807.72 52.09
-3 -5 4 889.61 52.59
5 -3 4 772.12 51.89
5 -3 4 747.13 52.99
-3 -5 4 915.91 52.39
-5 3 4 734.53 53.49
-5 5 -4 57.99 8.4
-5 5 4 34.4 10.8
-5 -5 4 50.39 6.8
-5 -5 4 50.09 7.3
5 -5 4 64.69 6.3
-5 5 4 50.29 6.3
5 -5 4 77.39 13.1
4 -6 -4 280.77 21.2
-4 6 -4 298.07 21.8
-6 -4 -4 328.57 22.4
6 4 -4 308.77 24.4
-6 -4 4 288.87 20.6
4 -6 4 309.17 20.4
4 -6 4 302.27 21
-4 6 4 311.67 20.4
-6 -4 4 295.77 20.6
6 4 4 276.47 20.2
2 -6 -4 122.39 11.2
-6 -2 -4 112.09 10.8
6 2 -4 103.99 13.8
-2 6 -4 115.59 12.1
-2 6 -4 106.49 11.3
6 2 -4 105.29 11
2 -6 4 109.39 10.1
-6 -2 4 128.99 9.3
2 -6 4 115.49 9
-6 -2 4 108.89 10.3
-2 6 4 116.49 8.8
6 2 4 108.09 8.7
0 6 -4 16.5 4.6
6 0 -4 4.7 4.6
0 -6 -4 20 5.8
0 6 -4 12.7 5
0 6 -4 11 8.5
-6 0 -4 12.4 5.5
-6 0 -4 11.9 4.2
-6 0 4 11.5 2.9
-6 0 4 22.4 5
6 0 4 19.5 3.8
0 -6 4 16.3 4.4
2 6 -4 104.99 10.9
2 6 -4 105.29 9.9
-6 2 -4 110.79 11.3
-6 2 -4 122.39 10.1
-2 -6 -4 125.99 12.4
-2 -6 4 107.59 9.2
6 -2 4 108.99 12.6
-2 -6 4 116.89 10
6 -2 4 120.59 8.8
6 -2 4 92.89 13.5
-6 2 4 110.09 11.3
-6 4 -4 278.67 21.9
-6 4 -4 306.97 21.7
4 6 -4 316.77 21.8
4 6 -4 315.77 20.9
-6 4 4 294.37 22.2
-6 4 4 314.77 20.7
6 -4 4 311.87 20.6
-4 -6 4 284.67 20.9
-4 -6 4 293.97 20.9
-6 6 -4 486.95 32.3
-6 6 -4 466.25 32.1
6 6 -4 455.85 30.6
6 6 -4 464.35 31.8
6 -6 4 454.75 30.7
6 -6 4 460.25 30.8
-6 -6 4 478.35 32
6 6 4 476.95 32.2
-6 6 4 456.05 30.8
-6 6 4 417.16 31.9
-6 -6 4 483.75 30.8
7 5 -4 227.48 18.3
-5 7 -4 222.38 18.4
-5 7 -4 233.08 18.3
7 5 -4 224.98 16.4
-7 -5 4 216.68 17.1
-5 7 4 185.98 20.3
5 -7 4 229.18 16.5
7 5 4 235.28 17.1
-7 -5 4 232.38 16.4
-5 7 4 218.08 16.2
5 -7 4 234.88 16.5
3 -7 -4 1511.15 88.29
7 3 -4 1285.77 91.79
-3 7 -4 1351.96 89.69
7 3 -4 1367.46 87.29
-3 7 -4 1425.36 88.19
-7 -3 4 1417.76 87.49
3 -7 4 1381.66 87.89
-7 -3 4 1391.26 87.69
-3 7 4 1363.16 87.29
7 3 4 1392.36 87.09
3 -7 4 1315.37 87.59
-1 7 -4 2008.1 134.09
7 1 -4 1924.11 133.29
1 -7 -4 2324.27 133.39
-1 7 -4 2142.59 133.19
7 1 -4 2036.1 132.49
-1 7 -4 2173.58 132.49
-7 -1 4 2194.88 132.79
1 -7 4 2070.99 132.79
7 1 4 2068.59 132.29
1 -7 4 2079.59 132.69
-7 -1 4 2200.38 132.89
-7 1 -4 2152.18 137.69
-7 1 -4 2259.57 137.59
-1 -7 -4 2145.09 137.29
1 7 -4 2081.29 137.19
-7 1 4 2437.26 139.39
-1 -7 4 2199.08 136.99
-7 1 4 2167.38 136.99
-1 -7 4 2183.98 136.99
7 -1 4 2026.1 137.09
7 -1 4 2138.39 136.69
-7 3 -4 1390.86 88.79
3 7 -4 1351.66 87.59
-7 3 -4 1447.66 88.79
3 7 -4 1387.16 88.29
-7 3 4 1313.67 87.99
-3 -7 4 1479.15 88.09
-3 -7 4 1461.25 88.09
7 -3 4 1274.87 87.89
-7 5 -4 203.88 17.7
5 7 -4 217.98 15.8
-7 5 -4 204.38 17
5 7 -4 228.88 17.3
7 -5 4 221.98 15.8
-7 5 4 209.08 16.7
-5 -7 4 202.98 17.3
-7 5 4 247.28 16.1
-5 -7 4 213.08 16
5 7 4 197.28 19.5
7 -5 4 219.38 16.2
-7 7 -4 23.2 7.3
7 7 -4 23 5.3
-7 7 4 19 6.3
-7 7 4 13.4 4.6
-7 -7 4 17 5.3
8 6 -4 737.23 48.4
8 6 -4 725.53 47.3
-6 8 -4 790.92 48.9
6 -8 -4 675.03 48
6 -8 4 715.43 47.4
8 6 4 812.32 47.7
6 -8 4 706.83 47.8
-6 8 4 678.53 47.6
-6 8 4 652.63 48.3
-8 -6 4 835.82 47.3
-4 8 -4 289.47 22.2
-4 8 -4 273.97 20.9
4 -8 -4 283.07 20.4
8 4 -4 269.87 21.8
8 4 -4 272.07 19.7
8 4 4 285.07 19.3
-4 8 4 276.97 19.4
4 -8 4 259.37 19.3
-8 -4 4 289.07 20.2
-8 -4 4 278.47 19.3
4 -8 4 267.27 19.8
2 -8 -4 34.7 9.2
8 2 -4 26.6 8.8
-2 8 -4 23.5 6.1
-2 8 -4 22.3 10.5
-8 -2 -4 42.2 9.3
8 2 -4 24.1 5.8
2 -8 4 37.8 7.1
-8 -2 4 24.7 5.8
2 -8 4 24.4 5.2
-8 -2 4 31.1 5.8
8 0 -4 58.09 8
0 -8 -4 47.5 9.6
-8 0 -4 59.09 8.5
8 0 -4 35.5 8.5
0 8 -4 39.4 9
0 8 -4 49 7.3
0 8 4 41.2 8.2
0 -8 4 50.29 12.3
8 0 4 59.29 6.6
-8 0 4 44.8 6.8
0 -8 4 51.39 7.7
-8 0 4 53.49 6.4
-8 2 -4 34.7 7.6
2 8 -4 31.4 5.4
2 8 -4 46.7 8.6
-8 2 4 32.9 5.7
2 8 4 39.1 8.8
-2 -8 4 20.9 5.2
8 -2 4 33.5 5.9
-8 2 4 27.8 6.5
8 -2 4 25.9 6.7
4 8 -4 262.07 22.2
4 8 -4 260.27 18.9
-8 4 -4 273.07 20
4 8 -4 271.17 20.2
-8 4 -4 271.77 20.8
-8 4 4 276.07 18.9
-4 -8 4 256.97 20.8
-8 4 4 251.97 19.1
-4 -8 4 248.78 19
8 -4 4 283.67 19
4 8 4 289.27 21
8 -4 4 271.37 19.6
-8 6 -4 784.12 50.19
6 8 -4 743.83 48.7
-8 6 -4 824.12 50.09
6 8 -4 747.63 49.6
-8 6 4 717.83 49.1
8 -6 4 708.13 49.1
8 -6 4 721.93 49
-8 6 4 718.63 49
6 8 4 791.32 49.8
-6 -8 4 797.82 48.7
8 8 -4 1041 64.39
8 8 -4 1026.1 63.49
-8 8 -4 1138.49 64.99
8 -8 4 834.22 63.69
-8 8 4 970 63.89
-8 8 4 965.8 63.89
8 -8 4 971.3 63.59
8 8 4 997.6 63.99
9 7 -4 149.79 11.9
9 7 -4 150.58 15.3
7 -9 -4 121.59 12.1
-7 9 -4 127.89 15.2
-7 9 4 133.29 13.4
-7 9 4 123.79 11.8
9 7 4 106.99 13.6
7 -9 4 117.39 17.2
5 -9 -4 19.9 5.7
9 5 -4 11.2 5
9 5 -4 14.9 7.5
-5 9 -4 23.7 6.9
-9 -5 4 22 4.9
5 -9 4 6.4 8.4
-5 9 4 14.2 4.6
5 -9 4 12.4 5
-5 9 4 12.5 8.8
-3 9 -4 250.97 19.2
3 -9 -4 260.37 19.3
9 3 4 248.98 17.5
-9 -3 4 234.68 18.4
-9 -3 4 240.78 17.3
-1 9 -4 182.98 14.1
9 1 -4 133.69 13.4
-1 9 -4 177.68 12.9
-1 9 4 131.09 12.5
1 -9 4 136.39 12.9
1 -9 4 139.09 14.6
-9 -1 4 188.18 12.7
1 9 -4 118.39 12.8
1 9 -4 121.49 11.3
9 -1 4 133.99 13.7
1 9 4 171.08 13.1
-9 1 4 140.29 11.2
-9 1 4 133.49 11.2
9 -1 4 134.99 11.1
3 9 -4 138.69 11.9
3 9 -4 152.98 25.8
3 9 -4 142.39 13.6
-9 3 4 136.09 11.8
9 -3 4 141.29 13
-9 3 4 144.39 11.8
9 -3 4 164.48 12.1
5 9 -4 15 4.9
5 9 -4 37 17.2
5 9 -4 22.3 6.5
-5 -9 4 24.1 7
9 -5 4 17.4 5.5
-9 5 4 10.2 5
-9 5 4 11.3 4.7
5 9 4 29.1 9
9 -5 4 19.2 5
7 9 -4 157.18 14.7
7 9 -4 161.88 12.8
-9 7 4 162.68 13.4
-9 7 4 133.29 12.8
7 9 4 131.09 16.2
9 -7 4 169.68 13.3
9 -9 -4 0.2 4
9 9 -4 15.2 6.3
9 9 -4 4.9 4.6
-9 9 4 4.6 6.6
9 -9 4 9 4.3
-9 9 4 4.6 4.6
9 9 4 15.6 11.2
8 -10 -4 414.46 26.6
10 8 -4 376.96 25.6
10 8 -4 387.36 26.6
8 -10 4 358.26 25.5
-8 10 4 374.56 26.9
-8 10 4 376.06 26
10 8 4 389.86 28.6
10 6 -4 365.36 27
-6 10 -4 370.06 31.8
6 -10 -4 348.77 26.2
10 6 -4 390.46 27
6 -10 4 391.76 26.7
-6 10 4 326.47 25.5
-6 10 4 384.36 27.4
10 6 4 395.26 26.3
4 -10 -4 145.19 15
-4 10 -4 128.29 15
10 4 -4 172.78 13.2
10 4 -4 191.38 17.9
-4 10 4 155.98 18.3
-4 10 4 175.28 13.3
4 -10 4 176.08 13.1
10 4 4 141.49 13.3
2 -10 -4 51.09 9.7
10 2 -4 54.39 8.9
-2 10 -4 44.5 9.6
-10 -2 -4 68.19 10.8
10 2 4 56.69 7.1
-2 10 4 55.19 8.1
-10 -2 4 53.39 6.6
-10 -2 4 39.2 10
0 10 -4 17.3 6.1
-10 0 -4 27.9 6.6
10 0 -4 20.8 6.5
0 10 -4 24.3 5.8
10 0 -4 43.2 7.2
10 0 4 24 8
-10 0 4 29.1 5.6
10 0 4 28.8 5.8
-10 0 4 23.1 4.6
2 10 -4 49.7 7.5
2 10 -4 63.19 9.9
-10 2 -4 58.79 8.7
10 -2 4 50.79 7.4
-10 2 4 47.4 7
10 -2 4 58.99 9.5
2 10 4 43.9 10.3
-10 2 4 51.09 7.4
4 10 -4 170.98 15.3
4 10 -4 168.98 13.5
-10 4 4 181.18 13.5
4 10 4 147.29 16.2
10 -4 4 184.98 13.9
-10 4 4 167.98 13.7
10 -4 4 177.78 14
6 10 4 350.36 28.5
-10 6 4 386.26 26.7
10 -6 4 386.86 26.8
10 -6 4 427.86 28.8
8 10 -4 354.86 24.5
8 10 -4 374.16 25.6
-10 8 4 380.16 24.7
-10 8 4 348.47 25.9
8 10 4 361.96 28.5
10 -8 4 364.16 24.5
10 10 -4 192.08 15.2
10 10 -4 231.48 16.2
10 -10 4 233.48 15.2
9 -11 -4 23.9 5.9
11 9 -4 14.9 4.5
11 9 -4 18.4 5.5
9 -11 4 10 4.1
11 7 -4 45.8 7.5
7 -11 -4 75.29 9.9
11 7 -4 62.89 10.7
-7 11 4 55.39 8.9
7 -11 4 69.69 7.6
11 7 4 63.99 13.5
-7 11 4 47.3 10.4
11 5 -4 79.59 8.4
5 -11 -4 57.59 11.6
11 5 -4 65.29 13.4
-5 11 -4 51.79 12
-5 11 4 67.39 9.7
-5 11 4 81.59 12.2
5 -11 4 59.39 8.5
11 5 4 69.49 10.7
11 3 -4 454.45 33.8
-3 11 -4 446.36 31.3
3 -11 4 436.56 29.9
-3 11 4 410.16 30.1
-3 11 4 488.65 37.2
11 3 4 460.95 29.9
11 1 -4 755.42 47
-1 11 -4 715.03 47.8
11 1 4 760.22 47.8
-1 11 4 742.73 47.4
1 -11 4 730.33 46.9
-11 -1 4 721.13 46.5
-11 -1 4 611.64 51.29
11 1 4 763.42 47.1
1 11 -4 674.23 47.5
1 11 -4 730.83 46.7
11 -1 -4 692.03 47.5
-11 1 4 714.13 47.2
11 -1 4 750.82 47.1
-11 1 4 745.63 46.5
11 -1 4 752.82 46.9
3 11 -4 452.55 29.3
3 11 -4 427.76 30.5
3 11 4 415.86 30.8
11 -3 4 449.36 29.5
-11 3 4 476.35 29.2
-11 3 4 377.46 29.4
11 -3 4 468.65 29.7
5 11 -4 56.89 8.2
5 11 -4 56.69 10.5
11 -5 4 84.79 11
-11 5 4 83.19 7.9
-11 5 4 83.49 13.3
11 -5 4 51.19 8.5
7 11 -4 67.69 9.7
11 -7 4 57.69 7.2
-11 7 4 50.79 11.7
9 11 -4 15.4 4.5
9 11 -4 16.2 5
11 -9 4 14.1 3.9
-11 9 4 9.8 3.4
12 8 -4 196.88 14.8
8 -12 -4 218.38 17.5
12 8 -4 197.78 16.2
-8 12 4 171.88 13.9
8 -12 4 197.28 13.9
12 6 -4 145.89 16.5
12 6 -4 146.99 11.5
6 -12 -4 161.58 19.5
-6 12 4 148.99 13
12 6 4 147.69 15.8
-6 12 4 152.58 14.8
6 -12 4 135.69 11.7
-4 12 -4 62.09 11.6
12 4 -4 52.69 7.7
4 -12 4 49.7 7.7
12 4 4 41.2 10.2
-4 12 4 56.09 12.1
-4 12 4 67.19 13.2
-2 12 -4 163.98 13.9
12 2 -4 129.29 12.4
2 -12 4 142.39 12
-12 -2 4 139.59 11.6
12 2 4 147.29 12.7
-2 12 4 128.09 13.6
-2 12 4 145.89 19.1
0 12 -4 70.79 10.1
12 0 -4 61.69 11.9
0 12 4 80.09 11.2
-12 0 4 64.19 7
12 0 4 80.99 8.7
0 -12 4 62.99 8.6
12 0 4 57.79 10.3
2 12 -4 135.99 11.9
12 -2 -4 153.38 12.5
2 12 -4 133.49 13.3
12 -2 4 143.79 12.4
12 -2 4 126.89 12.1
-12 2 4 140.29 10.7
4 12 -4 55.89 9.8
4 12 -4 57.99 7.5
12 -4 -4 53.09 7.6
12 -4 4 59.79 7.5
-12 4 4 67.49 6.7
12 -4 4 74.09 10.3
-12 4 4 59.59 14.4
4 12 4 34.9 12.6
6 12 -4 163.38 13.7
6 12 -4 159.58 11.9
12 -6 -4 143.29 12.3
12 -6 4 148.39 32.4
-12 6 4 151.88 11.3
12 -6 4 156.18 11.8
8 12 -4 175.58 12.4
8 12 -4 175.58 13.6
12 -8 4 160.78 12
-12 8 4 164.18 11.8
-5 13 -4 56.09 17.3
13 5 -4 42.2 6
-5 13 4 47.3 10.6
-5 13 4 26.5 6.5
5 -13 4 26 5.7
-3 13 -4 40.1 7.8
13 3 -4 16 5.7
-3 13 4 9.3 8.1
3 -13 4 30 6
-3 13 4 24.2 8.1
-1 13 -4 64.59 10.8
-1 13 4 102.09 16.5
1 -13 4 68.49 9
13 1 4 67.39 10.6
-1 13 4 84.89 12.2
13 1 4 84.79 10.5
13 -1 -4 66.19 11.1
1 13 -4 81.79 10.4
-13 1 4 95.99 8.4
13 -1 4 81.29 10.7
13 -1 4 101.89 9.4
3 13 -4 28.9 5.3
3 13 -4 30.9 6.3
13 -3 -4 36.1 7.2
-3 -13 4 17.6 6.6
13 -3 4 26.1 7.9
3 13 4 21.4 10.5
-13 3 4 22.7 3.9
13 -3 4 26 4.5
5 13 -4 42.8 6.8
13 -5 -4 52.59 7
5 13 -4 42.4 6.9
13 -5 4 40.4 5.8
-2 14 -4 177.68 26.1
2 -14 4 172.28 17.3
14 2 4 180.68 16.5
-2 14 4 227.18 25
0 14 -4 127.69 14.2
0 14 4 159.18 18.7
14 0 4 188.58 18.1
14 0 4 163.48 13
14 -2 -4 150.38 21
2 14 -4 150.58 13.6
14 -2 4 155.08 11.6
-1 0 -5 162.88 12.5
1 0 -5 147.69 21.5
0 -1 -5 192.88 12.9
1 0 -5 150.68 12.6
0 -1 -5 169.08 21.4
-1 0 -5 151.88 16.2
0 1 -5 171.68 12.6
0 1 -5 179.28 20.7
0 1 -5 184.68 16.2
0 -1 5 174.28 11.7
1 0 5 154.68 11.5
-1 0 5 152.98 11.7
0 1 5 176.38 11.7
-1 2 -5 442.86 29.8
1 -2 -5 467.95 29.3
2 1 -5 436.06 38.7
-1 2 -5 472.95 29.2
-2 -1 -5 420.76 31.6
-2 -1 -5 443.76 29
2 1 -5 433.96 29.2
-2 -1 5 450.15 28.5
2 1 5 412.36 27.9
1 -2 5 441.66 28.3
-1 2 5 376.96 28.2
-2 1 -5 463.25 29
1 2 -5 444.46 29
-2 1 -5 454.15 30
-1 -2 -5 454.05 29
2 -1 -5 457.05 29.2
1 2 -5 413.76 30.1
1 2 -5 392.96 36.6
-2 1 5 425.76 28.3
2 -1 5 428.86 28.1
-1 -2 5 386.76 29.9
-1 -2 5 450.75 28.4
-3 -2 -5 198.88 14.2
3 2 -5 198.08 14.6
3 2 -5 177.48 17.9
2 -3 5 190.68 16
2 -3 5 188.58 13.1
-2 3 5 165.98 13.1
0 3 -5 79.89 8.3
0 -3 -5 88.79 8.3
3 0 -5 75.39 8.5
-3 0 -5 92.49 11.4
-3 0 -5 86.39 7.7
0 3 -5 68.69 10
0 -3 5 89.69 10.4
-3 0 5 69.99 6.9
0 -3 5 82.79 6.8
3 0 5 72.59 6.5
2 3 -5 177.58 16.1
2 3 -5 201.38 15
-2 -3 -5 198.58 14.5
-3 2 5 200.38 13.8
3 -2 5 181.98 13.3
4 3 -5 35.9 8.9
-3 4 -5 52.09 8.2
3 -4 -5 48.8 7.2
4 3 -5 52.09 9
-4 -3 -5 33.9 6.7
-3 4 -5 45.8 6.7
-4 -3 5 49.6 5.7
-4 -3 5 37.6 7.3
-3 4 5 34.8 5.6
3 -4 5 22.2 9.3
3 -4 5 32.9 5
-1 4 -5 54.39 7.4
1 -4 -5 33.2 9.1
-1 4 -5 48.2 10.5
4 1 5 41.5 5
-4 -1 5 40.4 7.2
-4 -1 5 49.2 5.7
1 4 -5 101.19 10.7
1 4 -5 103.29 11
-1 -4 -5 105.79 10
4 -1 5 104.39 8.3
-4 1 5 114.89 14.7
-4 1 5 128.29 9.3
-3 -4 -5 40.6 8.3
-4 3 -5 45.1 6.4
3 4 -5 39.2 9.6
-4 3 -5 44.3 8.6
4 -3 -5 42.7 7
4 -3 5 39.9 5.1
-4 3 5 39 5.7
-3 -4 5 42.9 5.5
-3 -4 5 35.4 7.2
4 -3 5 34.8 7.4
5 4 -5 527.55 32.7
4 -5 -5 437.86 31.6
-4 5 -5 418.06 31.9
-5 -4 -5 538.55 31.7
-4 5 -5 412.46 31.5
4 -5 5 512.65 30.8
-5 -4 5 421.26 31
4 -5 5 482.15 31.4
-5 -4 5 455.55 31.1
-5 -2 -5 807.62 50.69
-2 5 -5 776.62 50.99
2 -5 -5 840.22 50.99
-2 5 -5 794.32 50.99
5 2 -5 801.52 52.39
-5 -2 5 789.72 50.59
2 -5 5 761.52 50.49
-2 5 5 759.92 49.9
5 2 5 715.83 49.6
0 5 -5 811.12 54.29
5 0 -5 832.22 54.49
0 -5 -5 895.71 54.29
0 5 -5 765.62 54.99
-5 0 -5 834.92 54.79
-5 0 -5 893.81 54.19
0 -5 5 819.32 53.99
-5 0 5 834.02 55.99
-5 0 5 852.41 53.89
5 0 5 844.82 53.19
0 -5 5 841.52 53.69
2 5 -5 802.32 52.49
5 -2 -5 785.12 52.59
-5 2 -5 811.22 52.79
2 5 -5 814.52 52.99
-2 -5 -5 801.72 52.19
5 -2 5 848.62 51.69
-2 -5 5 778.72 51.99
-5 2 5 882.91 52.79
-5 2 5 760.52 53.89
5 -2 5 783.52 53.09
4 5 -5 535.65 34.2
5 -4 -5 423.76 33.6
-5 4 -5 457.65 33.5
-5 4 -5 462.95 34
4 5 -5 517.95 33.6
-4 -5 -5 533.55 33.6
-5 4 5 480.85 35
5 -4 5 533.15 33.7
-4 -5 5 446.66 33.1
5 -4 5 540.85 33.2
5 -4 5 568.64 33
-4 -5 5 454.85 33.1
-5 4 5 558.44 33.2
6 5 -5 443.26 29.7
-5 6 -5 441.26 30.6
-6 -5 -5 410.96 30.3
-5 6 -5 441.46 30.6
5 -6 -5 418.06 30.1
6 5 -5 450.75 30.9
-6 -5 5 419.86 29.3
-6 -5 5 418.66 29.6
5 -6 5 463.35 29.4
-5 6 5 433.86 31.9
5 -6 5 474.05 29.4
-5 6 5 453.45 29.4
-6 -3 -5 152.68 13.4
6 3 -5 142.49 15.8
-3 6 -5 182.98 14.1
-3 6 -5 172.78 14.1
6 3 -5 144.39 18.8
-6 -3 5 193.68 12.9
3 -6 5 141.79 13
-3 6 5 149.29 12.5
3 -6 5 157.28 12.2
-1 6 -5 323.57 24.2
6 1 -5 315.77 23.9
-1 6 -5 333.97 23.7
1 -6 -5 365.56 23.6
-6 -1 -5 346.77 23.3
-6 -1 5 359.36 22.8
-6 -1 5 324.97 23.1
6 1 5 297.57 22.7
1 -6 5 342.77 22.6
1 -6 5 331.27 22.9
-1 6 5 320.37 22.4
-6 1 -5 308.77 24.4
-6 1 -5 332.07 23.5
-1 -6 -5 376.76 23.8
6 -1 -5 325.97 24.1
1 6 -5 336.67 23.9
-1 -6 5 339.67 23
-1 -6 5 327.07 23.3
6 -1 5 332.27 23.2
-6 1 5 369.86 23.2
-6 1 5 329.17 23.6
-6 3 -5 181.58 14.1
-6 3 -5 202.38 15.3
3 6 -5 151.38 14.7
-3 -6 -5 151.88 14.5
3 6 -5 160.08 14.9
6 -3 -5 194.58 14.8
-3 -6 5 201.88 13.7
-3 -6 5 190.38 13.7
6 -3 5 145.29 14.3
6 -3 5 160.18 12.8
-6 3 5 183.68 13.1
-6 3 5 169.68 14.8
6 -3 5 155.48 14.7
5 6 -5 466.25 29.2
-6 5 -5 390.16 29.7
5 6 -5 455.55 30.1
-6 5 -5 411.86 30.1
6 -5 -5 415.46 29.8
6 -5 5 425.96 29
-5 -6 5 427.46 29.1
-6 5 5 429.56 29.8
6 -5 5 440.56 28.8
-5 -6 5 415.96 28.8
-6 5 5 464.15 29
7 6 -5 299.57 19.7
7 6 -5 292.87 21.3
-6 7 -5 270.37 20.5
6 -7 -5 220.68 19.7
-6 7 -5 238.68 20.5
-7 -6 5 235.18 18.6
-6 7 5 287.77 19.3
6 -7 5 281.97 19.3
-6 7 5 269.67 20.6
6 -7 5 280.87 19.4
-7 -4 -5 152.98 13.4
-4 7 -5 109.09 13.1
7 4 -5 156.68 13.6
-4 7 -5 114.39 12.5
4 -7 -5 107.39 11.7
7 4 -5 159.48 16.4
-4 7 5 148.69 11.2
7 4 5 121.89 12
-7 -4 5 108.39 11
-7 -4 5 109.19 10.5
-2 7 -5 216.48 17.5
2 -7 -5 243.88 17.4
7 2 -5 217.78 18.6
-7 -2 -5 224.08 17.3
-2 7 -5 233.58 19.2
-7 -2 5 233.08 16.4
-7 -2 5 234.88 16.3
7 2 5 213.88 16
2 -7 5 220.28 16.2
2 -7 5 198.18 16.5
-2 7 5 230.48 16.4
0 -7 -5 144.29 12.6
0 7 -5 134.19 12.7
7 0 -5 123.09 12.7
-7 0 -5 139.89 11.9
0 7 -5 99.59 25.9
-7 0 5 145.59 11
0 -7 5 132.59 11.3
0 -7 5 136.49 11.1
-7 0 5 139.59 11.6
7 0 5 130.89 10.6
2 7 -5 248.78 18.4
-7 2 -5 238.78 17.8
-2 -7 -5 217.18 18.3
7 -2 -5 203.98 18.1
2 7 -5 235.08 17.8
-7 2 -5 252.37 19
-2 -7 5 237.68 17.3
-2 -7 5 261.97 17.5
-7 2 5 228.88 17.3
7 -2 5 240.68 19
7 -2 5 240.78 16.7
-7 2 5 235.78 17
4 7 -5 154.38 12.6
4 7 -5 156.08 13.6
-7 4 -5 104.29 13.3
7 -4 -5 107.99 12.3
7 -4 5 150.28 11.4
7 -4 5 155.38 12.6
-7 4 5 149.69 12.4
6 7 -5 301.57 20.6
6 7 -5 292.87 19.1
-7 6 -5 210.88 19.9
-7 6 -5 255.67 19.7
7 -6 -5 223.68 19.3
7 -6 5 269.37 18.8
-6 -7 5 216.88 20.4
-7 6 5 265.27 19.3
7 -6 5 267.17 18.7
-6 -7 5 244.18 18.3
-7 6 5 283.27 18.7
-7 8 -5 351.56 26.4
7 -8 -5 393.16 25.9
8 7 -5 363.36 26.5
8 7 -5 371.56 25.1
-8 -7 5 395.86 24.5
-7 8 5 370.06 25.8
7 -8 5 364.16 26.3
7 -8 5 354.16 25.2
8 7 5 290.77 35.2
8 5 -5 625.74 43.3
-5 8 -5 732.83 44.4
-5 8 -5 767.92 44.8
8 5 -5 618.54 44.7
5 -8 -5 718.83 43.9
-5 8 5 565.14 45
8 5 5 757.62 43.8
-5 8 5 583.64 43.2
-8 -5 5 712.83 42.9
-8 -5 5 657.03 43.8
5 -8 5 606.84 43.3
5 -8 5 596.44 42.9
3 -8 -5 674.03 41.4
-3 8 -5 643.64 42.6
-3 8 -5 615.04 41.5
3 -8 5 492.15 40.5
8 3 5 638.84 40.4
-8 -3 5 649.83 40.8
-8 -3 5 640.74 40.4
-1 8 -5 755.02 48.1
1 -8 -5 775.52 48
-8 -1 -5 684.23 47.9
8 1 -5 654.33 48.2
1 -8 5 725.73 47.5
1 -8 5 729.53 47.6
-8 -1 5 778.52 47.4
8 1 5 768.22 47.2
-8 -1 5 780.12 47.6
-1 8 5 668.13 47.3
1 8 -5 681.03 47.2
-8 1 -5 781.12 47.6
1 8 -5 682.03 46.5
-1 -8 -5 673.83 47.1
8 -1 -5 733.73 47.6
-1 -8 5 738.93 46.7
-1 -8 5 752.62 46.9
8 -1 5 668.23 47.7
-8 1 5 756.32 46.7
8 -1 5 697.13 46.4
-8 1 5 731.73 46.5
8 -3 -5 604.24 36.9
3 8 -5 481.25 36.2
3 8 -5 479.45 35.3
-3 -8 5 619.84 35.7
-8 3 5 490.05 35.4
-3 -8 5 635.54 36.4
8 -3 5 491.15 35.8
8 -3 5 511.25 35.4
-8 3 5 531.45 35.6
-8 5 -5 678.93 42.6
8 -5 -5 670.03 42.4
5 8 -5 608.54 42.2
-8 5 -5 709.43 42.5
5 8 -5 606.64 41.2
-8 5 5 602.84 41.4
8 -5 5 566.44 41.3
-8 5 5 610.24 41.4
-5 -8 5 674.53 41.1
8 -5 5 592.44 41.3
7 8 -5 392.26 27
8 -7 -5 325.87 26.8
7 8 -5 389.46 25.7
-8 7 -5 427.36 27.6
-7 -8 5 384.96 25.4
-8 7 5 353.46 25.7
8 -7 5 380.06 25.9
-8 7 5 362.76 25.8
8 -7 5 370.46 26.4
9 8 -5 150.38 14.1
9 8 -5 127.39 12.6
-8 9 -5 121.09 13.8
8 -9 -5 148.89 12.7
-8 9 5 154.18 13.3
-8 9 5 160.18 12.1
8 -9 5 148.29 11.7
9 6 -5 107.89 14
9 6 -5 90.49 10.8
6 -9 5 92.29 9.5
-6 9 5 85.89 12
-6 9 5 101.39 10.1
6 -9 5 93.89 18.9
-9 -6 5 66.49 8.8
9 6 5 92.19 20
-4 9 -5 80.69 11.6
4 -9 -5 93.99 11.3
-9 -4 5 94.89 8.7
9 4 5 76.39 11
4 -9 5 105.69 12.7
-2 9 -5 143.89 13.8
-9 -2 -5 167.38 14.3
9 2 -5 144.59 23.6
2 -9 -5 150.88 14.5
9 2 5 144.29 12.6
-9 -2 5 152.38 11.9
2 -9 5 183.28 14.7
-9 -2 5 141.89 12.7
-2 9 5 164.48 13.5
9 0 -5 57.99 10.3
-9 0 -5 71.19 9.5
0 -9 -5 81.09 12.5
0 9 -5 64.69 9.9
-9 0 5 73.89 8.1
0 -9 5 65.39 11.3
0 -9 5 69.29 8.7
-9 0 5 68.19 7.7
0 9 5 72.79 11.2
9 0 5 71.09 8.1
-9 2 -5 141.19 14.1
2 9 -5 182.68 14.9
2 9 -5 181.18 14.1
9 -2 5 187.48 13.6
-9 2 5 185.88 13.3
-9 2 5 177.08 13.3
9 -2 5 168.48 15.4
-2 -9 5 142.69 17.3
-2 -9 5 154.18 13.7
4 9 -5 129.09 13.5
4 9 -5 137.59 12
-9 4 5 133.19 11.2
-4 -9 5 99.09 11.8
9 -4 5 144.89 11.7
-9 4 5 134.59 11.3
9 -4 5 128.79 12.4
6 9 -5 108.39 10.6
6 9 -5 96.29 12.5
9 -6 5 99.99 11.1
9 -6 5 96.89 10.1
-9 6 5 105.79 9.8
-9 6 5 94.99 10.3
9 -8 -5 111.79 11.5
8 9 -5 155.88 11.9
8 9 -5 161.38 13.6
9 -8 5 104.59 19.3
9 -8 5 139.49 11
-9 8 5 140.69 11.2
-9 8 5 130.69 12.9
10 9 -5 131.29 12.5
-9 10 5 99.19 8.6
9 -10 5 101.09 8.7
10 7 -5 221.98 18.9
-7 10 -5 219.68 17.8
10 7 -5 199.18 16.8
7 -10 -5 228.58 16.9
-7 10 5 211.38 17.5
7 -10 5 251.77 16.1
-7 10 5 233.28 16.8
10 5 -5 412.16 25.5
-5 10 -5 327.17 25.9
5 -10 -5 366.76 25.7
5 -10 5 423.56 25
10 5 5 357.56 26.7
-10 -5 5 324.97 24.3
3 -10 -5 314.87 23.7
-10 -3 5 275.47 23.9
-3 10 5 375.66 23.4
3 -10 5 331.77 24.7
10 3 5 320.27 22.9
-1 10 -5 374.66 25.9
10 1 -5 394.66 30
-10 -1 -5 384.46 28.9
10 1 5 364.46 24.7
-10 -1 5 314.27 24.9
-1 10 5 324.07 25.5
-10 -1 5 397.76 24.4
10 -1 -5 376.96 28
-10 1 -5 422.86 27.3
1 10 -5 406.66 27.4
-10 1 5 324.27 25.9
10 -1 5 421.36 26.3
10 -1 5 361.06 30.9
1 10 5 375.66 28.1
-10 1 5 393.06 25.9
3 10 -5 395.36 25.8
10 -3 5 366.36 26.2
10 -3 5 379.06 25.9
-10 3 5 373.46 25.8
5 10 -5 424.96 28.7
5 10 -5 451.15 30.1
10 -5 5 419.56 33.7
10 -5 5 443.56 28.8
-10 5 5 421.26 28.6
7 10 -5 238.98 18.2
10 -7 -5 228.98 17.3
7 10 -5 231.58 17
-10 7 5 250.57 16.5
-10 7 5 238.48 18.2
10 -7 5 241.48 16.7
10 -7 5 213.98 20.8
10 -9 5 101.49 8.3
-10 9 5 97.99 8.1
-6 11 -5 206.28 16.4
6 -11 -5 180.28 15.9
-6 11 5 184.58 16.9
-6 11 5 199.08 15.7
6 -11 5 211.18 14.4
11 6 5 213.88 23.8
4 -11 -5 272.37 20.7
-4 11 -5 278.27 20.2
-11 -4 5 265.97 18.4
-4 11 5 258.57 20.4
11 4 5 290.97 20.8
4 -11 5 259.57 18.6
-4 11 5 249.88 23
-2 11 -5 237.38 17.9
-11 -2 5 238.98 16.1
-2 11 5 218.98 18.6
2 -11 5 227.08 16.6
11 2 5 237.78 20.6
11 0 -5 109.19 12.8
0 11 -5 100.19 11.3
-11 0 5 121.49 9.4
11 0 5 126.49 10.8
11 0 5 125.49 14.5
-11 0 5 120.69 13.4
0 11 5 94.29 15.2
11 -2 -5 221.08 16.9
2 11 -5 226.08 17.4
2 11 -5 223.48 16.6
11 -2 5 211.98 18.2
11 -2 5 212.68 16.9
-11 2 5 228.68 15.5
-11 2 5 212.48 17.4
4 11 -5 249.48 18.7
4 11 -5 236.78 17.7
11 -4 -5 277.37 18.3
11 -4 5 228.88 17.5
-11 4 5 224.78 18.6
11 -4 5 247.68 18.5
-11 4 5 253.57 17
6 11 -5 217.98 15.4
6 11 -5 162.98 14.3
11 -6 -5 207.68 14.5
11 -6 5 161.28 18.2
11 -6 5 190.58 13.7
-11 6 5 172.98 16.5
-11 6 5 190.48 13.3
5 -12 5 286.17 20.1
-5 12 5 293.57 21.7
-5 12 5 323.67 27.8
-3 12 -5 276.87 22.5
12 3 5 294.57 23.4
-3 12 5 310.97 24.2
3 -12 5 332.27 21.4
-3 12 5 374.36 26.4
-1 12 -5 314.37 22.9
12 1 5 338.27 23.2
-1 12 5 314.07 25.5
-12 -1 5 356.96 21.6
1 -12 5 301.57 22
1 12 -5 292.17 22.5
12 -1 -5 320.27 22.7
12 -1 5 333.87 22.8
-12 1 5 307.17 21
-1 -12 5 337.27 21.6
12 -1 5 326.37 22.7
12 -3 -5 293.17 22.2
3 12 -5 330.47 22.8
12 -3 5 344.87 21.9
-12 3 5 318.27 21.2
12 -3 5 327.17 23.1
12 -5 -5 271.77 19.4
5 12 -5 307.27 20.2
5 12 -5 300.17 21
-12 5 5 287.77 18.6
12 -5 5 234.98 18.7
-2 13 -5 356.96 25.5
2 -13 5 391.46 24.6
-2 13 5 355.76 36.1
0 13 -5 303.17 21.8
0 -13 5 285.07 20.8
13 0 5 351.16 24.4
13 0 5 303.67 25.7
13 -2 -5 404.56 25.4
2 13 -5 376.46 25.2
-2 -13 5 316.37 26
13 -2 5 363.46 26
0 0 -6 1.7 3.3
0 0 6 5.6 3.3
1 1 -6 1346.77 84.39
-1 1 -6 1282.37 84.79
1 -1 -6 1312.57 84.39
-1 1 -6 1333.67 84.39
-1 -1 -6 1391.56 84.49
-1 -1 6 1309.67 83.99
1 1 6 1302.27 83.59
0 -2 -6 109.09 9.3
-2 0 -6 111.09 14.1
0 2 -6 97.29 9.1
-2 0 -6 96.09 8.9
0 2 -6 111.99 12.6
2 0 -6 92.69 9.4
0 -2 6 98.59 11.7
-2 0 6 95.39 8.7
0 2 6 101.89 8.6
0 -2 6 94.59 8.4
2 2 -6 36.6 9.6
-2 2 -6 32.3 7
2 -2 -6 22.7 6
-2 2 -6 20.5 5.2
-2 -2 -6 25.1 5.3
2 2 -6 16.9 4.6
-2 -2 6 27.3 5.8
2 -2 6 24.2 4.5
2 2 6 26.4 5.6
-2 2 6 23.1 5.8
-2 -2 6 27.6 4.9
-1 3 -6 619.94 42.2
-3 -1 -6 710.83 42.4
3 1 -6 675.03 42.5
1 -3 -6 647.24 42.4
-1 3 -6 643.94 42.8
-3 -1 6 548.75 42.3
1 -3 6 663.53 41.7
-3 -1 6 659.33 42
1 -3 6 639.14 42.4
-1 -3 -6 681.83 42.1
1 3 -6 666.63 42.2
1 3 -6 664.43 42.8
3 -1 -6 636.54 42.3
-3 1 -6 632.04 42.9
-3 1 -6 623.04 42
3 -1 6 662.83 41.3
-1 -3 6 579.64 41.9
-1 -3 6 635.64 41.6
1 3 6 601.34 41.1
-3 1 6 677.93 41.9
3 -3 -6 366.96 25.4
-3 -3 -6 376.76 25.1
3 3 -6 383.36 27.5
-3 3 -6 361.26 25.9
3 3 -6 369.36 25.5
-3 3 -6 346.07 25.1
3 -3 6 349.07 25.6
-3 -3 6 358.56 24.8
-3 3 6 395.96 25
3 -3 6 380.46 24.4
-3 -3 6 331.47 25
2 -4 -6 490.65 32
4 2 -6 472.75 32.1
-2 4 -6 485.65 32
-4 -2 -6 474.35 31.7
-2 4 -6 504.35 32.5
2 -4 6 454.85 31.8
-2 4 6 423.36 31.4
-4 -2 6 519.45 31.7
2 -4 6 482.65 31.3
-4 -2 6 433.06 31.6
4 2 6 479.75 30.9
4 0 -6 116.39 11
-4 0 -6 118.29 10.1
0 -4 -6 124.29 10.6
0 4 -6 116.39 12.2
0 4 -6 126.59 11
-4 0 -6 98.59 12.7
4 0 6 110.39 9.3
-4 0 6 95.69 12
0 -4 6 118.19 10.6
-4 0 6 113.99 9.9
0 -4 6 135.99 9.8
2 4 -6 466.75 32.9
-4 2 -6 490.05 33.1
-2 -4 -6 479.85 32.1
2 4 -6 469.75 32.5
-4 2 -6 489.35 32.2
4 -2 -6 509.45 32.8
4 -2 6 469.05 34.8
-2 -4 6 499.05 31.9
-4 2 6 427.76 33.7
-2 -4 6 476.25 32.1
-4 2 6 492.95 32
4 -2 6 487.45 31.4
4 4 -6 28.3 7
-4 4 -6 15.6 4.3
-4 -4 -6 21 4.9
-4 4 -6 19 6
4 -4 -6 14.3 5
4 4 -6 24.5 8.6
-4 -4 6 21.8 5.2
4 -4 6 18.7 4.4
-4 -4 6 21.6 4.9
-4 4 6 26 6.1
5 3 -6 33.8 7
3 -5 -6 33.7 7.4
-3 5 -6 39.5 7.4
-5 -3 -6 41.8 6.9
-3 5 -6 30.9 6.7
3 -5 6 38.9 5.8
-5 -3 6 34.9 6.8
3 -5 6 38 7.4
-3 5 6 36.2 7.2
-5 -3 6 33 6
-1 5 -6 142.29 13.5
-5 -1 -6 179.48 13.1
5 1 -6 176.58 13.9
-1 5 -6 140.99 13.9
1 -5 -6 168.28 13.2
-5 -1 6 148.99 13.2
-5 -1 6 157.28 12.6
1 -5 6 173.48 13.3
5 1 6 146.69 12.3
-1 5 6 157.78 13.7
1 -5 6 179.68 12.5
5 -1 -6 156.28 14.4
-5 1 -6 146.19 15.2
1 5 -6 183.38 15
1 5 -6 170.38 14.8
-5 1 -6 157.58 13.4
-1 -5 -6 182.08 13.6
-5 1 6 191.58 14.9
-1 -5 6 159.18 13
5 -1 6 186.68 12.9
-1 -5 6 153.48 13.6
-5 1 6 202.48 13.5
5 -3 -6 44.5 8
-5 3 -6 42.5 7
3 5 -6 24.2 7.9
-3 -5 -6 36.1 7.1
3 5 -6 46.6 10.5
-5 3 -6 42.3 7.6
-3 -5 6 30.2 6.8
-3 -5 6 30.7 6.2
5 -3 6 48.6 7.6
-5 3 6 48.3 6.7
5 -3 6 41.1 5.9
5 -3 6 35.2 6.8
-5 3 6 35.2 7.7
-5 5 -6 172.48 15.4
-5 -5 -6 191.08 14.6
5 -5 -6 161.98 14.6
5 5 -6 196.68 17.3
-5 5 -6 162.08 14.5
-5 5 6 159.48 17.1
-5 -5 6 170.58 13.9
5 -5 6 186.38 13.5
-5 5 6 181.68 13.8
5 -5 6 178.78 14
-5 -5 6 163.28 13.5
5 -5 6 173.18 14.2
6 4 -6 198.98 21.7
-4 6 -6 180.08 15.7
-4 6 -6 196.88 16.3
4 -6 -6 189.18 15.4
-6 -4 -6 201.18 15.5
4 -6 6 196.88 14.5
-6 -4 6 179.38 14.8
-6 -4 6 179.98 14.5
-4 6 6 211.38 15.2
4 -6 6 190.18 14.9
-2 6 -6 1165.58 75.49
-6 -2 -6 1178.18 75.09
6 2 -6 1068.69 75.19
-2 6 -6 1194.18 75.49
2 -6 -6 1270.87 75.29
6 2 6 1160.28 74.39
-2 6 6 1092.19 74.79
-6 -2 6 1202.48 74.99
2 -6 6 1184.68 74.89
2 -6 6 1261.17 74.89
-6 -2 6 1135.89 74.79
0 -6 -6 649.43 42.2
-6 0 -6 643.14 42.4
0 6 -6 650.83 42.8
6 0 -6 609.54 42.7
0 6 -6 629.34 43
-6 0 6 690.53 42.3
6 0 6 617.84 41.5
-6 0 6 647.44 42.3
0 -6 6 657.63 42
0 -6 6 640.64 42.1
-6 2 -6 1202.98 77.49
6 -2 -6 1167.98 77.29
-2 -6 -6 1232.28 76.69
-6 2 -6 1225.18 77.19
2 6 -6 1215.88 77.19
-6 2 6 1253.67 76.79
6 -2 6 1059.59 76.79
-6 2 6 1186.58 76.79
-2 -6 6 1220.48 76.69
-2 -6 6 1266.27 76.79
6 -2 6 1191.18 76.29
6 -4 -6 169.18 15.6
-6 4 -6 182.88 16.4
-6 4 -6 186.28 15.5
-4 -6 -6 203.08 15.8
4 6 -6 208.38 17.1
6 -4 6 204.68 15.9
-6 4 6 217.18 15
-4 -6 6 188.78 14.8
6 -4 6 206.68 14.6
-4 -6 6 179.78 15
-6 4 6 190.18 15.9
-6 6 -6 30.6 7.8
6 6 -6 28.2 9.3
6 -6 -6 29.7 7.1
-6 -6 6 20.4 5.1
-6 6 6 12.5 4.8
-6 -6 6 19.2 6.7
6 -6 6 18.8 5.2
-6 6 6 16.2 7.4
6 -6 6 14.1 9.7
-7 -5 -6 585.34 40.8
-5 7 -6 700.63 45.1
-5 7 -6 548.95 43.1
-5 7 6 634.54 41.9
-7 -5 6 597.54 40.3
5 -7 6 560.84 41.3
-5 7 6 629.04 40.2
5 -7 6 633.34 40.2
-7 -3 -6 180.68 14.7
-3 7 -6 175.28 15.3
-3 7 -6 169.08 15.9
3 -7 -6 188.98 14.5
-3 7 6 167.38 14.7
-7 -3 6 196.98 14.1
-7 -3 6 192.68 13.7
3 -7 6 151.78 13.7
7 3 6 183.18 15.2
3 -7 6 166.98 13.9
1 -7 -6 129.59 11.2
7 1 -6 96.19 11.9
-7 -1 -6 128.29 11
-1 7 -6 94.29 14
-1 7 -6 118.19 11.9
1 -7 6 114.69 10.5
-1 7 6 122.39 13.5
-7 -1 6 120.79 10.2
1 -7 6 116.49 10.6
7 1 6 107.99 10.3
-7 -1 6 120.39 10.2
1 7 -6 127.39 12.5
-7 1 -6 132.39 11.5
-1 -7 -6 130.19 11.6
7 -1 -6 103.09 12
-7 1 6 114.99 10.5
7 -1 6 126.09 10.4
-7 1 6 120.89 11.1
-1 -7 6 133.49 10.9
-1 -7 6 128.99 11
-3 -7 -6 177.08 15.5
-7 3 -6 191.78 15
3 7 -6 169.58 16.1
7 -3 -6 175.08 15.2
-7 3 -6 201.18 16.1
7 -3 6 197.08 16.8
-3 -7 6 184.78 14.1
-7 3 6 163.88 14.4
-3 -7 6 185.98 14.7
-7 3 6 181.78 14
7 -3 6 172.28 13.8
7 -5 -6 704.33 47.1
5 7 -6 761.22 45.6
-7 5 6 680.73 43.6
7 -5 6 645.84 43.6
-5 -7 6 603.04 44
7 -5 6 613.44 43.3
-7 5 6 668.33 43.6
-7 7 -6 1164.28 76.49
7 7 -6 1278.27 76.69
7 -7 -6 1125.49 76.29
-7 7 6 1193.88 76.19
7 -7 6 1243.38 75.79
-7 -7 6 1166.18 75.29
7 -7 6 1200.58 76.39
-7 7 6 1183.98 75.99
8 6 -6 59.89 11.3
-6 8 -6 38.6 8.6
6 -8 -6 29.8 7.7
6 -8 6 48.7 7.2
-8 -6 6 37.7 5.9
-6 8 6 39.6 7.4
-4 8 -6 226.98 19
-8 -4 -6 300.47 19.7
-4 8 -6 227.08 19.4
4 -8 -6 249.28 18.3
8 4 6 225.68 24.1
-8 -4 6 254.67 21.6
-8 -4 6 232.68 17.2
8 2 -6 775.22 51.69
-2 8 -6 772.42 50.69
-2 8 -6 727.23 52.49
-8 -2 6 764.22 49.8
8 2 6 715.23 49.7
-2 8 6 807.12 50.69
-8 -2 6 796.52 49.7
2 -8 6 761.12 49.9
2 -8 6 822.92 50.09
8 0 -6 445.26 31.7
0 8 -6 452.05 31.7
0 -8 -6 438.46 32.9
-8 0 -6 456.15 31.6
-8 0 6 487.95 30.8
0 -8 6 488.65 31.1
-8 0 6 483.75 31
0 -8 6 451.15 31.2
8 0 6 454.85 30.7
-8 2 -6 813.52 53.89
-2 -8 -6 830.02 53.59
8 -2 -6 764.22 53.89
2 8 -6 868.71 54.09
-2 -8 6 806.62 53.19
-2 -8 6 751.42 53.49
-8 2 6 862.91 53.29
-8 2 6 902.51 53.29
8 -2 6 847.42 54.49
8 -2 6 798.72 52.89
-8 4 -6 251.47 22.7
4 8 -6 345.67 23.9
8 -4 6 330.37 23
-8 4 6 337.47 22.4
-8 4 6 337.27 22.3
8 -4 6 334.27 22.6
8 -6 -6 32.6 7.4
-8 6 -6 32.7 6.9
8 -6 6 48.7 9.6
-6 -8 6 40.5 6.8
-8 6 6 48.5 6.9
8 -6 6 40.5 7.6
8 8 -6 1.6 8.1
8 -8 -6 7.8 4.4
-8 8 6 10.8 4.1
-8 8 6 7.9 6.6
7 -9 -6 357.56 26.1
-7 9 -6 360.16 26.6
-7 9 6 429.96 27.5
7 -9 6 442.96 25.9
-7 9 6 363.96 26.1
5 -9 -6 62.69 8.6
-5 9 -6 72.29 9.8
-9 -5 6 70.19 7.1
5 -9 6 73.09 17.4
-5 9 6 87.39 10.6
-5 9 6 94.79 13.9
3 -9 -6 67.69 9
-9 -3 -6 53.49 9.8
-3 9 -6 63.19 9.3
-3 9 6 46.3 11.1
3 -9 6 52.69 7.4
9 3 6 60.69 11.7
-9 -3 6 50.99 11.1
-9 -3 6 73.69 6.8
3 -9 6 56.59 10.7
9 1 -6 154.08 14.8
-9 -1 -6 155.78 13.3
-1 9 -6 156.18 13.8
1 -9 -6 159.58 13.6
1 -9 6 126.09 23.7
-1 9 6 120.99 22.4
-9 -1 6 159.18 11.8
-9 -1 6 158.88 12.9
9 1 6 167.78 13.4
1 9 -6 154.18 13.9
9 -1 -6 147.19 13.7
-9 1 -6 160.88 13.4
-1 -9 6 160.48 12.8
-9 1 6 159.08 12.8
-9 1 6 160.88 12.1
9 -1 6 168.28 12.9
-1 -9 6 126.19 19.7
-9 3 -6 78.19 8.7
9 -3 -6 71.09 9.3
3 9 -6 66.29 10.4
9 -3 6 73.69 11.5
-9 3 6 69.09 11.7
-3 -9 6 68.19 8.2
9 -3 6 67.19 11.3
-9 3 6 61.79 7.3
5 9 -6 101.99 11.8
9 -5 -6 75.89 9.8
-9 5 6 108.59 8.6
-9 5 6 99.99 9.7
9 -5 6 100.59 9.9
9 -5 6 91.59 11.2
9 -7 -6 398.36 28
7 9 -6 398.96 28.7
9 -7 6 430.06 27.5
-9 7 6 422.26 28.6
-9 7 6 442.36 27.5
6 -10 -6 31.1 7.5
-6 10 -6 40.4 8
6 -10 6 35.6 6.1
-6 10 6 37 9.1
-4 10 -6 45.1 8.6
4 -10 -6 58.09 9
4 -10 6 54.59 6.8
-10 -4 6 48.3 5.8
10 4 6 50.69 13.1
-4 10 6 34.2 8.7
-10 -2 -6 295.37 22.5
2 -10 -6 349.27 23.2
-2 10 -6 340.67 23.1
-10 -2 6 347.17 21.6
10 2 6 347.97 23.7
-10 -2 6 295.77 24.7
2 -10 6 338.47 22
-2 10 6 267.17 25.4
0 10 -6 202.88 16.1
-10 0 -6 188.68 15.6
10 0 -6 204.68 16.3
-10 0 6 232.48 14.6
-10 0 6 211.58 16.5
10 0 6 203.48 16.1
-10 2 -6 352.46 22.8
10 -2 -6 329.57 22.8
2 10 -6 323.77 23.1
10 -2 6 316.17 24.2
-10 2 6 295.07 22.7
10 -2 6 336.47 22.9
-10 2 6 329.07 21.8
4 10 -6 59.29 9
10 -4 -6 54.09 7.7
-10 4 6 35.7 8.2
-10 4 6 48.3 5.7
10 -4 6 37.8 9.4
10 -4 6 52.39 8.5
10 -6 -6 51.79 7
10 -6 6 37 6.7
-10 6 6 45.7 5.4
-5 11 -6 176.08 14.2
-5 11 6 193.48 16.7
5 -11 6 170.78 12.8
-3 11 -6 42.2 7.8
-11 -3 6 25.8 5.4
3 -11 6 36.3 5.6
-1 11 -6 12.3 5.1
-11 -1 6 20.7 4.4
11 1 6 17.5 7.8
1 -11 6 12.2 3.9
1 11 -6 12.6 5
11 -1 -6 10.2 5.2
11 -1 6 23.3 6.9
-11 1 6 15.6 3
11 -3 -6 32.7 5.3
3 11 -6 23.2 5.7
11 -3 6 40.1 11.3
11 -3 6 34 7.3
-11 3 6 23.5 4
5 11 -6 198.68 15.2
11 -5 -6 191.78 13.8
-11 5 6 170.78 12.8
11 -5 6 196.28 14.2
-2 12 -6 257.77 19.3
2 -12 6 279.17 18.2
0 -12 6 197.18 14.9
-12 0 6 233.68 15.5
12 -2 -6 239.48 19.1
2 12 -6 262.27 18.9
-12 2 6 303.27 17.5
-2 -12 6 247.68 17.8
0 1 -7 614.44 39.8
0 -1 -7 615.34 39.8
-1 0 -7 592.74 39.7
1 0 -7 606.64 39.8
0 1 7 595.54 39.2
-1 0 7 621.84 39.4
0 -1 7 616.74 39.3
1 0 7 597.24 39.1
0 -1 7 570.94 40.3
-1 2 -7 688.13 43.2
2 1 -7 612.24 43
-2 -1 -7 620.04 42.9
1 -2 -7 689.53 43.2
-1 2 -7 708.53 44.2
1 -2 7 616.54 43.3
1 -2 7 612.54 42.5
-1 2 7 622.04 42.6
2 1 7 660.13 42.4
-2 -1 7 662.93 43.3
-2 -1 7 744.53 43.1
1 2 -7 705.03 50.09
-2 1 -7 672.73 45.5
-2 1 -7 701.93 44.5
2 -1 -7 708.83 44.7
1 2 -7 634.24 44.4
-1 -2 -7 635.34 44.3
-1 -2 7 694.33 44.7
-1 -2 7 757.12 44.4
-2 1 7 647.64 44.2
1 2 7 717.73 44
2 -1 7 609.94 43.7
2 -3 -7 294.27 21.4
3 2 -7 304.27 21.5
-2 3 -7 312.37 22.7
-3 -2 -7 311.37 21.2
-2 3 -7 287.97 21.3
-3 -2 7 277.47 21.5
-2 3 7 301.77 21.2
2 -3 7 326.67 20.9
3 2 7 285.47 20.7
2 -3 7 322.87 21.8
-3 -2 7 312.37 21.3
0 3 -7 269.67 21.9
0 -3 -7 273.97 19.6
3 0 -7 273.27 19.9
0 3 -7 282.27 19.8
-3 0 -7 268.27 19.5
-3 0 7 309.07 19.8
0 -3 7 285.27 19.4
0 -3 7 275.77 20
-3 0 7 266.57 20.4
0 3 7 269.47 19.4
3 0 7 261.47 18.9
-3 2 -7 285.17 20.9
-2 -3 -7 319.87 21
2 3 -7 293.57 21.3
3 -2 -7 281.57 21.1
-3 2 -7 290.47 22.7
2 3 -7 345.97 25.4
-3 2 7 308.17 21
-2 -3 7 302.67 21
3 -2 7 307.17 20.5
-2 -3 7 277.77 21.1
3 -2 7 281.57 21.9
4 3 -7 763.72 53.19
-3 4 -7 799.32 52.59
-4 -3 -7 803.62 52.29
3 -4 -7 814.52 52.59
-3 4 -7 824.02 53.19
3 -4 7 821.72 52.09
-4 -3 7 825.42 52.49
3 -4 7 832.52 52.69
-4 -3 7 796.32 52.39
-1 4 -7 973.2 58.29
-4 -1 -7 860.51 57.49
1 -4 -7 946.01 57.69
4 1 -7 826.02 57.59
-1 4 -7 919.51 57.69
1 -4 7 861.51 57.09
-1 4 7 817.32 57.19
1 -4 7 842.42 57.29
-4 -1 7 886.71 57.59
-4 -1 7 975.3 57.79
4 1 7 901.41 56.89
1 4 -7 886.01 58.39
1 4 -7 839.42 57.59
-4 1 -7 978.9 57.89
4 -1 -7 900.51 57.89
-1 -4 -7 876.91 57.49
-1 -4 7 961.4 57.69
-4 1 7 853.91 57.59
4 -1 7 878.31 56.99
-1 -4 7 989.3 57.59
-4 1 7 759.12 57.69
-3 -4 -7 827.32 52.29
-4 3 -7 810.62 53.09
-4 3 -7 807.72 52.59
3 4 -7 948.71 56.39
4 -3 -7 812.12 52.69
-4 3 7 762.32 52.29
4 -3 7 813.42 51.99
4 -3 7 838.02 53.99
-3 -4 7 810.12 52.39
-4 3 7 682.13 54.69
-3 -4 7 793.12 52.29
-5 -4 -7 429.26 27.3
-4 5 -7 409.86 28.3
-4 5 -7 395.76 27.7
5 4 -7 346.47 32.4
4 -5 -7 380.36 27.4
4 -5 7 433.06 27.5
4 -5 7 428.36 27.3
-4 5 7 385.06 27.6
-5 -4 7 405.06 27.6
-5 -4 7 386.26 27.1
4 -5 7 430.76 27.5
-2 5 -7 100.89 14.3
2 -5 -7 135.29 11.1
-2 5 -7 132.89 19.4
5 2 7 120.09 12.2
2 -5 7 131.79 10.4
-5 -2 7 109.89 10.4
-5 -2 7 139.99 12.3
-5 0 -7 100.59 9.8
0 5 -7 114.99 13.7
5 0 -7 93.19 10.4
0 5 -7 119.79 11.8
0 -5 -7 104.49 9.7
-5 0 7 110.09 10
-5 0 7 94.69 10.6
0 -5 7 111.49 9.6
0 -5 7 113.29 10.2
-5 2 -7 134.69 11.8
2 5 -7 159.68 15.1
5 -2 -7 117.79 11.7
-5 2 7 136.39 11.2
-2 -5 7 140.29 12
5 -2 7 143.79 11
5 -4 -7 379.96 27.7
4 5 -7 457.25 30.5
-4 -5 -7 411.56 27.4
-5 4 -7 383.76 28.3
-5 4 -7 386.06 27.7
-4 -5 7 396.06 27.6
5 -4 7 408.56 27.3
-4 -5 7 403.16 27.4
5 -4 7 412.06 28.3
-5 4 7 401.36 28.6
-5 4 7 426.36 27.7
5 -6 -7 163.08 12.5
-6 -5 -7 139.79 13.2
-5 6 -7 170.78 12.9
-5 6 -7 174.18 13.6
-6 -5 7 162.28 14.2
-5 6 7 150.58 13.3
-5 6 7 133.89 15.2
5 -6 7 146.09 13.2
5 -6 7 140.39 12.7
6 3 -7 260.97 21.9
-3 6 -7 300.47 21.4
-6 -3 -7 293.57 20.7
-3 6 -7 305.07 21.7
3 -6 -7 295.07 20.6
3 -6 7 288.37 20.4
3 -6 7 273.57 20.6
-6 -3 7 312.77 21.2
3 -6 7 280.67 20.4
-6 -3 7 321.17 20.6
-1 6 -7 325.57 23
-1 6 -7 317.67 22.7
1 -6 -7 343.47 21.9
-6 -1 -7 290.27 21.9
6 1 7 324.57 21.8
1 -6 7 266.87 21.6
-6 -1 7 343.97 22.1
-6 -1 7 328.67 21.8
1 -6 7 269.87 21.6
-1 -6 -7 288.97 20.8
6 -1 -7 305.77 21.6
1 6 -7 299.07 22.4
-6 1 7 268.97 21
6 -1 7 296.47 20.7
-1 -6 7 346.77 21.2
-6 1 7 282.97 21
6 -3 -7 289.17 21.3
-3 -6 -7 291.97 20.9
3 6 -7 307.67 23.2
-6 3 -7 320.17 21.4
-6 3 7 299.57 21.1
6 -3 7 280.47 20.8
-6 3 7 298.07 21.3
-3 -6 7 309.17 22
-3 -6 7 294.07 20.8
6 -5 -7 155.78 12.8
-5 -6 -7 135.69 14.1
-6 5 -7 189.68 14.1
-6 5 -7 178.78 13.2
5 6 -7 175.98 18.3
-5 -6 7 185.38 12.5
-5 -6 7 169.48 15
-6 5 7 144.89 13.3
6 -5 7 160.98 13.9
6 -5 7 153.38 13.4
-6 5 7 141.29 13.5
-6 7 -7 97.29 10
6 -7 -7 103.79 9.1
6 -7 7 86.69 9.4
-6 7 7 69.69 10.4
6 -7 7 77.39 13.6
-7 -6 7 110.49 8
-4 7 -7 276.07 19.9
4 -7 -7 280.17 19.2
-4 7 -7 281.07 20
-7 -4 -7 246.98 19.6
-4 7 7 227.28 20.5
4 -7 7 279.97 19.1
-7 -4 7 301.47 18.7
-7 -4 7 266.27 20.3
4 -7 7 280.57 20.1
7 2 -7 142.49 13.1
-2 7 -7 121.69 13.4
-2 7 -7 131.49 12.7
-7 -2 -7 149.09 11.6
2 -7 -7 123.79 11.2
2 -7 7 150.68 11.3
-7 -2 7 141.09 10.9
2 -7 7 142.79 12.4
7 2 7 105.99 14.7
-7 -2 7 133.99 12.2
7 0 -7 58.09 8.3
0 7 -7 68.29 10
0 -7 -7 61.09 7.7
-7 0 -7 57.59 7.7
-7 0 7 70.59 7.2
0 -7 7 60.79 7.6
0 -7 7 61.09 14.7
7 0 7 64.19 9
2 7 -7 157.18 13.8
7 -2 -7 114.29 11.7
-7 2 -7 140.59 11.8
-2 -7 -7 135.09 11.9
-7 2 7 157.28 11.5
-2 -7 7 126.69 11
-2 -7 7 125.49 13
7 -2 7 145.09 12.1
-7 2 7 145.39 16.1
4 7 -7 271.17 21.6
7 -4 -7 255.17 19.5
-7 4 -7 287.87 19.6
-4 -7 7 286.77 18.9
7 -4 7 244.68 20.7
-7 4 7 293.57 19.3
-7 4 7 282.07 19.8
-4 -7 7 260.97 21.6
7 -4 7 276.07 19.8
7 -6 -7 111.89 9.6
-7 6 -7 113.69 9.5
6 7 -7 96.29 16.9
-7 6 7 88.09 10.9
-6 -7 7 106.99 8.8
5 -8 -7 125.49 10.4
-5 8 -7 125.69 11.2
5 -8 7 116.29 10.3
-8 -5 7 127.69 9.4
-8 -3 -7 169.48 15.4
3 -8 -7 226.38 15.1
-3 8 -7 228.78 16.1
-8 -3 7 222.68 14.4
-8 -3 7 207.98 17.2
3 -8 7 174.98 17.7
3 -8 7 196.18 14.7
8 1 -7 148.89 14
-1 8 -7 195.18 14.5
-8 -1 -7 158.58 13.3
1 -8 -7 171.18 13.2
8 1 7 162.28 15.6
-8 -1 7 179.68 12.4
1 -8 7 161.58 12.7
-8 -1 7 177.88 14
1 -8 7 154.98 15.7
1 8 -7 165.08 14.4
-1 -8 -7 167.88 13.6
8 -1 -7 165.48 13.2
-8 1 -7 177.78 13.2
-8 1 7 159.58 12.2
-8 1 7 156.38 13.3
8 -1 7 149.69 13.8
-1 -8 7 154.88 16.1
-1 -8 7 184.48 12.7
-8 3 -7 239.38 15.7
3 8 -7 192.58 16.9
8 -3 -7 214.18 15.6
-8 3 7 190.18 14.8
8 -3 7 186.28 16.5
-3 -8 7 231.78 23.6
-8 3 7 187.28 15.7
-3 -8 7 232.68 15.1
8 -5 -7 122.99 9.8
5 8 -7 100.29 13.4
-8 5 -7 121.89 9.7
8 -5 7 95.99 11.7
-8 5 7 104.49 11.1
-8 5 7 97.79 9.1
-5 -8 7 118.69 9.2
8 -5 7 107.39 13
4 -9 -7 204.68 14.6
-4 9 -7 197.98 15.1
4 -9 7 196.78 14
-9 -4 7 184.78 13.3
-9 -2 -7 139.89 12.6
2 -9 -7 158.18 12.9
-2 9 -7 162.38 13.4
2 -9 7 171.28 12
-9 -2 7 171.18 11.6
9 0 -7 29.6 7.7
0 9 -7 43.5 8.4
-9 0 -7 37.4 6.5
-9 0 7 34.3 4.8
-9 0 7 42.6 9.1
9 -2 -7 159.38 13.1
-9 2 -7 162.18 13
2 9 -7 190.88 14.5
-9 2 7 171.28 12.1
-9 2 7 158.38 13.9
9 -2 7 183.58 15
9 -4 -7 190.08 14.3
4 9 -7 215.68 16.1
9 -4 7 190.98 18.1
-9 4 7 184.28 13.4
-1 10 -7 44.1 8.3
-10 -1 7 53.89 5.2
1 10 -7 70.39 9.5
10 -1 -7 59.29 9.3
-10 1 7 76.29 6.1
-1 -1 -8 5.1 3.3
1 1 -8 6.3 3.1
1 -1 -8 7.8 3.4
-1 1 -8 3.1 3
-1 1 8 8.6 4.8
-1 -1 8 11.2 5.7
1 -1 8 5 6.4
1 -1 8 14.6 8
1 1 8 3.7 4.7
0 -2 -8 233.28 16.4
-2 0 -8 229.58 16.4
2 0 -8 232.28 16.5
0 2 -8 222.48 16.4
2 0 8 212.38 16.4
-2 0 8 236.78 18.1
-2 0 8 232.18 18
0 2 8 220.28 17
0 -2 8 228.78 17.3
2 -2 -8 169.98 12.9
-2 -2 -8 166.58 12.7
-2 2 -8 174.58 12.9
2 2 -8 162.48 13.1
2 -2 8 179.18 13.3
-2 2 8 155.18 13.7
2 2 8 141.79 14.7
-2 -2 8 173.38 13.5
-2 -2 8 190.68 13.9
2 -2 8 182.48 14.3
-3 -1 -8 39.4 5.6
-1 3 -8 54.79 9
3 1 -8 40.3 6.5
1 -3 -8 51.49 6
-1 3 -8 53.69 6.5
3 1 8 38.9 9.6
1 -3 8 37.6 7.1
-3 -1 8 48.6 7.8
-1 3 8 34.6 9
1 -3 8 47.3 7.1
-3 -1 8 43.8 7.8
1 3 -8 38.6 6.7
-3 1 -8 50.29 6
-1 -3 -8 43.7 5.9
3 -1 -8 46.1 6
-3 1 8 43.8 7.6
-1 -3 8 55.19 7.4
3 -1 8 32.6 7.6
3 -1 8 35.2 8.2
-1 -3 8 58.29 7.5
-3 1 8 42.9 7.7
3 -3 -8 5.7 3
-3 3 -8 10.6 3.6
-3 -3 -8 9.3 3.2
3 3 -8 10.6 4.5
3 -3 8 9.5 4.8
-3 3 8 7.9 5.8
-3 -3 8 9.1 4.1
3 -3 8 7.1 4.5
-3 -3 8 14.2 5.3
-4 -2 -8 253.17 16.7
2 -4 -8 243.38 16.6
-2 4 -8 237.88 18.6
-2 4 -8 239.68 16.9
4 2 -8 201.98 16.9
-4 -2 8 243.78 16.8
2 -4 8 252.67 17.2
-2 4 8 201.58 18.1
2 -4 8 197.98 18.4
2 -4 8 236.58 16.9
-4 -2 8 252.37 17.7
0 -4 -8 242.98 16.9
4 0 -8 234.48 17.2
0 4 -8 225.68 17.4
0 4 -8 253.57 20.4
-4 0 -8 250.27 17
0 -4 8 246.68 17.5
-4 0 8 235.38 17.6
0 -4 8 239.98 17
4 0 8 225.18 17.7
-4 0 8 240.68 17.9
2 4 -8 205.18 17.3
-2 -4 -8 234.88 16.6
4 -2 -8 234.38 16.9
-4 2 -8 249.97 17
-2 -4 8 250.57 17.7
-4 2 8 233.68 17.7
4 -2 8 254.07 18.1
-4 2 8 206.18 17.7
4 -2 8 237.68 17.3
-2 -4 8 252.47 17
-4 4 -8 189.48 14
-4 -4 -8 186.38 13.7
4 -4 -8 181.48 13.6
-4 4 8 158.28 15.4
-4 -4 8 191.08 15.4
4 -4 8 190.08 15
-4 -4 8 203.98 13.9
-3 5 -8 42.3 6.9
-3 5 -8 46.1 9.2
3 -5 -8 40.5 5.6
-5 -3 8 43.8 9
-5 -3 8 39.7 5.7
3 -5 8 38.6 8.8
3 -5 8 34.7 7.4
-1 5 -8 87.49 9.5
1 -5 -8 98.89 8.3
5 1 8 65.49 14.7
-5 -1 8 101.59 10.3
-5 -1 8 93.19 8.8
-1 -5 -8 50.19 6
1 5 -8 38.6 8.9
1 5 -8 29.6 9.1
5 -1 8 45 9.3
-5 1 8 45.9 7.3
-5 1 8 45.3 7.9
-3 -5 -8 21.7 4.4
5 -3 8 26.9 6.1
-5 3 8 17.9 6
-5 3 8 13.9 5.2
5 -5 -8 11.5 3.6
-5 -5 -8 12.1 5.5
5 -5 8 4.9 8.8
-5 -5 8 19.5 4.5
-5 5 8 11.9 6.7
4 -6 -8 4.7 2.9
-6 -4 -8 9.9 5.3
-4 6 -8 8.3 4.2
-6 -4 8 11.6 3.2
4 -6 8 25.6 6.5
-2 6 -8 7.3 5
2 -6 -8 8.9 3.4
-6 -2 -8 9.3 3.9
-2 6 -8 -0.7 5.6
2 -6 8 10.6 3.5
-6 -2 8 13 3.4
2 -6 8 12.4 5.1
-6 -2 8 14.9 6.9
6 0 -8 9.5 4.2
0 -6 -8 8.2 3.4
0 -6 8 8.5 6.3
0 -6 8 4.7 3.5
-6 0 8 4.2 3.7
-6 0 8 4 5.5
6 -2 -8 14.3 4.1
2 6 -8 11.4 12.2
-6 2 -8 17.8 4.1
-6 2 8 7.7 5.5
-2 -6 8 14.2 3.7
6 -2 8 24.3 7.1
-2 -6 8 8.7 7.7
6 -4 -8 6.8 3.3
-6 4 -8 9 3.8
-4 -6 -8 6.4 6.6
-6 4 8 12.4 7.7
-4 -6 8 5.1 3.3
3 -7 -8 143.79 11
-7 -3 -8 133.89 11.9
-3 7 -8 151.88 12.6
3 -7 8 167.68 13.2
-7 -3 8 134.29 10.4
-1 7 -8 346.37 22.1
7 1 -8 246.88 21.3
1 -7 -8 327.97 20.6
1 -7 8 272.77 20.6
-7 -1 8 328.37 20.4
7 -1 -8 294.57 19.2
-7 1 -8 329.97 19.4
-1 -7 -8 247.98 20.9
-7 1 8 236.68 18.5
7 -3 -8 125.49 10.3
-7 3 -8 122.69 10.2
-3 -7 8 143.99 10.1
-1 0 -9 17.5 4.2
1 0 -9 12.7 3.2
0 -1 -9 24 3.8
0 1 -9 20.1 5
0 -1 9 29.3 6
-1 0 9 31.4 6.2
2 1 -9 80.99 8.8
-1 2 -9 117.29 9
1 -2 -9 113.59 8.6
1 -2 9 92.09 10.7
1 2 -9 92.49 10
2 -1 -9 117.29 9.2
-2 1 -9 125.79 9.3
-1 -2 9 118.79 10.6
2 -1 9 99.69 13.5
loop_
_twin_individual_id
_twin_individual_mass_fraction_refined
1 0.85(7)
2 0.15(7)
