#------------------------------------------------------------------------------
#$Date: 2019-03-01 01:27:00 +0200 (Fri, 01 Mar 2019) $
#$Revision: 213903 $
#$URL: file:///home/coder/svn-repositories/cod/cif/1/55/06/1550671.cif $
#------------------------------------------------------------------------------
#
# This file is available in the Crystallography Open Database (COD),
# http://www.crystallography.net/
#
# All data on this site have been placed in the public domain by the
# contributors.
#
data_1550671
loop_
_publ_author_name
'Kong, Xiang-Jing'
'He, Tao'
'Zhang, Yongzheng'
'Wu, Xue-Qian'
'Wang, Si-Nan'
'Xu, Ming-Ming'
'Si, Guang-Rui'
'Li, Jian-Rong Jeff'
_publ_section_title
;
 Constructing New Metal-Organic Frameworks with Complicated Ligands
 Generated from &#x201C;One-Pot&#x201D; In Situ Reactions
;
_journal_name_full               'Chemical Science'
_journal_paper_doi               10.1039/C9SC00178F
_journal_year                    2019
_chemical_formula_moiety         '0.06(C384 H208 B48 O320 Zr48)'
_chemical_formula_sum            'C24 H13 B3 O20 Zr3'
_chemical_formula_weight         927.43
_space_group_crystal_system      tetragonal
_space_group_IT_number           141
_space_group_name_Hall           '-I 4bd 2'
_space_group_name_H-M_alt        'I 41/a m d'
_symmetry_space_group_name_Hall  '-I 4bd 2'
_symmetry_space_group_name_H-M   'I 41/a m d :2'
_atom_sites_solution_hydrogens   geom
_audit_creation_date             2018-07-23
_audit_creation_method
;
Olex2 1.2
(compiled 2018.04.26 svn.r3504 for OlexSys, GUI svn.r5492)
;
_audit_update_record
;
2019-01-04 deposited with the CCDC.    2019-02-28 downloaded from the CCDC.
;
_cell_angle_alpha                90
_cell_angle_beta                 90
_cell_angle_gamma                90
_cell_formula_units_Z            16
_cell_length_a                   40.5746(8)
_cell_length_b                   40.5746(8)
_cell_length_c                   17.0198(4)
_cell_measurement_reflns_used    3288
_cell_measurement_temperature    173.00(10)
_cell_measurement_theta_max      62.6430
_cell_measurement_theta_min      4.1440
_cell_volume                     28019.7(10)
_computing_cell_refinement       'CrysAlisPro 1.171.39.32a (Rigaku OD, 2017)'
_computing_data_collection       'CrysAlisPro 1.171.39.32a (Rigaku OD, 2017)'
_computing_data_reduction        'CrysAlisPro 1.171.39.32a (Rigaku OD, 2017)'
_computing_molecular_graphics    'Olex2 (Dolomanov et al., 2009)'
_computing_publication_material  'Olex2 (Dolomanov et al., 2009)'
_computing_structure_refinement  'ShelXL (Sheldrick, 2015)'
_diffrn_ambient_environment      N~2~
_diffrn_ambient_temperature      173.00(10)
_diffrn_detector                 'CCD plate'
_diffrn_detector_area_resol_mean 10.3376
_diffrn_detector_type            AtlasS2
_diffrn_measured_fraction_theta_full 0.998
_diffrn_measured_fraction_theta_max 0.998
_diffrn_measurement_details
;
List of Runs (angles in degrees, time in seconds):

  # Type    Start    End  Width  t~exp~   \w     \q     \k     \f   Frames
#--------------------------------------------------------------------------
  1  \w   -108.00 -82.00   1.00   30.00    --  -42.06-138.00-103.00   26
  2  \w    -96.00  -2.00   1.00   30.00    --  -42.06 125.00 -90.00   94
  3  \w    102.00 128.00   1.00   60.00    --  107.13 125.00 150.00   26
  4  \w    113.00 178.00   1.00   60.00    --  107.13 125.00 -90.00   65
  5  \w     97.00 140.00   1.00   60.00    --  107.13 125.00-120.00   43
  6  \w     87.00 167.00   1.00   60.00    --  107.13  45.00 -30.00   80
;
_diffrn_measurement_device       'four-circle diffractometer'
_diffrn_measurement_device_type  'SuperNova, Dual, Cu at home/near, AtlasS2'
_diffrn_measurement_method       '\w scans'
_diffrn_orient_matrix_type
'CrysAlisPro convention (1999,Acta A55,543-557)'
_diffrn_orient_matrix_UB_11      0.0139905000
_diffrn_orient_matrix_UB_12      -0.0115258000
_diffrn_orient_matrix_UB_13      0.0795330000
_diffrn_orient_matrix_UB_21      0.0035827000
_diffrn_orient_matrix_UB_22      0.0361623000
_diffrn_orient_matrix_UB_23      0.0262934000
_diffrn_orient_matrix_UB_31      -0.0351138000
_diffrn_orient_matrix_UB_32      -0.0009519000
_diffrn_orient_matrix_UB_33      0.0343121000
_diffrn_radiation_monochromator  mirror
_diffrn_radiation_probe          x-ray
_diffrn_radiation_type           CuK\a
_diffrn_radiation_wavelength     1.54178
_diffrn_reflns_av_R_equivalents  0.0861
_diffrn_reflns_av_unetI/netI     0.0625
_diffrn_reflns_Laue_measured_fraction_full 0.998
_diffrn_reflns_Laue_measured_fraction_max 0.998
_diffrn_reflns_limit_h_max       28
_diffrn_reflns_limit_h_min       -47
_diffrn_reflns_limit_k_max       48
_diffrn_reflns_limit_k_min       -34
_diffrn_reflns_limit_l_max       20
_diffrn_reflns_limit_l_min       -19
_diffrn_reflns_number            26464
_diffrn_reflns_point_group_measured_fraction_full 0.998
_diffrn_reflns_point_group_measured_fraction_max 0.998
_diffrn_reflns_theta_full        66.581
_diffrn_reflns_theta_max         66.581
_diffrn_reflns_theta_min         3.560
_diffrn_source                   'micro-focus sealed X-ray tube'
_diffrn_source_type              'SuperNova (Cu) X-ray Source'
_exptl_absorpt_coefficient_mu    3.956
_exptl_absorpt_correction_T_max  1.00000
_exptl_absorpt_correction_T_min  0.75646
_exptl_absorpt_correction_type   multi-scan
_exptl_absorpt_process_details
;
CrysAlisPro 1.171.39.32a (Rigaku Oxford Diffraction, 2017)
Empirical absorption correction using spherical harmonics,
 implemented in SCALE3 ABSPACK scaling algorithm.
;
_exptl_crystal_colour            'dark colourless'
_exptl_crystal_density_diffrn    0.879
_exptl_crystal_description       block
_exptl_crystal_F_000             7232
_exptl_crystal_size_max          0.06
_exptl_crystal_size_mid          0.04
_exptl_crystal_size_min          0.04
_refine_diff_density_max         1.153
_refine_diff_density_min         -2.398
_refine_diff_density_rms         0.130
_refine_ls_extinction_method     none
_refine_ls_goodness_of_fit_ref   1.158
_refine_ls_hydrogen_treatment    constr
_refine_ls_matrix_type           full
_refine_ls_number_parameters     252
_refine_ls_number_reflns         6381
_refine_ls_number_restraints     226
_refine_ls_restrained_S_all      1.166
_refine_ls_R_factor_all          0.1378
_refine_ls_R_factor_gt           0.1028
_refine_ls_shift/su_max          0.001
_refine_ls_shift/su_mean         0.000
_refine_ls_structure_factor_coef Fsqd
_refine_ls_weighting_details
'w=1/[\s^2^(Fo^2^)+(0.2000P)^2^] where P=(Fo^2^+2Fc^2^)/3'
_refine_ls_weighting_scheme      calc
_refine_ls_wR_factor_gt          0.2872
_refine_ls_wR_factor_ref         0.3466
_reflns_Friedel_coverage         0.000
_reflns_number_gt                3714
_reflns_number_total             6381
_reflns_threshold_expression     'I > 2\s(I)'
_cod_data_source_file            c9sc00178f2.cif
_cod_data_source_block           BUT-108(Zr)
_cod_original_cell_volume        28019.7(13)
_cod_database_code               1550671
_shelx_shelxl_version_number     2018/3
_chemical_oxdiff_formula         'C11 H10 N O'
_shelx_space_group_comment
;
The symmetry employed for this shelxl refinement is uniquely defined
by the following loop, which should always be used as a source of
symmetry information in preference to the above space-group names.
They are only intended as comments.
;
_shelx_estimated_absorpt_t_max   0.858
_shelx_estimated_absorpt_t_min   0.797
_reflns_odcompleteness_completeness 99.84
_reflns_odcompleteness_iscentric 1
_reflns_odcompleteness_theta     66.49
_olex2_refinement_description
;
1. Fixed Uiso
 At 1.2 times of:
  All C(H) groups
2. Rigid bond restraints
 All non-hydrogen atoms
 with sigma for 1-2 distances of 0.01 and sigma for 1-3 distances of 0.01
3. Uiso/Uaniso restraints and constraints
All non-hydrogen atoms have similar U: within 2A with sigma of 0.04 and sigma
for terminal atoms of 0.08
4. Others
 Fixed Sof: O9(0.5) C8(0.5) C10(0.5)
5.a Aromatic/amide H refined with riding coordinates:
 C7(H7), C6(H6), C3(H3), C13(H13), C4(H4), C12(H12), C9(H9)
;
_shelx_res_file
;
TITL 141_a.res in I4(1)/amd
    141.res
    created by SHELXL-2018/3 at 10:35:38 on 23-Jul-2018
REM Old TITL 141 in I41/amd #141
CELL 1.54178 40.5746 40.5746 17.0198 90 90 90
ZERR 16 0.0008 0.0008 0.0004 0 0 0
LATT 2
SYMM 0.5-X,-Y,0.5+Z
SYMM 0.25-Y,0.75+X,0.25+Z
SYMM 0.25+Y,0.25-X,0.75+Z
SYMM 0.5-X,+Y,0.5-Z
SYMM +X,-Y,-Z
SYMM 0.25+Y,0.75+X,0.25-Z
SYMM 0.25-Y,0.25-X,0.75-Z
SFAC C H B O Zr
UNIT 384 208 48 320 48
DELU
SIMU

L.S. 20
PLAN  1
SIZE 0.04 0.04 0.06
LIST 6
ABIN
fmap 2
acta
OMIT 0 8 0
OMIT 3 3 2
OMIT 2 9 3
REM <olex2.extras>
REM <HklSrc "%.\\141.hkl">
REM </olex2.extras>

WGHT    0.200000
FVAR       0.04288
ZR2   5    0.729245    0.293083    0.840908    11.00000    0.03472    0.15826 =
         0.07713    0.00410    0.00243    0.00396
ZR1   5    0.696081    0.250000    0.682417    10.50000    0.03154    0.18667 =
         0.07389    0.00000    0.00179    0.00000
O2    4    0.678339    0.310567    0.826357    11.00000    0.03938    0.15879 =
         0.08472   -0.00891    0.00586    0.00136
O1    4    0.656386    0.283306    0.723758    11.00000    0.03996    0.15975 =
         0.10133   -0.01429    0.00272    0.00512
O7    4    0.742867    0.250000    0.622906    10.50000    0.06085    0.13763 =
         0.14711    0.00000    0.04610    0.00000
O3    4    0.723801    0.292468    0.715191    11.00000    0.04239    0.23356 =
         0.10807   -0.01943    0.02875   -0.02155
O12   4    0.526478    0.454268    1.302231    11.00000    0.23445    0.05013 =
         0.06598   -0.00414   -0.00638    0.03245
O11   4    0.529036    0.385500    0.915012    11.00000    0.10058    0.22429 =
         0.14133   -0.11980   -0.03634    0.05471
O5    4    0.732979    0.345588    0.820843    11.00000    0.07890    0.17035 =
         0.14892    0.05904   -0.03252   -0.04043
C2    1    0.623075    0.319166    0.796265    11.00000    0.04280    0.13228 =
         0.10103   -0.02501    0.00041    0.00130
C7    1    0.595914    0.312978    0.749533    11.00000    0.05503    0.12065 =
         0.07898   -0.03222    0.00286    0.00548
AFIX  43
H7    2    0.597697    0.298228    0.707925    11.00000   -1.20000
AFIX   0
C6    1    0.565893    0.328535    0.763892    11.00000    0.04855    0.11276 =
         0.09736   -0.02715   -0.01024    0.00298
AFIX  43
H6    2    0.547911    0.323780    0.731963    11.00000   -1.20000
AFIX   0
C1    1    0.655044    0.303841    0.780758    11.00000    0.03917    0.14864 =
         0.08978    0.00031    0.00423   -0.00327
C15   1    0.500000    0.448266    1.265097    10.50000    0.23794    0.04768 =
         0.05212   -0.00069    0.00000    0.00000
O4    4    0.703408    0.250000    0.805108    10.50000    0.15534    0.14057 =
         0.10142    0.00000   -0.03995    0.00000
C5    1    0.562230    0.351142    0.825283    11.00000    0.06931    0.13222 =
         0.08765   -0.04235   -0.01525    0.02319
C14   1    0.500000    0.433742    1.190117    10.50000    0.21185    0.06242 =
         0.08202   -0.03230    0.00000    0.00000
C3    1    0.619645    0.340885    0.856188    11.00000    0.06429    0.20194 =
         0.12000   -0.07699   -0.03133    0.01657
AFIX  43
H3    2    0.637551    0.344777    0.889012    11.00000   -1.20000
AFIX   0
C13   1    0.528400    0.425956    1.152067    11.00000    0.18053    0.15133 =
         0.12115   -0.08007   -0.04420    0.05632
AFIX  43
H13   2    0.548302    0.429540    1.177795    11.00000   -1.20000
AFIX   0
C11   1    0.500000    0.404224    1.045045    10.50000    0.15925    0.11101 =
         0.08535   -0.04698    0.00000    0.00000
C4    1    0.590437    0.357480    0.870269    11.00000    0.07730    0.22270 =
         0.12195   -0.09438   -0.03444    0.03176
AFIX  43
H4    2    0.589522    0.373087    0.910229    11.00000   -1.20000
AFIX   0
C12   1    0.529152    0.413034    1.077360    11.00000    0.16094    0.15952 =
         0.11714   -0.07437   -0.03551    0.04681
AFIX  43
H12   2    0.548878    0.410465    1.050214    11.00000   -1.20000
AFIX   0
O6    4    0.757310    0.316329    0.937785    11.00000    0.12967    0.11378 =
         0.07885   -0.01922   -0.00378    0.02546
O8    4    0.683350    0.281010    0.582404    11.00000    0.09402    0.27631 =
         0.08081    0.00091   -0.01054    0.06436
B2    3    0.500000    0.390525    0.949956    10.50000    0.13375    0.16175 =
         0.08246   -0.04045    0.00000    0.00000
O10   4    0.500000    0.357196    0.814850    10.50000    0.06210    0.05841 =
         0.05704    0.00088    0.00000    0.00000
O9    4    0.655304    0.285215    0.472392    10.50000    0.06732    0.08047 =
         0.08879    0.02200    0.00137    0.00567
C8    1    0.657734    0.268999    0.536433    10.50000    0.08337    0.12310 =
         0.04970    0.01877    0.02035    0.02647
B1    3    0.529175    0.369329    0.841402    11.00000    0.08649    0.17828 =
         0.11759   -0.08702   -0.05822    0.05242
C9    1    0.750000    0.355001    0.750000    10.50000    0.14042    0.14934 =
         0.10343    0.00000   -0.03188    0.00000
AFIX  43
H9    2    0.750001    0.377922    0.750000    10.50000   -1.20000
AFIX   0
C10   1    0.793760    0.313108    0.954968    10.50000    0.14138    0.12539 =
         0.12773    0.01100   -0.06681   -0.03417
HKLF 4




REM  141_a.res in I4(1)/amd
REM wR2 = 0.3466, GooF = S = 1.158, Restrained GooF = 1.166 for all data
REM R1 = 0.1028 for 3714 Fo > 4sig(Fo) and 0.1378 for all 6381 data
REM 252 parameters refined using 226 restraints

END

WGHT      0.2000      0.0000

REM Highest difference peak  1.153,  deepest hole -2.398,  1-sigma level  0.130
Q1    1   0.7168  0.2500  0.7741  10.50000  0.05    0.76
;
_shelx_res_checksum              88534
_shelx_fab_file
;
0 0 4 -201.7901 12.9313
0 0 8 -14.1170 11.5109
0 0 12 4.0916 -11.0186
0 0 16 -29.8621 0.7475
0 0 20 -21.3507 0.5608
1 0 3 -40.7957 -4.4540
1 0 5 -51.0493 7.9796
1 0 7 50.3387 13.8973
1 0 9 -22.0995 -3.0279
1 0 11 -10.7058 -7.0247
1 0 13 -1.0323 -0.6795
1 0 15 -12.9076 -1.1617
1 0 17 -3.6756 -0.2468
1 0 19 -4.7734 2.1080
1 1 2 34.9635 5.8463
1 1 6 -23.6465 2.2554
1 1 14 6.8538 -1.0171
1 1 18 21.2591 1.3563
2 0 2 -54.5706 -9.4336
2 0 4 -53.8856 -4.4963
2 0 6 35.5540 20.5034
2 0 8 27.4476 0.0744
2 0 10 15.3900 -7.7261
2 0 12 -4.3001 2.7674
2 0 14 4.9969 -0.9320
2 0 16 48.3422 -2.2216
2 0 18 4.9788 2.0781
2 0 20 -4.3721 0.0273
2 1 1 31.4024 23.2540
2 1 3 97.6580 -2.4870
2 1 5 71.4974 -22.0775
2 1 7 -4.3496 15.8210
2 1 9 -9.2223 4.1583
2 1 11 -12.1517 -4.3414
2 1 13 -4.0306 6.1143
2 1 15 6.4050 -0.5822
2 1 17 -15.7786 -3.0930
2 1 19 -25.0712 0.8448
2 2 4 -48.0359 13.6121
2 2 8 -20.3057 5.5087
2 2 12 14.0033 -8.7516
2 2 16 2.2470 3.7057
2 2 20 -5.5824 -0.2508
3 0 1 -182.3054 -2.9960
3 0 3 139.4396 -0.4907
3 0 5 74.5947 4.6768
3 0 7 4.3165 -6.0077
3 0 9 23.0373 1.3703
3 0 11 -5.6884 7.8015
3 0 13 -5.4678 -5.4128
3 0 15 21.6254 0.7111
3 0 17 1.1218 1.6355
3 0 19 -3.7919 -3.1280
3 1 2 -31.2133 -6.9960
3 1 4 44.3901 -5.8109
3 1 6 -7.1154 -1.1490
3 1 8 -4.4970 -3.9350
3 1 10 5.3689 5.5957
3 1 12 11.3773 9.3680
3 1 14 -11.9220 -2.4214
3 1 16 0.6586 -2.4157
3 1 18 -0.1584 0.5818
3 1 20 9.9564 -2.6498
3 2 1 -59.7019 -1.8567
3 2 3 -34.4624 1.6048
3 2 5 6.6163 1.6525
3 2 7 6.7203 6.9019
3 2 9 -2.5036 -7.0321
3 2 11 -1.1594 -10.0157
3 2 13 -2.1727 5.7098
3 2 15 -0.7174 3.8478
3 2 17 2.0472 0.2112
3 2 19 23.9524 2.0262
3 3 6 15.8240 -6.0843
3 3 10 -12.3854 2.2238
3 3 14 -16.9309 3.5670
3 3 18 5.9625 -2.6373
4 0 0 3.2665 3.0652
4 0 2 -143.0344 6.9309
4 0 4 9.0140 9.5188
4 0 6 60.7921 -22.9284
4 0 8 -33.4250 0.1060
4 0 10 -8.8948 13.2115
4 0 12 15.9953 -4.6130
4 0 14 -1.8058 -1.0194
4 0 16 17.1219 4.4089
4 0 18 -14.2353 -3.6009
4 0 20 14.5316 -1.7023
4 1 1 -247.7744 -36.8156
4 1 3 -124.5037 -4.1272
4 1 5 15.3324 18.3234
4 1 7 11.8422 -22.5117
4 1 9 6.6384 -2.4655
4 1 11 17.2847 15.3477
4 1 13 6.5765 -4.4551
4 1 15 -0.5406 -1.8806
4 1 17 -15.6686 2.9025
4 1 19 13.1372 -1.6023
4 2 0 -415.9723 -11.7013
4 2 2 74.0018 -8.3220
4 2 4 22.2656 -0.5009
4 2 6 27.2415 13.5147
4 2 8 4.4547 -5.2455
4 2 10 15.4942 -10.6423
4 2 12 4.6500 1.8357
4 2 14 -12.1989 2.1048
4 2 16 13.0393 2.8791
4 2 18 5.9982 2.0690
4 2 20 -15.7531 -1.5731
4 3 1 27.4340 10.6987
4 3 3 -52.7085 -2.9642
4 3 5 45.5779 -5.1113
4 3 7 5.0566 2.6870
4 3 9 -17.3387 1.4682
4 3 11 -12.6167 1.5064
4 3 13 2.8378 1.6177
4 3 15 2.9180 0.2994
4 3 17 7.5556 -0.3370
4 3 19 27.2894 -0.7055
4 4 0 174.1718 -2.0767
4 4 4 -51.5926 11.2880
4 4 8 -12.2431 5.0455
4 4 12 4.7521 -8.0730
4 4 16 23.3508 3.4543
4 4 20 -0.4365 0.0723
5 0 1 217.3447 5.2489
5 0 3 9.4489 -5.0021
5 0 5 -10.3646 -7.2014
5 0 7 -5.5849 12.3663
5 0 9 -20.6139 -3.0244
5 0 11 -42.3708 -5.8343
5 0 13 -10.3489 9.2950
5 0 15 -36.6987 -5.0574
5 0 17 3.3158 -4.2947
5 0 19 13.4207 4.6977
5 1 2 -212.0971 0.9418
5 1 4 37.4341 6.5072
5 1 6 1.1821 -5.3117
5 1 8 -22.4127 4.4305
5 1 10 1.8312 0.9883
5 1 12 -18.2271 -8.3126
5 1 14 -10.1286 3.5115
5 1 16 0.0268 0.8716
5 1 18 -3.9162 -2.7672
5 1 20 -18.1002 3.3284
5 2 1 -216.7353 -4.3649
5 2 3 35.2459 -1.9942
5 2 5 10.6281 6.1735
5 2 7 7.8466 -3.6033
5 2 9 11.9591 -2.6326
5 2 11 -1.6038 3.1668
5 2 13 11.2695 -3.6687
5 2 15 2.3800 2.4765
5 2 17 -4.7900 2.7067
5 2 19 3.9109 -2.4164
5 3 2 -49.6713 -1.7956
5 3 4 -24.3053 -7.9694
5 3 6 14.2671 0.7502
5 3 8 1.4876 -0.0840
5 3 10 -4.0992 1.3070
5 3 12 -5.7113 6.9530
5 3 14 -16.2055 -1.1990
5 3 16 -0.8688 -1.5402
5 3 18 -43.7883 0.5657
5 3 20 -16.9765 -2.0981
5 4 1 110.0017 -9.8281
5 4 3 121.7099 5.8040
5 4 5 -36.3981 14.5112
5 4 7 -8.6545 8.7712
5 4 9 0.4105 -1.1931
5 4 11 15.5085 -11.8259
5 4 13 -0.9637 -3.8354
5 4 15 -0.1689 6.2985
5 4 17 0.7302 2.8461
5 4 19 -6.2974 -0.0045
5 5 2 73.9261 -9.1502
5 5 6 -22.7427 -8.9262
5 5 10 14.0495 7.6921
5 5 14 -29.0636 3.4793
5 5 18 -25.3042 -4.4284
6 0 0 126.3952 10.4825
6 0 2 -78.7706 -11.8054
6 0 4 49.8403 -12.8924
6 0 6 46.7047 15.6709
6 0 8 35.5393 1.4720
6 0 10 3.5369 -9.5189
6 0 12 -5.7941 8.3259
6 0 14 -36.6087 0.3144
6 0 16 -10.8983 -6.3010
6 0 18 -9.0855 2.0851
6 0 20 9.3309 1.8042
6 1 1 76.7294 4.0276
6 1 3 101.5002 2.8249
6 1 5 2.5481 1.2963
6 1 7 -13.6298 1.6907
6 1 9 3.7325 7.9188
6 1 11 -13.9762 -4.1674
6 1 13 -11.0539 -4.9600
6 1 15 7.9041 2.4528
6 1 17 -5.0145 -1.6330
6 1 19 7.4921 -0.4429
6 2 0 182.3151 -2.4518
6 2 2 91.7271 4.0676
6 2 4 39.0418 4.7255
6 2 6 -52.6161 -3.4240
6 2 8 -16.9377 -0.8614
6 2 10 -18.0105 2.2259
6 2 12 -9.6699 0.6796
6 2 14 -5.4055 -1.8249
6 2 16 -18.2196 0.4554
6 2 18 -5.7180 -0.0607
6 2 20 5.9550 -0.9363
6 3 1 -97.2989 -15.3116
6 3 3 -6.9726 -2.9037
6 3 5 6.0117 -2.7038
6 3 7 13.3162 -3.1207
6 3 9 -2.9367 -0.2225
6 3 11 -1.2632 0.8502
6 3 13 14.5676 2.9664
6 3 15 5.3557 0.7157
6 3 17 -28.5060 -1.1752
6 3 19 2.0435 0.2556
6 4 0 -263.6531 0.8688
6 4 2 -41.6047 -8.9452
6 4 4 -62.1435 3.7624
6 4 6 -15.6668 3.3239
6 4 8 -5.3423 -1.6549
6 4 10 10.5867 -3.4131
6 4 12 2.0099 -2.7717
6 4 14 13.3891 1.4809
6 4 16 10.7111 3.4448
6 4 18 -3.5816 -0.2364
6 4 20 10.8040 0.2161
6 5 1 -42.3770 -1.7199
6 5 3 -120.4730 -2.0680
6 5 5 16.2163 3.1174
6 5 7 25.4230 -7.0089
6 5 9 9.5003 -1.9246
6 5 11 -3.8693 6.5838
6 5 13 5.0966 2.5619
6 5 15 -4.0400 0.3228
6 5 17 -5.2492 -0.4050
6 5 19 -16.1921 -2.6438
6 6 0 -109.9655 11.1732
6 6 4 -19.2069 0.0868
6 6 8 -20.3724 -4.7663
6 6 12 15.6722 1.7066
6 6 16 -1.2598 1.5961
7 0 1 101.2491 -6.6035
7 0 3 -77.0231 2.5267
7 0 5 9.5180 0.6352
7 0 7 18.3282 -9.4746
7 0 9 7.9044 12.0451
7 0 11 2.5033 11.1211
7 0 13 -3.5721 -10.6297
7 0 15 21.8348 0.0987
7 0 17 27.1470 0.2233
7 0 19 -27.1841 -4.4393
7 1 2 96.4081 -9.6511
7 1 4 107.3007 5.9957
7 1 6 15.4972 10.7945
7 1 8 1.4916 -4.6930
7 1 10 -9.0150 -1.4421
7 1 12 -3.8670 4.2496
7 1 14 16.4057 -7.5565
7 1 16 -6.6822 -0.1106
7 1 18 -14.4862 4.4896
7 1 20 -5.4769 -1.3015
7 2 1 -53.5466 -5.3587
7 2 3 -65.8976 -0.9641
7 2 5 3.4173 3.9557
7 2 7 12.4178 1.1977
7 2 9 -15.4612 0.7288
7 2 11 5.5562 0.6762
7 2 13 -10.2059 -1.9483
7 2 15 10.6180 0.2583
7 2 17 -5.9768 0.3286
7 2 19 -25.0030 0.1252
7 3 2 87.7401 6.2063
7 3 4 -9.1391 0.4781
7 3 6 -6.1407 1.7066
7 3 8 -7.1438 -1.6259
7 3 10 8.5917 -4.0745
7 3 12 16.2592 1.6130
7 3 14 -5.9578 -0.6433
7 3 16 3.2166 0.1327
7 3 18 7.0745 0.7895
7 3 20 0.6184 -0.5406
7 4 1 -19.1809 -4.0234
7 4 3 104.5979 -4.4724
7 4 5 2.4732 -0.6407
7 4 7 -2.9155 0.4573
7 4 9 -19.3239 -2.4051
7 4 11 -3.0185 -0.2651
7 4 13 -31.0624 1.7988
7 4 15 -8.8238 -0.2606
7 4 17 3.0130 -1.4792
7 4 19 -11.5882 0.0214
7 5 2 -26.7164 -1.0098
7 5 4 -23.5505 -10.4658
7 5 6 21.6881 0.8917
7 5 8 15.4115 6.2323
7 5 10 -2.4539 1.8177
7 5 12 -3.5839 2.2537
7 5 14 -14.2506 -1.9388
7 5 16 -9.3320 -0.8696
7 5 18 7.2967 -0.0138
7 6 1 -91.4483 -7.9522
7 6 3 -53.8773 8.1806
7 6 5 -22.0457 0.1911
7 6 7 6.0453 -5.7176
7 6 9 13.2703 3.2956
7 6 11 6.6134 1.0863
7 6 13 2.6761 -1.5065
7 6 15 1.1895 2.9555
7 6 17 -0.6740 0.8372
7 6 19 -1.7145 -1.5279
7 7 2 -98.8607 -12.9273
7 7 6 -41.8419 -3.7562
7 7 10 9.0478 8.3139
7 7 14 2.5460 -1.9805
7 7 18 -0.7835 -1.6038
8 0 2 -34.2670 -3.6414
8 0 4 -60.0584 8.3722
8 0 6 -57.0513 -0.3849
8 0 8 -15.2518 -1.7923
8 0 10 -9.0433 15.6673
8 0 12 1.3716 -3.5047
8 0 14 50.6569 -9.2988
8 0 16 6.6160 3.2106
8 0 18 8.2669 -3.5452
8 1 1 -56.4066 1.8836
8 1 3 7.3489 -0.4907
8 1 5 1.0097 3.5095
8 1 7 -24.9704 6.5251
8 1 9 7.6883 -7.8371
8 1 11 12.3161 -2.9387
8 1 13 9.2712 0.7949
8 1 15 4.8620 -3.2956
8 1 17 -13.6113 2.7754
8 1 19 -1.9082 2.1176
8 2 0 60.2455 9.3568
8 2 2 9.0774 -7.0861
8 2 4 71.6304 -2.1417
8 2 6 0.4326 -1.7335
8 2 8 3.8500 -1.2081
8 2 10 17.3616 0.8500
8 2 12 4.3913 0.1887
8 2 14 8.8848 0.2012
8 2 16 -39.9128 0.0644
8 2 18 19.1861 0.3724
8 3 1 -5.6729 0.7713
8 3 3 6.8713 3.4841
8 3 5 35.3413 8.8801
8 3 7 11.0945 -3.4634
8 3 9 -7.9752 -1.1459
8 3 11 -10.8908 2.8546
8 3 13 -5.7628 -2.2687
8 3 15 5.6552 -0.7587
8 3 17 9.2980 1.1805
8 3 19 -17.5136 -1.1250
8 4 0 135.0913 6.1471
8 4 2 -14.1641 4.1038
8 4 4 97.3204 -2.0906
8 4 6 -1.0941 -4.1510
8 4 8 -7.4160 3.3627
8 4 10 11.0670 0.8638
8 4 12 16.9003 3.1106
8 4 14 -15.3368 -0.0204
8 4 16 -8.6759 -3.8217
8 4 18 -0.9781 -0.6274
8 5 1 11.4419 -3.3689
8 5 3 2.5592 -6.8072
8 5 5 -47.5837 -4.1680
8 5 7 14.6487 0.2643
8 5 9 -8.7840 3.0675
8 5 11 2.0818 0.2530
8 5 13 7.9827 -0.8465
8 5 15 8.2410 -0.8088
8 5 17 6.4154 -0.3224
8 5 19 12.0553 0.8657
8 6 0 132.2360 2.4244
8 6 2 20.9435 1.3911
8 6 4 87.7007 -5.2913
8 6 6 1.9068 -3.4019
8 6 8 -17.4717 -5.2566
8 6 10 8.5511 0.7029
8 6 12 10.0993 6.0934
8 6 14 -3.0336 0.6417
8 6 16 -17.4257 -1.4282
8 6 18 -6.5111 -1.1437
8 7 1 -28.4885 -7.0585
8 7 3 -16.1372 -4.9395
8 7 5 27.0879 -5.4695
8 7 7 7.7284 2.0150
8 7 9 -0.7830 5.6968
8 7 11 -3.0277 0.2653
8 7 13 -7.4890 1.2420
8 7 15 -9.5997 0.3712
8 7 17 -7.1709 -1.3762
8 7 19 23.2709 -0.4111
8 8 0 88.6964 14.6195
8 8 4 -25.1605 -7.0474
8 8 8 14.1157 -11.5267
8 8 12 11.4184 5.9973
8 8 16 25.8482 2.1081
9 0 1 60.4751 6.2196
9 0 3 -45.4171 -22.0210
9 0 5 -84.1131 1.8177
9 0 7 49.9921 18.2230
9 0 9 -7.1786 -6.7816
9 0 11 -7.6610 3.6810
9 0 13 -3.2470 6.8764
9 0 15 10.2522 -10.0325
9 0 17 -0.3033 -4.5802
9 0 19 3.2099 4.9249
9 1 2 -91.1417 12.3322
9 1 4 47.2110 -8.6598
9 1 6 -32.6731 -2.5903
9 1 8 -18.3599 6.6048
9 1 10 2.1597 -7.3414
9 1 12 6.9256 -2.9680
9 1 14 11.0340 3.4532
9 1 16 -5.8098 0.0883
9 1 18 6.7520 -0.7183
9 2 1 -194.1600 -5.4573
9 2 5 -41.2538 -3.3656
9 2 7 35.1388 -0.5353
9 2 9 -0.7399 -0.3274
9 2 11 -7.9070 -0.8099
9 2 13 -2.6925 1.6009
9 2 15 9.4190 -1.4461
9 2 17 12.3377 -1.4783
9 2 19 -11.0406 0.7928
9 3 2 96.9038 1.8505
9 3 4 48.0716 -0.1521
9 3 6 -3.9931 1.8735
9 3 8 20.5726 6.4980
9 3 10 -14.4547 -2.1452
9 3 12 16.5457 -2.3053
9 3 14 11.5225 0.1166
9 3 16 24.3858 0.2075
9 3 18 1.6276 -0.5281
9 4 1 15.9253 -5.9651
9 4 3 -8.2420 5.8168
9 4 5 -29.0904 0.8215
9 4 7 2.9188 -2.6441
9 4 9 -12.9537 4.8438
9 4 11 12.4979 4.8852
9 4 13 -3.5544 -3.5721
9 4 15 6.1653 -0.3225
9 4 17 15.7995 1.1273
9 4 19 -4.0264 -1.5237
9 5 2 64.5752 8.0514
9 5 4 11.0179 -1.3180
9 5 6 0.1812 1.2349
9 5 8 6.7125 3.0724
9 5 10 9.5940 -4.3160
9 5 12 5.8453 0.8644
9 5 14 18.0660 -0.0315
9 5 16 13.8017 -1.0553
9 5 18 18.4900 0.4771
9 6 1 -47.1960 -1.5856
9 6 3 -13.8913 -0.1634
9 6 5 45.2807 -6.8460
9 6 7 5.2112 -5.8099
9 6 9 10.4151 2.1738
9 6 11 -9.3548 1.8156
9 6 13 -7.0207 0.2874
9 6 15 14.9459 0.4239
9 6 17 -2.4848 -1.0250
9 6 19 -4.3060 -1.1166
9 7 2 -13.6114 -3.1974
9 7 4 43.6319 -12.4882
9 7 6 0.2561 3.3678
9 7 8 8.9937 9.9306
9 7 10 0.2830 1.9363
9 7 12 10.1980 0.1610
9 7 14 -29.9821 -5.0351
9 7 16 -2.4061 -0.7216
9 7 18 20.1621 3.1979
9 8 1 -23.8820 1.6580
9 8 3 48.4222 9.1663
9 8 5 23.7472 -7.6217
9 8 7 12.9475 -11.3523
9 8 9 -5.3504 4.5760
9 8 11 -7.9727 4.2548
9 8 13 7.4568 -0.1120
9 8 15 -14.3467 2.0004
9 8 17 3.4011 -0.3237
9 8 19 -0.9723 -1.0438
9 9 2 11.2226 -21.6451
9 9 6 -48.8382 5.3710
9 9 10 -9.9891 6.8291
9 9 14 -56.3576 -8.4371
9 9 18 3.0690 2.9241
10 0 0 3.5515 4.8339
10 0 2 32.0224 5.0793
10 0 4 -30.0385 -9.3136
10 0 6 39.9151 -5.0987
10 0 8 1.0393 14.3482
10 0 10 11.1399 -0.1134
10 0 12 -6.2965 2.7050
10 0 14 2.9710 1.1867
10 0 16 -70.7744 -10.1133
10 0 18 9.1967 0.5624
10 1 1 32.9246 -3.8789
10 1 3 -1.3462 3.2752
10 1 5 21.6801 2.1063
10 1 7 2.8709 -6.2238
10 1 9 -8.3800 4.7324
10 1 11 -18.4322 -2.4356
10 1 13 3.0694 -1.3841
10 1 15 -16.5266 5.0516
10 1 17 12.3820 -1.8416
10 1 19 -3.2095 -0.4651
10 2 0 -46.4873 8.1128
10 2 2 -8.5965 2.0382
10 2 4 4.8449 1.1058
10 2 6 -19.3278 4.2238
10 2 8 -7.9777 -2.9859
10 2 10 14.9889 0.1890
10 2 12 -9.1871 -1.7317
10 2 14 41.8731 -2.4415
10 2 16 -1.7734 2.0849
10 2 18 5.1217 0.7627
10 3 1 -31.4760 -3.4271
10 3 3 -6.8865 1.1933
10 3 5 -9.3108 -2.0018
10 3 7 -24.9245 0.1658
10 3 9 0.0836 0.1407
10 3 11 6.9771 -2.7131
10 3 13 9.7190 0.2107
10 3 15 5.9385 0.0022
10 3 17 1.3084 -0.3601
10 3 19 -4.2552 0.6289
10 4 0 -78.8668 9.8467
10 4 2 79.9205 -1.0773
10 4 4 25.8128 -2.3659
10 4 6 -15.8062 -2.8302
10 4 8 -16.1414 -4.6909
10 4 10 3.4053 3.5251
10 4 12 -3.0379 2.5335
10 4 14 8.9962 -0.7986
10 4 16 0.5026 0.8593
10 4 18 13.8472 -0.7866
10 5 1 132.7503 2.0873
10 5 3 13.9860 5.0755
10 5 5 1.6653 2.1433
10 5 7 3.5669 1.0114
10 5 9 -7.0385 -3.5607
10 5 11 -7.1495 1.0080
10 5 13 -8.0421 1.7578
10 5 15 13.1985 -1.1357
10 5 17 -10.6316 0.4616
10 5 19 -1.6236 -0.0763
10 6 0 59.2406 10.9404
10 6 2 0.5508 1.5095
10 6 4 -2.9753 -2.5408
10 6 6 7.4851 -0.7261
10 6 8 -1.4262 6.2868
10 6 10 9.7713 -0.5300
10 6 12 -17.0092 -0.2885
10 6 14 -1.9438 0.6345
10 6 16 -5.9530 -3.5979
10 6 18 -1.1563 -0.7720
10 7 1 56.8295 -2.6952
10 7 3 19.0697 -11.0670
10 7 5 4.0748 -6.2026
10 7 7 -13.0561 4.6617
10 7 9 -4.7588 4.5266
10 7 11 13.3071 -0.6015
10 7 13 -13.0423 -1.6697
10 7 15 19.0537 -1.0450
10 7 17 6.2567 0.3172
10 7 19 -4.7268 0.6806
10 8 0 17.6644 4.3071
10 8 2 14.3397 10.8881
10 8 4 -24.6214 -1.7675
10 8 6 26.1993 -5.6903
10 8 8 0.3549 -0.5804
10 8 10 4.8285 1.2558
10 8 12 2.7181 1.7718
10 8 14 -10.6884 0.9448
10 8 16 -7.5503 -0.7197
10 8 18 -1.7727 -0.6219
10 9 1 14.2129 -3.7257
10 9 3 -35.1804 -4.4799
10 9 5 24.3103 -3.7468
10 9 7 28.0020 3.2674
10 9 9 -4.7571 7.1919
10 9 11 -6.3708 -3.2435
10 9 13 -5.2311 -3.3333
10 9 15 -6.5938 1.1906
10 9 17 -0.1939 0.0620
10 9 19 -11.6679 0.7807
10 10 0 -6.9355 12.8812
10 10 4 -21.6400 -6.5908
10 10 8 7.2766 -10.8927
10 10 12 16.8798 5.5931
10 10 16 -13.9253 1.9440
11 0 1 -20.4116 -20.1500
11 0 3 -90.9854 30.6377
11 0 5 -12.1072 -18.6182
11 0 7 44.7642 -11.4662
11 0 9 14.0253 24.9213
11 0 11 -9.9538 -0.7468
11 0 13 25.2211 -8.0278
11 0 15 0.3836 1.1623
11 0 17 36.0136 -2.8240
11 0 19 -15.9406 -1.0976
11 1 2 15.4098 -11.9504
11 1 4 35.4098 10.1597
11 1 6 -1.1788 0.8940
11 1 8 -8.8686 -6.6385
11 1 10 -8.6038 3.4381
11 1 12 3.1358 1.1560
11 1 14 23.7382 -1.7740
11 1 16 -5.8946 2.4454
11 1 18 -10.5966 0.5966
11 2 1 56.3890 -5.0667
11 2 3 31.0989 2.1831
11 2 5 -7.3089 0.1111
11 2 7 -14.6685 -0.3281
11 2 9 -29.5843 0.4572
11 2 11 -15.2464 -0.4793
11 2 13 9.7544 -2.8207
11 2 15 -10.8283 1.2494
11 2 17 -21.2444 2.4236
11 2 19 2.6641 1.0175
11 3 2 -125.9106 -4.1983
11 3 4 -59.0501 2.9387
11 3 6 -10.5912 -0.2656
11 3 8 1.5502 -5.2789
11 3 10 -8.8270 2.4788
11 3 12 7.4983 3.9147
11 3 14 -0.9514 -3.7478
11 3 16 -4.7584 -0.5664
11 3 18 7.0493 0.4187
11 4 1 -26.5179 -2.9910
11 4 3 16.1921 -0.4086
11 4 5 -44.5503 -1.6349
11 4 7 17.9445 1.3878
11 4 9 14.4693 -2.3515
11 4 11 2.3093 -1.1177
11 4 13 -3.8649 2.4702
11 4 15 -19.9662 -0.7596
11 4 17 12.7110 -1.2147
11 4 19 15.6282 -0.2915
11 5 2 38.0729 6.8975
11 5 4 15.7567 3.5971
11 5 6 -17.7760 1.2565
11 5 8 -19.8547 -0.4832
11 5 10 -10.0000 -2.9649
11 5 12 -18.0125 2.3504
11 5 14 10.3244 -0.2564
11 5 16 3.2059 0.9169
11 5 18 9.4060 0.0087
11 6 1 2.5062 -2.2104
11 6 3 -8.8491 -0.4579
11 6 5 30.7259 6.6090
11 6 7 0.3841 10.3656
11 6 9 -18.3480 -2.5849
11 6 11 -9.6144 -2.7714
11 6 13 2.9345 1.5851
11 6 15 4.5252 -1.8615
11 6 17 15.2849 0.6640
11 6 19 -8.6312 0.9858
11 7 2 2.8335 4.5167
11 7 4 23.2520 -7.8477
11 7 6 -23.7909 -1.5614
11 7 8 25.1738 9.8227
11 7 10 10.7306 -3.6174
11 7 12 3.5015 -4.0650
11 7 14 6.0767 3.8935
11 7 16 -11.3765 -0.5897
11 7 18 -2.7206 -1.3988
11 8 1 -39.9224 4.2223
11 8 3 -10.9105 3.2061
11 8 5 -4.4807 -4.1261
11 8 7 -2.3142 -2.9722
11 8 9 6.4428 1.3085
11 8 11 -11.1730 -0.2050
11 8 13 8.7934 -2.4601
11 8 15 2.6293 0.2682
11 8 17 7.0721 1.0938
11 8 19 -15.7762 0.1758
11 9 2 39.7881 1.5284
11 9 4 6.0077 -6.3458
11 9 6 -12.7408 2.0050
11 9 8 11.5568 9.3605
11 9 10 3.1470 -1.9637
11 9 12 21.7815 -3.0902
11 9 14 -19.6715 -1.7250
11 9 16 -1.4059 -0.8776
11 9 18 17.1679 0.8710
11 10 1 -15.8766 6.6801
11 10 3 24.3888 8.0851
11 10 5 11.2047 -6.6708
11 10 7 0.4645 -11.5493
11 10 9 -12.0970 6.6745
11 10 11 -7.6609 4.7164
11 10 13 13.4094 -3.4254
11 10 15 -14.0824 2.2865
11 10 17 -2.2717 0.4274
11 10 19 5.4833 -2.0043
11 11 2 -87.2249 -23.4796
11 11 6 14.8344 10.5140
11 11 10 -0.0501 4.0320
11 11 14 -125.5642 -10.0224
11 11 18 23.9637 5.1628
12 0 0 47.6099 5.7762
12 0 2 18.6734 -3.2897
12 0 4 13.8804 -7.9572
12 0 6 41.3503 4.6929
12 0 8 -11.0022 -2.3180
12 0 10 -1.7423 8.6546
12 0 12 -1.1673 2.8048
12 0 14 -18.3451 -7.3899
12 0 16 24.2507 -1.7663
12 0 18 -0.6467 -0.7088
12 1 1 -0.9884 4.5127
12 1 3 -14.0040 -1.4476
12 1 5 15.7346 -3.6895
12 1 7 16.1791 2.8704
12 1 9 -2.9597 -3.5339
12 1 11 8.5594 -0.1419
12 1 13 0.9302 2.5391
12 1 15 -4.5433 -0.8535
12 1 17 3.0464 0.7445
12 1 19 -1.2588 0.7933
12 2 0 -98.0450 8.0974
12 2 2 -62.9629 -0.3999
12 2 4 -14.2281 -0.3837
12 2 6 4.3606 0.6069
12 2 8 0.8955 0.6282
12 2 10 24.7155 -4.5066
12 2 12 -8.1147 -2.7461
12 2 14 -13.6679 2.5410
12 2 16 24.3529 2.0945
12 2 18 -7.1544 1.4556
12 3 1 17.8120 -4.2161
12 3 3 -0.7760 -0.1487
12 3 5 32.1105 -1.2613
12 3 7 -9.9697 -1.0942
12 3 9 -13.8523 3.1194
12 3 11 3.9927 1.3810
12 3 13 -24.5873 0.1894
12 3 15 -12.6153 0.4396
12 3 17 18.8519 -1.5227
12 3 19 -0.7985 -0.7480
12 4 0 100.5342 11.1822
12 4 2 -0.3320 5.0497
12 4 4 17.4428 1.7231
12 4 6 -32.1130 0.9629
12 4 8 -28.8894 -1.4956
12 4 10 10.7396 -1.6975
12 4 12 9.5922 -2.1043
12 4 14 -10.4367 1.3672
12 4 16 26.1567 1.4444
12 4 18 -15.5085 -1.0880
12 5 1 -14.1237 -10.4751
12 5 3 -29.4278 3.7237
12 5 5 -11.6413 2.3714
12 5 7 3.6758 -6.5335
12 5 9 -2.7204 -1.9820
12 5 11 21.4195 0.0289
12 5 13 0.5250 0.1760
12 5 15 -3.5301 1.7255
12 5 17 -13.2491 -0.2536
12 5 19 -3.6664 -0.7089
12 6 0 5.6368 7.1183
12 6 2 -8.9045 -1.9805
12 6 4 -28.1952 -1.1104
12 6 6 5.6976 7.8660
12 6 8 3.0575 -0.7078
12 6 10 4.2720 -0.4189
12 6 12 3.7378 0.0737
12 6 14 3.1455 -1.6864
12 6 16 -20.6729 0.8750
12 6 18 -12.2683 0.7018
12 7 1 37.7124 3.2697
12 7 3 -19.3916 4.6691
12 7 5 -8.8756 -0.2258
12 7 7 -23.2157 -0.2316
12 7 9 15.1111 -4.1460
12 7 11 8.9063 0.5849
12 7 13 -16.2449 2.6455
12 7 15 -2.0079 -0.6521
12 7 17 -11.8106 -0.4953
12 7 19 -3.7110 -0.3723
12 8 0 14.1128 10.5450
12 8 2 -26.4869 -1.9728
12 8 4 15.5423 -1.4647
12 8 6 2.5084 7.1743
12 8 8 -4.3249 5.3963
12 8 10 -1.9552 -4.2471
12 8 12 -22.4733 -2.3224
12 8 14 8.5334 0.0979
12 8 16 16.1721 -2.3681
12 8 18 0.7067 0.4507
12 9 1 2.7719 0.8571
12 9 3 -6.6395 -5.1612
12 9 5 21.2374 -4.2852
12 9 7 30.1041 6.7512
12 9 9 -5.9960 1.5455
12 9 11 -24.9034 -2.1325
12 9 13 -13.7246 0.3489
12 9 15 -8.8310 -0.2724
12 9 17 -19.2829 -0.3307
12 9 19 12.5229 0.9379
12 10 0 31.2518 5.6954
12 10 2 6.6323 7.0064
12 10 4 16.6192 3.1995
12 10 6 -11.9136 -4.6273
12 10 8 22.4826 5.1285
12 10 10 -7.2768 0.9881
12 10 12 -10.4885 -1.4299
12 10 14 7.5873 1.1637
12 10 16 7.2510 -1.4256
12 10 18 5.2114 -0.1010
12 11 1 2.0332 -1.3046
12 11 3 -11.4240 -0.9102
12 11 5 -14.2378 -0.7545
12 11 7 8.5750 1.3414
12 11 9 -21.3181 3.6014
12 11 11 4.4698 -3.2020
12 11 13 -25.4389 -2.4629
12 11 15 3.5292 0.9263
12 11 17 -0.9482 0.0340
12 11 19 -11.5724 1.9256
12 12 0 12.9826 3.8038
12 12 4 -19.4697 -1.4997
12 12 8 -7.0417 -6.0986
12 12 12 15.5975 1.8207
12 12 16 -9.7392 2.3685
13 0 1 122.2856 16.4111
13 0 3 -20.5563 -37.5340
13 0 5 -26.4242 10.0365
13 0 7 11.3172 15.2748
13 0 9 -20.3765 -14.7343
13 0 11 -14.0196 12.0491
13 0 13 20.1475 5.2270
13 0 15 -13.8130 -11.3554
13 0 17 22.2585 -1.3495
13 0 19 18.1867 3.1303
13 1 2 -55.5322 14.8385
13 1 4 2.1267 -15.5412
13 1 6 -2.1121 -0.4880
13 1 8 -19.1175 8.0389
13 1 10 3.2261 -7.2400
13 1 12 0.4768 2.5656
13 1 14 12.6156 1.8046
13 1 16 4.7801 -1.1703
13 1 18 7.4579 -0.1733
13 2 1 37.3659 -9.2345
13 2 3 12.0739 2.4897
13 2 5 19.1440 0.9973
13 2 7 11.1884 4.0563
13 2 9 18.8689 -3.1293
13 2 11 1.2188 -8.2207
13 2 13 -3.8740 1.2127
13 2 15 -11.1865 1.9302
13 2 17 -5.6486 1.9030
13 2 19 -2.2133 0.7580
13 3 2 -27.7899 3.4097
13 3 4 34.6014 -6.6805
13 3 6 6.6198 -1.8995
13 3 8 -4.2032 6.7603
13 3 10 -12.6810 0.1748
13 3 12 0.9884 -0.8180
13 3 14 -16.6728 2.3045
13 3 16 15.9918 -0.7716
13 3 18 0.9839 -1.7837
13 4 1 -13.2510 -3.5041
13 4 3 8.9534 13.8079
13 4 5 -4.7965 -4.3821
13 4 7 -15.0422 -4.9316
13 4 9 -6.9545 3.2563
13 4 11 -3.6266 -2.7181
13 4 13 7.1652 0.7473
13 4 15 -17.3240 3.8435
13 4 17 -4.3412 0.4905
13 4 19 -1.1176 -0.7136
13 5 2 -26.9608 -1.6471
13 5 4 -15.8382 6.3895
13 5 6 -28.3869 -1.8868
13 5 8 6.6810 -2.5443
13 5 10 -6.2145 0.7120
13 5 12 -5.2703 -0.9356
13 5 14 -0.1227 0.0618
13 5 16 -17.2581 0.2118
13 5 18 -3.7224 -0.9015
13 6 1 -28.6182 -11.8908
13 6 3 3.3762 2.3429
13 6 5 -20.4651 3.0530
13 6 7 2.5062 1.1010
13 6 9 4.6614 2.5186
13 6 11 -12.8796 -0.4131
13 6 13 7.1118 -4.8482
13 6 15 4.9042 0.2489
13 6 17 -10.6286 1.3028
13 6 19 8.7204 -0.5548
13 7 2 -13.6569 3.2051
13 7 4 -6.3299 9.6968
13 7 6 -28.4565 2.3876
13 7 8 8.2377 -8.0673
13 7 10 -2.7444 -2.8367
13 7 12 -14.3985 4.9367
13 7 14 22.8584 -1.3218
13 7 16 -10.0568 0.1992
13 7 18 -3.6594 0.6042
13 8 1 6.3764 1.6093
13 8 3 -0.5533 -6.2662
13 8 5 6.7249 6.2144
13 8 7 16.9572 11.1611
13 8 9 1.2069 -4.7520
13 8 11 -21.6949 -4.3941
13 8 13 5.0480 2.1564
13 8 15 10.9143 -1.5974
13 8 17 1.5943 -0.0194
13 8 19 4.9399 0.5463
13 9 2 -7.3580 -0.8891
13 9 4 10.0173 -3.6051
13 9 6 -0.5465 -1.4860
13 9 8 8.7294 1.7990
13 9 10 6.2315 0.8271
13 9 12 4.2554 0.0898
13 9 14 88.1477 1.0388
13 9 16 2.8311 -0.2542
13 9 18 -3.1269 -1.0258
13 10 1 -9.0118 5.1304
13 10 3 -8.9905 -2.6446
13 10 5 -6.4240 2.2090
13 10 7 9.1081 5.4353
13 10 9 13.5007 -4.4477
13 10 11 -26.5530 -2.7117
13 10 13 -34.0319 1.9312
13 10 15 0.5022 -1.2807
13 10 17 -5.5938 -0.3640
13 10 19 -13.3112 2.3330
13 11 2 8.8972 4.3452
13 11 4 24.6597 -1.5371
13 11 6 20.4229 -1.5164
13 11 8 10.1924 9.5518
13 11 10 2.0697 -2.5667
13 11 12 11.3912 -6.6065
13 11 14 41.8046 2.0170
13 11 16 -4.5868 -0.0962
13 11 18 20.7450 -2.1739
13 12 1 -4.8081 7.8080
13 12 3 15.7094 3.5764
13 12 5 10.7345 -4.2668
13 12 7 -25.6079 -7.8973
13 12 9 -2.3012 3.7102
13 12 11 -1.6250 6.0111
13 12 13 -20.5515 -3.2848
13 12 15 3.7798 0.8090
13 12 17 -1.7046 1.5153
13 13 2 -10.7484 -16.0069
13 13 6 -21.2776 10.5066
13 13 10 35.1792 0.9623
13 13 14 38.5275 -8.7022
13 13 18 45.5867 5.3356
14 0 0 61.9665 0.4785
14 0 2 41.9264 1.7934
14 0 4 -26.4110 -1.1176
14 0 6 9.8753 -5.8218
14 0 8 14.1280 3.9456
14 0 10 15.8240 8.5742
14 0 12 -11.9135 -1.1507
14 0 14 -18.4074 -3.3028
14 0 16 32.5950 -0.2487
14 0 18 -26.7313 -1.2813
14 1 1 25.1383 -5.0530
14 1 3 -21.3549 0.5815
14 1 5 23.8468 -0.1838
14 1 7 -14.9287 0.6816
14 1 9 -14.3613 1.7614
14 1 11 1.4889 1.4433
14 1 13 12.2829 -0.5842
14 1 15 -20.8931 -0.7975
14 1 17 -3.0621 0.4656
14 1 19 0.2007 -0.4710
14 2 0 -76.2060 7.8703
14 2 2 -45.1077 -1.0496
14 2 4 25.1418 0.8341
14 2 6 15.7055 3.4737
14 2 8 -3.1713 -1.4431
14 2 10 5.6590 -3.6887
14 2 12 7.9815 -2.8952
14 2 14 -52.9776 0.6845
14 2 16 30.9000 2.9949
14 2 18 -16.2665 0.4281
14 3 1 -10.5296 -4.9179
14 3 3 -14.3727 -2.1736
14 3 5 5.7648 1.9346
14 3 7 7.8401 -3.3843
14 3 9 -2.1613 -1.8632
14 3 11 8.0852 1.8283
14 3 13 2.5622 -1.1361
14 3 15 -1.8177 -0.6997
14 3 17 -23.9826 0.6960
14 3 19 -2.4317 0.2792
14 4 0 -1.2735 6.3756
14 4 2 7.8038 -1.6177
14 4 4 15.7754 -0.7237
14 4 6 1.8183 1.7410
14 4 8 -2.9967 -4.1672
14 4 10 16.9461 -3.4966
14 4 12 6.1134 1.3224
14 4 14 -26.7876 3.2899
14 4 16 11.1837 1.2536
14 4 18 -3.3432 0.0755
14 5 1 23.6546 -5.5310
14 5 3 4.7207 2.5556
14 5 5 -26.0878 -0.2314
14 5 7 8.2507 -1.2353
14 5 9 -0.2548 2.0093
14 5 11 5.2326 -0.4410
14 5 13 -10.4470 -0.0818
14 5 15 -15.6588 0.4202
14 5 17 10.3510 -1.2185
14 5 19 3.7907 -0.1931
14 6 0 -14.0493 5.1365
14 6 2 -8.8101 0.0824
14 6 4 -5.2687 1.1766
14 6 6 -3.6768 3.9368
14 6 8 -13.5053 -0.5364
14 6 10 -9.1752 -0.8213
14 6 12 9.9111 -1.4200
14 6 14 19.6682 -0.6108
14 6 16 -6.3808 0.2584
14 6 18 0.0975 -0.6431
14 7 1 -25.2441 -4.9302
14 7 3 -11.6676 5.4069
14 7 5 2.5248 1.3808
14 7 7 22.0999 -3.8192
14 7 9 1.7676 -2.7023
14 7 11 0.5946 -0.8671
14 7 13 -7.6441 1.7842
14 7 15 -5.4565 2.1995
14 7 17 10.4425 -0.9081
14 7 19 -5.8939 -0.4315
14 8 0 30.3298 8.7966
14 8 2 12.0582 -3.8337
14 8 4 -16.0213 -0.5804
14 8 6 -14.2352 3.8375
14 8 8 -33.8742 2.3743
14 8 10 18.4807 1.1123
14 8 12 20.7431 -0.4701
14 8 14 -1.8923 -0.7526
14 8 16 -11.8223 -0.9611
14 8 18 -0.6696 0.2733
14 9 1 32.1884 4.7590
14 9 3 15.6613 1.9376
14 9 5 -11.3624 1.4986
14 9 7 -16.8537 -2.3638
14 9 9 -1.6592 -4.0361
14 9 11 -2.6467 2.7047
14 9 13 -3.7577 0.8393
14 9 15 0.6950 -1.7680
14 9 17 9.1709 0.3337
14 9 19 -3.4090 -0.0307
14 10 0 27.0602 3.1890
14 10 2 -10.1338 -5.2897
14 10 4 10.0290 -1.1399
14 10 6 17.6860 7.0562
14 10 8 -1.2748 2.6492
14 10 10 -4.7570 -4.5440
14 10 12 10.8455 -1.2189
14 10 14 12.3536 0.4657
14 10 16 20.9117 -1.4416
14 10 18 5.9581 0.9965
14 11 1 13.1920 2.0246
14 11 3 6.4234 -0.3233
14 11 5 -1.9937 -0.5243
14 11 7 18.6511 2.7298
14 11 9 -8.6396 1.2574
14 11 11 2.2150 -0.2160
14 11 13 9.9268 0.4227
14 11 15 17.2583 -0.6326
14 11 17 -5.4304 -0.2133
14 12 0 17.9608 4.7790
14 12 2 11.4420 1.5659
14 12 4 14.2390 3.3091
14 12 6 -0.9733 -1.0830
14 12 8 -0.1968 3.4824
14 12 10 9.5779 -0.5352
14 12 12 -5.3841 0.2915
14 12 14 -11.8364 1.1514
14 12 16 3.8864 -1.9501
14 12 18 -5.1063 -0.1630
14 13 1 -7.0843 -2.7509
14 13 3 -3.3534 -3.2017
14 13 5 4.4307 -2.2304
14 13 7 -2.0481 6.7113
14 13 9 -13.9097 4.9911
14 13 11 4.0520 -2.7377
14 13 13 1.0274 -3.3127
14 13 15 0.6967 -1.5493
14 13 17 -6.7894 0.0446
14 14 0 -49.7969 -4.8843
14 14 4 36.6352 1.8992
14 14 8 -5.1409 1.1341
14 14 12 17.8998 -1.2199
14 14 16 -12.5437 0.5814
15 0 1 -48.4213 -21.9260
15 0 3 34.6065 31.8109
15 0 5 0.7963 -16.0840
15 0 7 24.2792 -10.9917
15 0 9 -4.7015 24.1836
15 0 11 -21.6616 -4.9834
15 0 13 36.7989 -6.9692
15 0 15 -19.6414 2.4880
15 0 17 -8.1196 -1.8903
15 0 19 -2.1551 -0.9530
15 1 2 21.2307 -12.8340
15 1 4 16.2383 10.7169
15 1 6 51.3254 -0.1397
15 1 8 8.5361 -5.0350
15 1 10 -17.4110 8.2019
15 1 12 -2.3823 -2.0866
15 1 14 -20.7253 -3.0323
15 1 16 -12.0505 1.4370
15 1 18 -3.5971 -0.3245
15 2 1 19.9912 0.0496
15 2 3 19.8273 3.0122
15 2 5 -5.0693 0.4542
15 2 7 -24.6351 -1.9151
15 2 9 -11.3170 -0.9897
15 2 11 -11.1798 -0.4934
15 2 13 22.7389 -0.1613
15 2 15 30.9448 2.7115
15 2 17 -6.9077 1.7969
15 2 19 12.9842 0.0262
15 3 2 -18.0824 -6.8295
15 3 4 -4.0717 7.5853
15 3 6 1.2141 1.8076
15 3 8 -5.9274 -6.3679
15 3 10 2.3851 2.1447
15 3 12 6.5921 1.5849
15 3 14 -3.2034 -4.0437
15 3 16 -13.5163 1.2544
15 3 18 -8.2172 1.3173
15 4 1 -48.7746 -5.7094
15 4 3 51.3211 -9.0848
15 4 5 35.0388 3.7249
15 4 7 -6.1259 2.0115
15 4 9 5.4520 -7.0676
15 4 11 -12.7985 -0.1555
15 4 13 18.0754 2.9218
15 4 15 3.4053 -0.1914
15 4 17 0.9454 0.1881
15 4 19 2.7231 -0.3140
15 5 2 16.8252 4.2729
15 5 4 -3.8885 -2.3298
15 5 6 30.6834 -0.3603
15 5 8 13.0910 2.2580
15 5 10 -3.6887 -1.4590
15 5 12 -15.8618 0.3364
15 5 14 19.4749 0.7987
15 5 16 15.4784 -0.7042
15 5 18 5.1390 -0.0465
15 6 1 55.0802 2.1614
15 6 3 -14.1453 3.6811
15 6 5 -24.3065 -2.7635
15 6 7 -4.7261 -0.5588
15 6 9 7.4172 -0.0922
15 6 11 -6.1264 -0.4915
15 6 13 4.6929 3.1240
15 6 15 0.2612 -0.6496
15 6 17 -15.7793 -1.1988
15 6 19 -11.7939 -0.2109
15 7 2 -15.0870 3.5028
15 7 4 8.8776 -0.6107
15 7 6 -12.2263 -2.1287
15 7 8 -14.2362 2.5974
15 7 10 21.1098 -1.6461
15 7 12 -3.3863 -1.8194
15 7 14 2.2654 1.3657
15 7 16 5.1462 0.5317
15 7 18 4.1705 -0.7513
15 8 1 12.9522 -9.3077
15 8 3 -13.9107 1.3015
15 8 5 -16.6980 0.4889
15 8 7 24.9167 -2.0499
15 8 9 8.9059 2.3682
15 8 11 -5.3966 1.4957
15 8 13 -6.1754 -3.0377
15 8 15 -33.4841 -0.5059
15 8 17 5.9905 1.1049
15 9 2 -15.8952 1.7365
15 9 4 8.1691 5.3146
15 9 6 14.1531 1.4061
15 9 8 -4.1983 -2.4876
15 9 10 -0.3537 -1.3991
15 9 12 -12.1630 0.7094
15 9 14 5.5353 -0.8923
15 9 16 -3.3531 -0.4132
15 9 18 -6.4221 -0.1745
15 10 1 24.4706 0.1705
15 10 3 -10.4821 -3.0997
15 10 5 -33.4172 0.7259
15 10 7 7.1323 3.8460
15 10 9 4.9030 -0.7278
15 10 11 6.8654 -1.1332
15 10 13 -8.5176 -0.1982
15 10 15 -28.1492 -0.2686
15 10 17 -1.4456 0.1494
15 11 2 0.7881 -3.1232
15 11 4 17.1956 2.1343
15 11 6 -23.1425 -2.4630
15 11 8 -24.3855 -3.6548
15 11 10 -3.5841 3.4102
15 11 12 -5.7260 3.5775
15 11 14 20.0536 -1.1717
15 11 16 -1.4203 -0.4486
15 11 18 -11.1638 0.9591
15 12 1 -35.9247 3.2247
15 12 3 19.7306 -3.2153
15 12 5 16.8304 4.0362
15 12 7 -2.6805 5.3396
15 12 9 -4.8576 -4.9290
15 12 11 -1.4156 -3.1727
15 12 13 3.7393 3.2344
15 12 15 9.0397 -0.2446
15 12 17 9.6643 -0.6411
15 13 2 5.1002 -0.9690
15 13 4 20.5309 0.2002
15 13 6 14.4886 -2.2378
15 13 8 -3.5949 7.4438
15 13 10 2.5622 1.0175
15 13 12 -2.4387 -5.8303
15 13 14 5.4824 0.0813
15 13 16 -1.2681 0.6867
15 13 18 5.8276 -1.0834
15 14 1 2.1138 5.3694
15 14 3 2.7135 -3.0247
15 14 5 -11.9991 -0.5062
15 14 7 -6.8379 -0.4755
15 14 9 -1.0368 -1.9433
15 14 11 6.0550 3.3006
15 14 13 -3.3854 0.6575
15 14 15 1.6244 -1.0356
15 14 17 0.9396 0.2648
15 15 2 9.3595 -6.6815
15 15 6 -12.5532 6.0393
15 15 10 17.4988 -1.1907
15 15 14 -2.1794 -5.5691
15 15 18 -3.9807 3.9017
16 0 0 74.8340 3.8953
16 0 2 -28.5278 -1.7530
16 0 4 -32.8979 -7.7678
16 0 6 -0.0264 3.7157
16 0 8 5.5555 9.2099
16 0 10 -1.4523 -5.1323
16 0 12 -6.9712 3.1260
16 0 14 19.3268 0.4946
16 0 16 17.8773 -8.2088
16 0 18 4.1329 1.1350
16 1 1 16.6295 1.5232
16 1 3 19.8617 1.6434
16 1 5 1.4564 -0.7927
16 1 7 -0.3845 -2.3132
16 1 9 2.9377 4.5918
16 1 11 2.7571 -2.6627
16 1 13 10.3926 -2.4280
16 1 15 -0.3221 2.4725
16 1 17 5.5772 -1.6390
16 1 19 2.4518 -0.9202
16 2 0 2.3816 -1.8674
16 2 2 1.6566 -0.2309
16 2 4 8.8476 0.8242
16 2 6 6.0041 2.5820
16 2 8 3.8733 -4.1625
16 2 10 -3.7960 -2.2850
16 2 12 5.5234 1.1619
16 2 14 -1.7008 1.1813
16 2 16 -28.4054 2.7044
16 2 18 -10.5127 0.3868
16 3 1 -13.6281 -3.7748
16 3 3 -18.2842 -1.7457
16 3 5 11.1847 -2.2454
16 3 7 17.6391 4.7924
16 3 9 -3.7003 2.7098
16 3 11 7.0389 -3.2251
16 3 13 -5.3740 -0.5499
16 3 15 -7.3824 0.0290
16 3 17 5.0358 0.3029
16 3 19 6.8855 0.8835
16 4 0 5.6365 5.0674
16 4 2 -23.9530 -1.7761
16 4 4 7.5138 1.9671
16 4 6 -11.7554 -3.1467
16 4 8 -5.9399 -4.3880
16 4 10 4.6535 2.6921
16 4 12 -0.0626 0.0156
16 4 14 14.7840 -0.4861
16 4 16 -1.8540 1.9771
16 4 18 3.4210 -1.5198
16 5 1 -7.6277 -1.3496
16 5 3 24.9999 -0.2213
16 5 5 -6.2575 1.5805
16 5 7 -3.6652 -2.1193
16 5 9 -2.7339 -2.6844
16 5 11 5.6171 0.1877
16 5 13 0.6931 -0.1283
16 5 15 5.1033 -0.2839
16 5 17 -4.9741 0.9544
16 5 19 -5.0791 0.0853
16 6 0 -42.1323 4.8630
16 6 2 0.3120 1.1702
16 6 4 8.0999 0.3740
16 6 6 18.3237 -4.9160
16 6 8 -7.6000 0.2077
16 6 10 11.7170 2.5820
16 6 12 7.5884 1.0531
16 6 14 -0.9602 1.2090
16 6 16 -7.2202 -1.3429
16 6 18 2.6946 -0.5889
16 7 1 18.7613 -3.7625
16 7 3 -3.3040 1.7262
16 7 5 -12.3190 1.5331
16 7 7 -2.7772 -2.4202
16 7 9 12.4276 0.3746
16 7 11 0.4521 0.8008
16 7 13 2.3702 -0.8577
16 7 15 -13.8291 0.3327
16 7 17 6.5163 0.3649
16 8 0 31.8502 -1.7420
16 8 2 -10.3811 -3.3972
16 8 4 -23.7959 -3.1968
16 8 6 -6.1818 1.7229
16 8 8 15.6605 -1.9198
16 8 10 5.0556 -1.2253
16 8 12 5.7582 1.5182
16 8 14 -10.6926 -0.5163
16 8 16 5.4313 -0.9896
16 8 18 -5.2128 1.1377
16 9 1 15.5079 1.7564
16 9 3 17.2387 1.5073
16 9 5 -11.9590 0.0130
16 9 7 5.7862 -1.0297
16 9 9 -3.7798 0.5059
16 9 11 -4.7747 -0.1063
16 9 13 21.7515 0.7674
16 9 15 -18.8743 0.3972
16 9 17 -4.6013 -0.3652
16 10 0 -18.5744 11.1460
16 10 2 13.0889 -3.0152
16 10 4 1.0945 -1.0824
16 10 6 -4.8066 1.6154
16 10 8 -9.5929 1.1936
16 10 10 -11.4553 1.6678
16 10 12 5.4795 1.2326
16 10 14 20.8343 -0.1596
16 10 16 -1.2488 -1.9806
16 10 18 -1.8283 -0.2818
16 11 1 -10.8452 5.5590
16 11 3 -22.3792 -1.2747
16 11 5 15.2140 -1.8644
16 11 7 -10.4441 0.4921
16 11 9 -6.6776 -1.6976
16 11 11 -3.2595 0.9787
16 11 13 1.8083 -0.1287
16 11 15 -32.4654 -1.4309
16 11 17 15.4028 0.4324
16 12 0 -10.3631 -4.8035
16 12 2 -2.3886 -2.6575
16 12 4 -6.1326 2.4326
16 12 6 -2.0404 0.7538
16 12 8 -8.7102 0.7083
16 12 10 12.0791 -2.6862
16 12 12 1.7044 -2.2983
16 12 14 3.0740 2.0381
16 12 16 15.3871 0.7160
16 12 18 -1.1410 0.2565
16 13 1 21.9903 -0.5242
16 13 3 18.7074 1.0762
16 13 5 13.9115 1.7995
16 13 7 -21.6568 -1.3535
16 13 9 3.2913 1.7217
16 13 11 -3.0333 0.8894
16 13 13 -0.6210 -1.0271
16 13 15 6.2070 0.9856
16 13 17 6.0828 0.5856
16 14 0 -1.1564 3.4501
16 14 2 -4.6294 -0.5118
16 14 4 24.7263 1.4265
16 14 6 3.2719 0.5890
16 14 8 1.3666 1.7898
16 14 10 -4.9409 -0.0343
16 14 12 -20.4733 0.7065
16 14 14 9.9260 -0.2678
16 14 16 -0.5591 -1.4292
16 14 18 4.4705 -0.2375
16 15 1 13.7683 -1.8083
16 15 3 -4.1933 -4.0959
16 15 5 -12.0203 -0.7177
16 15 7 10.1471 6.7746
16 15 9 -8.3156 4.9937
16 15 11 -13.2389 -1.7185
16 15 13 -8.0058 -3.9392
16 15 15 -17.0686 -1.9064
16 15 17 -5.5971 0.8894
16 16 0 17.8236 -6.5305
16 16 4 -1.4936 1.9194
16 16 8 12.5594 5.2505
16 16 12 -12.8686 -2.2903
16 16 16 -8.4697 -0.8962
17 0 1 13.9609 13.1714
17 0 3 16.2843 -27.3904
17 0 5 3.9038 12.7191
17 0 7 -5.2198 14.3245
17 0 9 -17.3720 -10.7970
17 0 11 -10.5281 5.6367
17 0 13 -10.5812 3.9646
17 0 15 -1.0632 -7.0489
17 0 17 3.0715 -1.5552
17 1 2 -13.4470 8.4144
17 1 4 -5.1300 -5.3871
17 1 6 -2.0566 -0.2151
17 1 8 -11.8998 4.1492
17 1 10 8.7084 -3.7283
17 1 12 16.1079 0.1891
17 1 14 10.7142 0.8023
17 1 16 0.3013 -0.4894
17 1 18 -3.6865 -1.0943
17 2 1 -89.0861 -2.0202
17 2 3 -4.0686 -1.1155
17 2 5 -7.8111 1.8197
17 2 7 0.4125 0.4634
17 2 9 4.1296 -2.1553
17 2 11 -6.3890 -1.5491
17 2 13 -11.6330 1.9126
17 2 15 4.5626 0.3840
17 2 17 -1.1022 0.2275
17 3 2 17.9326 6.4774
17 3 4 12.3393 -8.3375
17 3 6 21.9462 0.3603
17 3 8 -0.1068 8.2594
17 3 10 -8.9974 -3.5437
17 3 12 2.2020 -2.8810
17 3 14 6.0115 2.3233
17 3 16 6.4203 -0.3758
17 3 18 -17.3718 0.3315
17 4 1 31.0765 0.8193
17 4 3 21.0745 8.2741
17 4 5 -4.4555 -5.1788
17 4 7 -6.9813 -6.9912
17 4 9 -3.3669 3.1777
17 4 11 5.0470 1.0336
17 4 13 -2.5795 0.0142
17 4 15 -7.2095 1.8179
17 4 17 0.0506 0.2610
17 5 2 -3.5054 -3.9922
17 5 4 0.5632 2.4828
17 5 6 -2.2365 1.3545
17 5 8 13.4213 -1.6809
17 5 10 14.8410 0.7965
17 5 12 1.3817 -0.1596
17 5 14 0.3036 -1.9468
17 5 16 12.1190 0.8324
17 5 18 -9.3285 1.3922
17 6 1 -13.3684 -4.1230
17 6 3 -4.1167 1.7587
17 6 5 -1.0348 -4.2677
17 6 7 10.7760 -5.1243
17 6 9 -4.0833 3.3047
17 6 11 2.8172 3.4230
17 6 13 -5.9484 -0.8350
17 6 15 -8.3313 -1.2483
17 6 17 2.7296 -1.0350
17 7 2 18.4904 -1.4531
17 7 4 -11.7701 5.3339
17 7 6 -4.0687 -0.8107
17 7 8 11.3164 -2.6003
17 7 10 2.0006 0.4584
17 7 12 -11.9865 0.8846
17 7 14 -0.4563 -0.6360
17 7 16 4.1932 0.5911
17 7 18 -11.5168 -0.3179
17 8 1 7.3639 -0.2697
17 8 3 -23.9084 -3.6389
17 8 5 0.0682 -2.1722
17 8 7 -2.2776 -0.1857
17 8 9 9.4366 -1.4403
17 8 11 4.6802 1.3816
17 8 13 -3.7983 1.8807
17 8 15 30.4483 -1.4233
17 8 17 20.4174 -0.3146
17 9 2 -0.3625 0.0825
17 9 4 -11.3713 -4.0023
17 9 6 4.0258 -1.6295
17 9 8 -2.6348 2.7452
17 9 10 -0.2227 -0.5096
17 9 12 3.5699 0.2447
17 9 14 -3.8220 -0.3112
17 9 16 4.7038 -0.0589
17 9 18 5.4991 1.0363
17 10 1 -14.1392 -0.1254
17 10 3 -10.0432 -1.2685
17 10 5 -2.5510 1.9595
17 10 7 5.0661 -0.8491
17 10 9 13.4076 -0.8275
17 10 11 -5.0281 0.7609
17 10 13 3.1723 -0.5617
17 10 15 25.1454 0.1910
17 10 17 9.7898 1.2428
17 11 2 -11.5217 1.0408
17 11 4 6.6191 -0.8501
17 11 6 4.9090 -0.1583
17 11 8 -12.3248 2.4875
17 11 10 -14.8617 -0.7105
17 11 12 -5.8877 -1.4571
17 11 14 -19.0541 -0.7430
17 11 16 -4.3086 0.1836
17 11 18 -3.5299 -0.1911
17 12 1 5.8206 1.5129
17 12 3 -10.0158 2.8601
17 12 5 10.1181 -1.4783
17 12 7 -1.1209 -0.9689
17 12 9 1.7115 -0.4716
17 12 11 -15.4860 -1.5814
17 12 13 -8.0163 0.7896
17 12 15 5.0617 0.5284
17 12 17 4.1031 0.0931
17 13 2 -2.5038 -0.9041
17 13 4 4.0994 3.4243
17 13 6 -5.4632 -2.9712
17 13 8 -10.0018 -2.4492
17 13 10 -1.5831 -0.3993
17 13 12 11.6200 1.2107
17 13 14 -1.0180 2.0150
17 13 16 -9.5335 0.7696
17 13 18 20.1300 0.2979
17 14 1 -20.8190 1.6841
17 14 3 -3.0686 -0.8836
17 14 5 18.5588 1.0104
17 14 7 0.1822 2.0750
17 14 9 0.6369 0.1615
17 14 11 7.8867 -1.1847
17 14 13 3.5897 0.8249
17 14 15 -7.1922 -0.1312
17 14 17 -1.0039 -0.2502
17 15 2 16.9782 -0.2571
17 15 4 0.1594 3.9460
17 15 6 -11.9785 -3.3328
17 15 8 11.8555 1.9557
17 15 10 6.4513 0.4141
17 15 12 -3.7394 -2.1831
17 15 14 8.5621 1.4669
17 15 16 -7.3470 0.6910
17 16 1 -3.0638 -0.2715
17 16 3 19.2813 -5.3487
17 16 5 -2.9496 4.0389
17 16 7 -1.9748 4.7910
17 16 9 13.5081 -1.6857
17 16 11 2.6580 -0.2888
17 16 13 -1.9365 -0.2286
17 16 15 -7.9805 -1.6272
17 16 17 -2.0205 0.2178
17 17 2 -9.0023 -0.5168
17 17 6 2.5895 1.7889
17 17 10 -2.9121 -1.5907
17 17 14 -6.2987 -1.7670
18 0 0 30.9118 -5.4837
18 0 2 1.0210 -2.5548
18 0 4 -44.1861 7.3154
18 0 6 2.7704 -1.9083
18 0 8 7.5381 -4.2562
18 0 10 -12.9113 12.6204
18 0 12 -7.6833 -2.9161
18 0 14 27.8823 -6.1497
18 0 16 -29.5203 5.8974
18 1 1 -12.6722 -0.4260
18 1 3 -33.5505 -3.0031
18 1 5 4.8019 3.9028
18 1 7 -0.2804 3.1282
18 1 9 2.1308 -7.4272
18 1 11 -3.4079 3.5602
18 1 13 8.2897 1.8100
18 1 15 2.2500 -4.8706
18 1 17 5.4576 3.7076
18 2 0 30.1651 1.2287
18 2 2 3.3018 -1.5567
18 2 4 -6.5216 1.7579
18 2 6 -5.5944 -3.9388
18 2 8 11.0937 2.7830
18 2 10 14.3403 -0.6559
18 2 12 4.3043 -1.2822
18 2 14 4.3175 0.5194
18 2 16 -12.7229 -1.3838
18 2 18 14.8501 -0.1990
18 3 1 -16.3934 1.8073
18 3 3 7.4025 -1.6785
18 3 5 12.8095 2.4818
18 3 7 -0.8761 -1.5588
18 3 9 -10.0620 -0.2902
18 3 11 -1.1184 0.6596
18 3 13 4.8528 -1.5164
18 3 15 6.0630 -0.9298
18 3 17 10.8414 1.0206
18 4 0 17.0353 -2.2183
18 4 2 -2.9978 1.9571
18 4 4 11.1609 -0.1611
18 4 6 3.9392 -1.8197
18 4 8 -11.9271 0.5335
18 4 10 8.5424 -2.3286
18 4 12 -4.8709 2.2715
18 4 14 1.4745 2.0893
18 4 16 6.8414 -0.3772
18 4 18 -8.1281 0.4322
18 5 1 12.9299 -2.4167
18 5 3 -0.0646 -2.9773
18 5 5 -8.8537 -0.0152
18 5 7 -5.1691 0.4731
18 5 9 9.9342 3.5797
18 5 11 -17.9906 -1.0932
18 5 13 -17.6201 -0.8970
18 5 15 6.8021 1.3112
18 5 17 6.1355 0.1349
18 6 0 1.0405 -2.3245
18 6 2 6.2129 -0.0133
18 6 4 -6.1640 -0.5498
18 6 6 -9.4504 -0.2146
18 6 8 12.4518 -3.3778
18 6 10 2.2199 3.5497
18 6 12 -1.8867 2.2959
18 6 14 5.8764 -2.5424
18 6 16 2.3762 -0.8482
18 6 18 1.9854 -0.5914
18 7 1 6.2540 1.5780
18 7 3 0.0520 1.4138
18 7 5 9.0291 -1.7897
18 7 7 -13.8158 0.6335
18 7 9 1.3950 -0.9532
18 7 11 3.8704 -1.7706
18 7 13 -20.3312 1.7528
18 7 15 9.2593 0.8784
18 7 17 4.8814 0.1668
18 8 0 -15.5857 9.2294
18 8 2 -3.7436 1.1172
18 8 4 13.9564 0.7285
18 8 6 9.8395 -5.6207
18 8 8 -0.6353 0.6364
18 8 10 -4.1354 3.1334
18 8 12 7.8742 -0.1917
18 8 14 7.3951 0.2646
18 8 16 -17.4681 -0.6349
18 8 18 5.5147 0.6055
18 9 1 -4.0236 -1.7496
18 9 3 0.4494 -3.1382
18 9 5 -1.1587 -1.8880
18 9 7 0.2476 0.8337
18 9 9 -10.1999 -0.1948
18 9 11 2.1783 0.0187
18 9 13 -12.3669 0.1142
18 9 15 9.0509 -0.3188
18 9 17 15.7031 -0.3578
18 10 0 -0.3090 -7.7230
18 10 2 -14.3162 -2.1758
18 10 4 -20.8413 -1.4841
18 10 6 8.9502 -1.7214
18 10 8 0.8037 -0.4118
18 10 10 6.0539 -1.0000
18 10 12 -21.3162 -1.0369
18 10 14 -8.5035 0.8346
18 10 16 7.0287 0.8247
18 10 18 -2.0994 0.8737
18 11 1 -9.5011 5.6857
18 11 3 6.9406 0.4184
18 11 5 16.0448 2.4826
18 11 7 1.4502 -2.1977
18 11 9 -4.0518 -0.5585
18 11 11 5.3238 1.5890
18 11 13 0.2953 -0.6623
18 11 15 7.1104 0.3669
18 11 17 -1.4068 0.4332
18 12 0 10.5471 9.7206
18 12 2 23.0221 1.0480
18 12 4 -0.0442 0.4032
18 12 6 2.0436 2.0900
18 12 8 -18.6300 0.1941
18 12 10 -3.4672 0.1987
18 12 12 11.2085 1.0869
18 12 14 -3.7480 -0.1034
18 12 16 -12.4384 -1.0637
18 12 18 7.5486 -0.0816
18 13 1 2.7977 1.7166
18 13 3 -23.6700 -1.0092
18 13 5 -6.7544 -1.7382
18 13 7 -0.0679 -0.5182
18 13 9 12.2481 -1.3633
18 13 11 1.1706 -0.7396
18 13 13 2.8321 0.4985
18 13 15 7.1309 0.5211
18 13 17 -11.4449 0.6732
18 14 0 -16.0768 -6.8661
18 14 2 -6.7423 0.8816
18 14 4 4.9612 3.1222
18 14 6 -8.9152 -1.1848
18 14 8 1.4075 -1.0784
18 14 10 4.3470 -0.4283
18 14 12 -1.9236 -1.7914
18 14 14 -3.8791 1.1383
18 14 16 -0.8580 1.2172
18 15 1 7.2536 0.6594
18 15 3 11.7896 5.4109
18 15 5 -5.7500 3.0572
18 15 7 -8.0841 -2.8358
18 15 9 -4.6466 -2.2131
18 15 11 -2.1353 -0.5808
18 15 13 -2.1171 1.4005
18 15 15 -3.9607 2.6983
18 15 17 -3.6533 -0.6653
18 16 0 4.8413 3.3793
18 16 2 -0.8820 -1.3117
18 16 4 -0.7666 -0.6308
18 16 6 -0.0412 0.1607
18 16 8 -8.0890 2.2539
18 16 10 -8.8354 1.6563
18 16 12 2.3137 0.1110
18 16 14 -0.0572 -1.4685
18 16 16 -6.5582 -1.3428
18 17 1 -7.4655 0.1124
18 17 3 23.5542 -1.8687
18 17 5 4.5689 3.0992
18 17 7 4.1106 0.8659
18 17 9 5.3556 -0.5140
18 17 11 -4.0006 -0.1513
18 17 13 -6.3990 -1.3894
18 17 15 16.7752 -0.5968
18 17 17 12.0766 0.4229
18 18 0 19.0692 -2.8079
18 18 4 -21.0869 -1.9138
18 18 8 2.0254 4.6242
18 18 12 -7.5337 -0.6831
18 18 16 -30.4170 -2.1299
19 0 1 32.3576 -8.3636
19 0 3 -9.2494 10.8528
19 0 5 -20.4433 1.5842
19 0 7 46.0756 -5.4714
19 0 9 6.4469 8.5584
19 0 11 -10.4122 0.9321
19 0 13 4.1116 -7.5341
19 0 15 2.2983 2.8805
19 0 17 -2.5378 0.8342
19 1 2 22.2716 -3.3782
19 1 4 7.5489 5.0563
19 1 6 18.1193 2.1841
19 1 8 -7.5057 -3.8279
19 1 10 -4.6320 -0.6187
19 1 12 5.1330 1.7500
19 1 14 11.3260 -2.3717
19 1 16 -10.1069 0.3195
19 2 1 -1.7910 2.2508
19 2 3 -17.8153 -0.4073
19 2 5 12.7171 -1.1584
19 2 7 -1.3830 -0.3571
19 2 9 -12.3095 1.7342
19 2 11 -3.4413 0.4040
19 2 13 -14.9851 0.2319
19 2 15 -7.2083 -0.7910
19 2 17 3.9974 -0.5309
19 3 2 -29.2952 -3.7200
19 3 4 -22.6363 2.5727
19 3 6 -5.2717 1.2345
19 3 8 5.4354 -1.7226
19 3 10 -4.4982 1.3359
19 3 12 16.1118 1.3370
19 3 14 19.9323 -1.6438
19 3 16 1.0743 -0.4851
19 3 18 -4.2982 -0.1388
19 4 1 8.5814 4.4132
19 4 3 -2.5978 -2.5480
19 4 5 -5.8334 -0.5388
19 4 7 -21.2641 1.5857
19 4 9 -4.1630 -1.7252
19 4 11 10.9838 -0.4402
19 4 13 -20.0374 1.7946
19 4 15 -3.9880 -0.0896
19 4 17 3.3744 -0.4070
19 5 2 33.2725 0.5213
19 5 4 14.0129 -0.9221
19 5 6 -15.4864 -1.1498
19 5 8 3.4942 2.5329
19 5 10 -14.9611 -0.6004
19 5 12 5.5771 -0.3197
19 5 14 3.8655 0.8923
19 5 16 -1.4150 0.6842
19 5 18 -1.7125 -0.8046
19 6 1 0.0310 2.6396
19 6 3 26.1238 -0.8786
19 6 5 -11.2253 1.3073
19 6 7 -2.7770 -0.6413
19 6 9 -19.4159 -0.1720
19 6 11 -4.7028 2.3761
19 6 13 15.8424 -0.7987
19 6 15 25.7613 -1.4269
19 6 17 7.2918 0.0072
19 7 2 -26.7070 0.5421
19 7 4 2.0623 -4.0993
19 7 6 4.7078 -0.1713
19 7 8 1.4138 3.0733
19 7 10 8.4765 -1.1870
19 7 12 21.3136 0.8643
19 7 14 2.2667 0.3975
19 7 16 -18.8584 0.0564
19 7 18 4.0473 0.4877
19 8 1 19.6801 1.2222
19 8 3 11.6784 3.5362
19 8 5 -2.0429 -3.6566
19 8 7 -4.5138 -3.6743
19 8 9 5.1125 3.9006
19 8 11 -21.8225 0.7146
19 8 13 15.1396 -1.3436
19 8 15 -23.7934 -0.0626
19 8 17 0.1476 0.5225
19 9 2 2.4470 -1.3333
19 9 4 1.2641 1.2967
19 9 6 -0.9144 -1.1698
19 9 8 3.5920 0.1415
19 9 10 -12.6226 -0.6244
19 9 12 17.9511 0.5008
19 9 14 -11.8486 0.0292
19 9 16 1.1422 -0.6486
19 9 18 -9.7584 -1.5270
19 10 1 5.5820 -3.8801
19 10 3 -15.0908 1.5711
19 10 5 19.8376 -2.6961
19 10 7 10.3272 -2.5110
19 10 9 -1.1439 0.7140
19 10 11 -12.6102 -1.0502
19 10 13 16.1276 0.0809
19 10 15 -8.7779 0.9261
19 10 17 5.5864 0.7783
19 11 2 -27.4228 -1.8769
19 11 4 -13.6913 0.7863
19 11 6 4.1347 -0.2044
19 11 8 12.3305 -0.6297
19 11 10 -12.2584 -1.3010
19 11 12 -1.5323 -0.1252
19 11 14 -11.4443 -0.1873
19 11 16 -7.4061 0.5912
19 11 18 -6.1799 1.3506
19 12 1 -2.6924 2.6360
19 12 3 1.8918 -1.2467
19 12 5 -7.4707 3.2034
19 12 7 -9.0701 0.3749
19 12 9 6.2068 -0.7855
19 12 11 7.3753 0.0793
19 12 13 -0.4364 -0.5976
19 12 15 -13.5718 0.7644
19 12 17 7.8170 0.8910
19 13 2 0.3294 -1.4668
19 13 4 -12.5218 0.1043
19 13 6 8.0692 -1.5464
19 13 8 -0.6561 0.3746
19 13 10 2.6711 -1.0859
19 13 12 2.5812 0.2530
19 13 14 -5.3480 1.0570
19 13 16 4.6588 -0.0846
19 14 1 -2.0577 2.0235
19 14 3 27.5785 2.9886
19 14 5 -7.6630 -0.1084
19 14 7 -5.4999 -1.7666
19 14 9 -14.1101 -0.4150
19 14 11 -5.4476 -1.7274
19 14 13 -4.0751 1.0278
19 14 15 20.4586 0.0048
19 14 17 -2.5598 -0.7727
19 15 2 0.7762 3.0396
19 15 4 -11.0897 4.5853
19 15 6 7.8214 -1.7452
19 15 8 3.1598 -4.2205
19 15 10 13.7039 -3.1826
19 15 12 6.5067 1.4063
19 15 14 -0.0969 3.4747
19 15 16 3.5950 1.5621
19 16 1 11.6468 3.0845
19 16 3 -14.4330 -0.2798
19 16 5 -7.3210 -1.2418
19 16 7 9.7239 0.7587
19 16 9 -2.5343 2.2413
19 16 11 7.6332 0.5725
19 16 13 -7.3327 0.4045
19 16 15 7.2556 -0.8695
19 16 17 -2.4083 -0.3502
19 17 2 9.0075 2.4986
19 17 4 -1.7660 5.2368
19 17 6 2.1299 -2.4930
19 17 8 -2.1662 -2.0141
19 17 10 -4.6923 -1.4358
19 17 12 -5.9964 -0.0572
19 17 14 -12.7317 2.5036
19 17 16 -7.8058 0.1062
19 18 1 -9.8673 -3.3977
19 18 3 -10.6873 -4.8288
19 18 5 -5.9064 2.1718
19 18 7 13.6395 3.7924
19 18 9 -5.0937 0.3753
19 18 11 16.2794 0.1961
19 18 13 21.7862 -1.0319
19 18 15 -2.1919 -2.8741
19 18 17 -7.0927 -0.9010
19 19 2 2.8676 2.5224
19 19 6 10.6161 -1.2453
19 19 10 -0.1164 -0.9785
19 19 14 -5.8969 1.0298
20 0 0 34.5313 2.7286
20 0 2 -15.7751 -7.2183
20 0 4 -0.6188 -8.2932
20 0 6 5.4413 12.3737
20 0 8 21.4008 7.3444
20 0 10 -1.7733 -13.9980
20 0 12 -6.2076 4.5314
20 0 14 -5.2594 3.6290
20 0 16 -4.9365 -7.6017
20 1 1 10.6693 -1.1802
20 1 3 -1.1981 2.9388
20 1 5 -2.6922 -2.5622
20 1 7 1.3393 -2.8361
20 1 9 -1.1976 5.9579
20 1 11 -1.5779 -4.5588
20 1 13 -11.2340 -1.0942
20 1 15 -8.5583 3.8477
20 1 17 6.4446 -2.7634
20 2 0 25.7232 -10.4439
20 2 2 5.1863 -1.6321
20 2 4 -9.1735 -0.7419
20 2 6 -15.8338 0.4558
20 2 8 -2.6125 -1.3518
20 2 10 5.1297 1.5073
20 2 12 -1.3631 1.8162
20 2 14 -2.6341 -1.7764
20 2 16 5.8320 0.3840
20 2 18 -10.7856 -0.1591
20 3 1 -1.9255 1.7447
20 3 3 -5.0384 -1.9901
20 3 5 4.2899 -3.9512
20 3 7 -11.7195 4.0955
20 3 9 -2.3235 1.2122
20 3 11 -12.8100 -1.5566
20 3 13 1.2026 2.6798
20 3 15 -13.9057 -0.4007
20 3 17 -0.9232 -0.0452
20 4 0 -5.9782 -1.3625
20 4 2 -4.3091 1.8553
20 4 4 24.3794 4.3713
20 4 6 -2.4092 -2.4276
20 4 8 2.4943 0.8515
20 4 10 6.7952 0.7541
20 4 12 4.8204 -2.3358
20 4 14 -8.0940 -0.3668
20 4 16 9.1668 1.2884
20 4 18 2.3598 -0.7088
20 5 1 4.9387 1.1735
20 5 3 12.9762 -0.3183
20 5 5 -3.7483 0.7130
20 5 7 -3.8688 2.4728
20 5 9 5.6649 -1.8474
20 5 11 7.5861 -0.4782
20 5 13 10.6965 0.4417
20 5 15 14.4691 -1.0705
20 5 17 3.3382 0.6384
20 6 0 -16.3317 1.5370
20 6 2 -0.0784 2.0628
20 6 4 7.9993 1.9630
20 6 6 -2.3678 -3.3909
20 6 8 -0.6509 4.6176
20 6 10 1.0012 1.0554
20 6 12 1.0979 -1.1893
20 6 14 -23.4697 0.8855
20 6 16 0.0060 -0.6783
20 6 18 -0.2300 0.5215
20 7 1 3.0761 -2.5918
20 7 3 12.8688 -2.3488
20 7 5 -0.1321 2.1741
20 7 7 -9.9644 -3.0808
20 7 9 1.4637 1.5460
20 7 11 11.7448 2.4525
20 7 13 -4.5839 -0.4014
20 7 15 -5.9992 0.6773
20 7 17 -9.7791 -0.1112
20 8 0 24.9256 -9.8130
20 8 2 7.0578 -2.7170
20 8 4 1.6500 0.3255
20 8 6 16.1221 2.2743
20 8 8 8.6126 0.0833
20 8 10 -1.8331 -0.1557
20 8 12 8.5969 -0.4484
20 8 14 -11.6045 -1.4610
20 8 16 -4.2247 -0.2278
20 8 18 5.6782 0.1303
20 9 1 7.0829 3.2525
20 9 3 -4.1659 0.9866
20 9 5 5.3408 0.0506
20 9 7 11.3270 -1.5138
20 9 9 -5.5896 -0.0271
20 9 11 -3.5278 0.6936
20 9 13 -10.8151 0.8896
20 9 15 0.6188 0.4093
20 9 17 -0.0440 -1.4411
20 10 0 9.0901 12.6083
20 10 2 4.5757 2.0882
20 10 4 2.4940 0.0168
20 10 6 8.2220 0.5451
20 10 8 -3.6250 -2.7160
20 10 10 -9.1280 -1.3417
20 10 12 -9.8605 0.8476
20 10 14 -9.7167 1.0223
20 10 16 -12.5950 0.7883
20 11 1 -4.5165 -2.8976
20 11 3 -20.0694 -4.0078
20 11 5 -1.4275 -2.3761
20 11 7 -0.1969 3.2579
20 11 9 1.5799 -1.4213
20 11 11 2.5699 -1.8886
20 11 13 4.2644 0.1698
20 11 15 -3.1138 -0.3546
20 11 17 5.4506 0.0617
20 12 0 -20.8812 -9.8276
20 12 2 5.6057 -0.5818
20 12 4 7.9680 -0.6168
20 12 6 -0.9581 -1.2354
20 12 8 -0.5584 0.9833
20 12 10 -5.8862 0.4278
20 12 12 5.3243 -0.7606
20 12 14 -6.4648 0.1670
20 12 16 -20.7486 0.7380
20 13 1 -4.7865 6.1806
20 13 3 4.9989 2.3727
20 13 5 12.5281 1.8419
20 13 7 7.9696 -0.8189
20 13 9 2.8434 -1.9961
20 13 11 4.8580 0.1003
20 13 13 -4.5819 0.8830
20 13 15 12.1741 1.0652
20 13 17 24.8050 -0.6568
20 14 0 9.4103 8.2568
20 14 2 13.5905 2.2196
20 14 4 -10.6281 1.7364
20 14 6 -17.8487 -1.4769
20 14 8 -9.6679 1.0952
20 14 10 7.9069 1.1932
20 14 12 8.7262 -0.7460
20 14 14 -0.2677 -0.5198
20 14 16 7.5421 -0.7058
20 15 1 -9.0939 -1.2251
20 15 3 2.9133 1.4133
20 15 5 0.3934 2.0500
20 15 7 -2.9321 -3.9049
20 15 9 -3.1452 -2.1861
20 15 11 5.8819 0.4274
20 15 13 -3.5107 0.8074
20 15 15 0.9631 0.7898
20 15 17 -8.5147 0.3552
20 16 0 19.8318 -3.2612
20 16 2 -2.2635 2.3337
20 16 4 -2.3102 1.0604
20 16 6 -0.3409 -2.2792
20 16 8 -6.8328 -2.4304
20 16 10 4.3240 1.2516
20 16 12 -6.5399 -0.7766
20 16 14 1.3182 -0.0463
20 16 16 20.2313 1.3082
20 17 1 -1.8994 0.8034
20 17 3 2.1467 4.7811
20 17 5 -2.3016 3.6009
20 17 7 1.2808 -3.3098
20 17 9 5.4070 -3.4095
20 17 11 11.1200 0.2718
20 17 13 -2.3154 1.5773
20 17 15 21.0173 0.6163
20 17 17 1.6317 -1.8238
20 18 0 7.2533 2.0050
20 18 2 -11.1876 -0.1327
20 18 4 -21.8670 -2.8380
20 18 6 4.3887 -0.2865
20 18 8 -6.4931 -0.4456
20 18 10 -0.8918 2.9812
20 18 12 0.3982 1.7833
20 18 14 3.0270 -1.6653
20 18 16 6.3523 -1.1389
20 19 1 7.1045 0.1573
20 19 3 4.2987 -1.8245
20 19 5 2.1901 4.0232
20 19 7 -3.3536 -1.3692
20 19 9 0.4929 -2.4153
20 19 11 7.1130 2.2940
20 19 13 12.0585 0.6107
20 19 15 -27.4975 -1.1224
20 20 0 -23.1306 3.9931
20 20 4 -1.1063 -6.7163
20 20 8 -3.9602 2.8313
20 20 12 21.6337 2.3476
20 20 16 18.9842 -4.4256
21 0 1 20.6382 -4.3495
21 0 3 -11.1885 -2.9515
21 0 5 -0.1241 0.9453
21 0 7 -4.0474 11.0895
21 0 9 -12.4837 -0.4015
21 0 11 -5.5433 -6.7180
21 0 13 15.2927 4.7264
21 0 15 3.1891 -1.5857
21 0 17 0.2067 -2.9085
21 1 2 -16.5519 -1.2974
21 1 4 -8.7785 4.9901
21 1 6 -0.1450 -3.6052
21 1 8 7.1312 1.4879
21 1 10 -4.8503 1.9052
21 1 12 -6.4346 -3.6734
21 1 14 0.7671 1.4724
21 1 16 -20.0575 0.6496
21 1 18 7.6734 -2.1314
21 2 1 -13.3642 6.2197
21 2 3 6.3742 -6.4450
21 2 5 -3.5661 1.4670
21 2 7 13.0254 -0.2184
21 2 9 7.1041 -1.3021
21 2 11 5.9734 2.8978
21 2 13 3.1719 -1.4656
21 2 15 -15.9222 -0.4867
21 2 17 8.0437 0.3029
21 3 2 9.7773 2.1917
21 3 4 -4.3298 -1.9821
21 3 6 -3.3282 -1.5325
21 3 8 -1.2607 1.8931
21 3 10 -1.4149 -1.3138
21 3 12 -0.4604 0.8952
21 3 14 -9.9653 0.4022
21 3 16 -9.0930 -0.2664
21 3 18 15.6403 -0.1479
21 4 1 -4.2617 2.3698
21 4 3 1.7474 0.0343
21 4 5 26.5624 2.9917
21 4 7 -5.5796 0.5615
21 4 9 -7.1612 -0.3430
21 4 11 3.7844 -1.2911
21 4 13 7.0842 -1.0147
21 4 15 -2.1245 0.7551
21 4 17 5.0210 1.1322
21 5 2 -29.5246 1.8426
21 5 4 9.8194 -1.4526
21 5 6 -12.2860 2.0156
21 5 8 3.4413 1.2814
21 5 10 6.3137 -1.5807
21 5 12 -11.9639 1.7256
21 5 14 -1.9007 -0.3537
21 5 16 -6.2268 -0.5763
21 5 18 -15.6898 -1.3172
21 6 1 -31.7996 3.2394
21 6 3 10.1065 2.4284
21 6 5 2.6965 -2.1213
21 6 7 -3.2651 2.0260
21 6 9 4.7000 2.1941
21 6 11 8.5235 -1.7320
21 6 13 -3.3147 -0.0136
21 6 15 11.1466 0.0781
21 6 17 -0.5813 -0.3989
21 7 2 20.6501 -2.8190
21 7 4 -4.3136 2.8509
21 7 6 -28.0464 -1.3562
21 7 8 4.3009 -1.1150
21 7 10 5.3117 2.1558
21 7 12 1.3283 0.4387
21 7 14 -9.1987 -0.3239
21 7 16 -5.9793 -0.1144
21 7 18 14.3174 -1.1840
21 8 1 2.5630 -2.6324
21 8 3 -10.4473 -0.8835
21 8 5 1.1562 2.5385
21 8 7 1.6673 1.3530
21 8 9 -8.5815 -0.0281
21 8 11 1.8113 0.1375
21 8 13 -5.8704 -1.6895
21 8 15 9.5086 -0.3915
21 8 17 -6.8200 0.4465
21 9 2 4.6935 -0.3851
21 9 4 -7.8609 1.0754
21 9 6 5.2326 -2.4972
21 9 8 11.7983 1.2000
21 9 10 1.7893 0.2954
21 9 12 8.4292 1.0750
21 9 14 16.1017 0.3995
21 9 16 -1.7382 -0.2486
21 10 1 -4.6901 3.6648
21 10 3 2.2400 -0.6355
21 10 5 -11.4900 0.6845
21 10 7 11.9087 -1.9530
21 10 9 4.0180 -0.6804
21 10 11 -1.6721 -0.5573
21 10 13 -1.7199 0.4785
21 10 15 14.0244 1.6223
21 10 17 -10.9373 1.0172
21 11 2 1.7036 -2.2123
21 11 4 2.4771 -1.9505
21 11 6 -3.4293 2.1193
21 11 8 7.8696 1.6280
21 11 10 -0.4235 -2.4037
21 11 12 11.0297 -0.0001
21 11 14 -0.2467 -0.8547
21 11 16 -0.8867 -0.8608
21 12 1 3.5698 -3.1549
21 12 3 9.7524 0.1710
21 12 5 13.2923 -1.6680
21 12 7 -3.9413 -1.5310
21 12 9 -15.3285 1.3922
21 12 11 20.6097 -0.7123
21 12 13 2.6574 0.3741
21 12 15 7.4747 -0.3729
21 12 17 -7.9694 -0.3194
21 13 2 -10.7524 -0.1425
21 13 4 -3.0046 0.4147
21 13 6 -13.9398 0.1999
21 13 8 3.1741 -0.6257
21 13 10 4.0872 -0.8383
21 13 12 -15.8631 -0.9058
21 13 14 11.8494 0.1771
21 13 16 -3.3839 0.7983
21 14 1 -9.0287 2.6585
21 14 3 -5.8836 0.7967
21 14 5 -15.6455 0.2207
21 14 7 -2.3483 -0.6000
21 14 9 6.9486 0.8474
21 14 11 6.7809 0.2509
21 14 13 4.7772 -0.2387
21 14 15 -13.7123 -0.0434
21 14 17 1.5352 0.4535
21 15 2 10.5467 -1.0014
21 15 4 -0.7969 2.3286
21 15 6 -8.5151 -2.1231
21 15 8 -2.9952 -0.9011
21 15 10 1.0380 0.7022
21 15 12 -7.2229 1.5088
21 15 14 -2.2874 1.3661
21 15 16 2.9719 -1.1136
21 16 1 -3.0759 -1.4503
21 16 3 -10.9550 1.8837
21 16 5 8.8963 1.4127
21 16 7 -17.7375 -1.6576
21 16 9 3.6810 -0.2223
21 16 11 -23.2891 -1.5242
21 16 13 -3.9646 0.0972
21 16 15 1.2945 0.8348
21 17 2 2.6855 2.5038
21 17 4 -6.5395 2.4217
21 17 6 2.8458 0.3983
21 17 8 3.1298 -1.9690
21 17 10 -25.4364 -2.2005
21 17 12 -2.6866 0.8391
21 17 14 1.4279 0.2703
21 17 16 -8.5088 0.6553
21 18 1 14.9500 3.0694
21 18 3 -13.5872 0.0131
21 18 5 5.9545 -1.9709
21 18 7 -1.7149 -1.3313
21 18 9 10.4942 1.7858
21 18 11 1.6366 0.9369
21 18 13 -2.1486 0.8151
21 18 15 13.2043 -0.4401
21 19 2 3.5512 0.7668
21 19 4 0.1107 1.2675
21 19 6 -7.4647 -0.5175
21 19 8 3.8411 -1.8239
21 19 10 -2.4763 1.0661
21 19 12 9.8639 0.7337
21 19 14 -2.3103 0.3689
21 19 16 2.2823 -0.3077
21 20 1 9.0575 -0.8886
21 20 3 1.1302 -2.1510
21 20 5 9.0718 -2.0602
21 20 7 20.0947 0.7449
21 20 9 -5.6910 1.6238
21 20 11 11.0788 0.8325
21 20 13 9.6096 0.0866
21 20 15 0.9108 -2.8383
21 21 2 7.8908 1.2995
21 21 6 7.8600 -2.5013
21 21 10 -5.5451 1.1082
21 21 14 -21.9427 1.9696
22 0 0 41.4048 -15.3191
22 0 2 2.5060 3.1249
22 0 4 -13.7470 16.7380
22 0 6 -3.6772 -8.0825
22 0 8 -7.8018 2.2217
22 0 10 -0.9776 9.9401
22 0 12 -3.5774 -9.7509
22 0 14 14.3275 -2.9635
22 0 16 5.7012 6.9008
22 1 1 -1.1508 -6.0699
22 1 3 -6.1466 -0.3213
22 1 5 1.9608 8.3308
22 1 7 -10.2477 -1.9106
22 1 9 -7.7998 -4.3877
22 1 11 6.7483 3.4198
22 1 13 0.2857 -0.6855
22 1 15 11.6961 -3.0093
22 1 17 3.8305 3.3522
22 2 0 -58.1380 3.8421
22 2 2 -19.2416 -2.7216
22 2 4 10.1933 -2.3292
22 2 6 -1.0420 -3.9505
22 2 8 4.6590 1.4973
22 2 10 10.4047 -0.5520
22 2 12 -1.4497 0.2088
22 2 14 15.9971 0.5628
22 2 16 -2.6023 -1.2357
22 2 18 1.3633 0.2554
22 3 1 0.6617 -2.9427
22 3 3 10.8807 1.3223
22 3 5 8.3747 3.4138
22 3 7 -0.1326 -4.1654
22 3 9 -7.2754 -0.9156
22 3 11 -14.5670 2.1066
22 3 13 -1.4464 -1.1380
22 3 15 -4.5040 -1.1221
22 3 17 4.6202 0.0166
22 4 0 19.2995 -10.2376
22 4 2 10.1651 -3.8212
22 4 4 -5.8161 -1.1635
22 4 6 -2.6678 4.5204
22 4 8 -4.3915 2.1079
22 4 10 4.3649 -3.9122
22 4 12 -0.5986 0.4535
22 4 14 4.6658 0.9596
22 4 16 -9.9956 -0.8900
22 5 1 11.6517 5.0498
22 5 3 -5.1295 -0.5457
22 5 5 3.1882 -0.7468
22 5 7 -15.5965 0.1508
22 5 9 2.8087 1.0219
22 5 11 0.2006 -0.0525
22 5 13 1.8551 1.2209
22 5 15 -10.4386 1.2678
22 5 17 12.1860 0.1870
22 6 0 -21.8581 -5.1096
22 6 2 -12.3884 1.3004
22 6 4 12.9980 2.2910
22 6 6 1.5914 3.0497
22 6 8 -3.2971 0.6514
22 6 10 -3.7398 -1.9164
22 6 12 3.0289 -0.0325
22 6 14 -5.2932 -0.1052
22 6 16 -1.2014 -0.1261
22 7 1 -7.5936 0.5834
22 7 3 -11.4215 -0.3168
22 7 5 -3.3230 -1.0829
22 7 7 4.5622 2.2574
22 7 9 0.8384 0.3137
22 7 11 -3.4577 -0.7965
22 7 13 2.9795 -0.2190
22 7 15 -9.4190 -0.6314
22 7 17 11.6451 -0.8941
22 8 0 10.8333 7.1498
22 8 2 6.0624 1.4608
22 8 4 -4.7605 0.7304
22 8 6 -5.3861 0.3986
22 8 8 -4.7468 1.2418
22 8 10 5.2204 0.2353
22 8 12 1.5940 -0.9405
22 8 14 4.6134 0.1276
22 8 16 -9.9393 0.4554
22 9 1 8.8902 -3.8123
22 9 3 7.6248 0.0999
22 9 5 -1.7481 -0.1920
22 9 7 -0.5155 -0.7892
22 9 9 -10.0654 0.4476
22 9 11 -8.7694 1.1008
22 9 13 -1.3342 0.3039
22 9 15 -5.8197 -0.3040
22 9 17 4.3798 -1.2135
22 10 0 -20.1679 -11.3414
22 10 2 -8.2875 -3.6039
22 10 4 -3.0310 1.3633
22 10 6 6.4572 -1.0742
22 10 8 10.6025 0.8326
22 10 10 -2.1312 -0.0045
22 10 12 -1.0565 -0.8967
22 10 14 0.0740 0.3205
22 10 16 3.7384 0.3175
22 11 1 -8.1242 6.2912
22 11 3 0.1167 1.3774
22 11 5 27.7348 2.0292
22 11 7 15.1189 -0.3122
22 11 9 -8.5730 0.7788
22 11 11 -9.1176 0.8123
22 11 13 -18.2023 -0.5170
22 11 15 11.5303 -0.0746
22 11 17 -14.6254 -0.2076
22 12 0 13.8493 11.1134
22 12 2 6.8062 0.9086
22 12 4 -1.6864 0.0770
22 12 6 -1.9334 0.9037
22 12 8 4.0891 -1.5436
22 12 10 -8.0240 -0.5192
22 12 12 -4.7115 0.6065
22 12 14 9.3087 0.0561
22 12 16 -2.6571 0.3509
22 13 1 8.8328 -4.1921
22 13 3 -2.1076 -4.2006
22 13 5 -0.2836 0.3067
22 13 7 0.6865 -0.2663
22 13 9 1.8243 -0.9160
22 13 11 9.8641 0.6428
22 13 13 8.1257 -1.4933
22 13 15 7.8275 -0.8747
22 13 17 -1.1693 0.2460
22 14 0 -3.2147 -6.3482
22 14 2 -6.0566 -1.7611
22 14 4 5.7237 -2.5613
22 14 6 1.1259 1.0660
22 14 8 -7.8354 -0.4509
22 14 10 7.7384 -0.5305
22 14 12 8.1720 1.7098
22 14 14 -5.9252 -0.0449
22 14 16 -3.7293 -0.2919
22 15 1 13.7561 4.4935
22 15 3 2.3629 0.0143
22 15 5 -1.8146 -0.6408
22 15 7 3.4963 1.7830
22 15 9 -2.7116 0.5184
22 15 11 -9.2656 -0.0074
22 15 13 20.0859 0.3666
22 15 15 -24.2023 -0.9436
22 16 0 -2.4131 6.1067
22 16 2 2.7427 2.4074
22 16 4 3.6149 0.0235
22 16 6 -1.1703 -1.5799
22 16 8 10.1745 -0.4461
22 16 10 10.0166 0.5448
22 16 12 7.8316 -0.4026
22 16 14 -4.3437 -0.0419
22 16 16 -1.4031 -0.6423
22 17 1 7.0357 -0.6728
22 17 3 0.7036 1.4501
22 17 5 15.2285 0.2685
22 17 7 -3.4649 0.0601
22 17 9 8.1747 1.1509
22 17 11 -1.7683 -0.7558
22 17 13 1.4676 -0.2781
22 17 15 0.5898 0.0477
22 18 0 1.6709 2.6346
22 18 2 5.4626 1.7276
22 18 4 3.7038 0.9551
22 18 6 7.9189 -3.5803
22 18 8 3.4105 -1.6306
22 18 10 -0.5186 1.2963
22 18 12 -14.8339 -1.5387
22 18 14 -2.2343 0.4140
22 18 16 6.8709 0.5496
22 19 1 0.7593 0.2720
22 19 3 3.7764 -0.3583
22 19 5 1.5995 1.7381
22 19 7 -6.9582 -2.8276
22 19 9 14.2070 0.4019
22 19 11 -16.6310 0.9957
22 19 13 -10.1826 -0.3207
22 19 15 15.8096 -0.0362
22 20 0 3.8761 -0.5638
22 20 2 -1.0387 2.5690
22 20 4 -1.8509 -2.0135
22 20 6 4.7031 -0.7031
22 20 8 -0.5728 -1.6648
22 20 10 -14.6945 3.4355
22 20 12 -20.7744 0.4231
22 20 14 9.0251 -1.0891
22 21 1 10.8220 -0.5819
22 21 3 0.0313 -1.8683
22 21 5 3.9894 4.1590
22 21 7 -4.7895 -2.4965
22 21 9 -8.9822 -1.4710
22 21 11 8.1542 3.6509
22 21 13 -0.8874 0.3436
22 21 15 10.7648 -1.7660
22 22 0 -1.8197 8.4541
22 22 4 1.3878 -8.1533
22 22 8 -25.1188 0.0735
22 22 12 0.3137 3.3919
23 0 1 -7.4528 1.8663
23 0 3 21.7664 -10.4068
23 0 5 -8.1855 14.5305
23 0 7 15.9578 0.9698
23 0 9 6.6851 -3.6718
23 0 11 -12.4656 5.2786
23 0 13 14.8267 -6.7109
23 0 15 28.8871 -0.0230
23 0 17 -6.5470 3.3178
23 1 2 -6.7445 3.5518
23 1 4 -2.1228 -5.9898
23 1 6 25.0413 4.2191
23 1 8 -1.3821 -0.1044
23 1 10 -2.7203 -5.3282
23 1 12 4.9305 4.1134
23 1 14 9.2548 -1.8290
23 1 16 1.9772 -0.2388
23 2 1 14.0373 1.5134
23 2 3 2.2101 -0.9893
23 2 5 -8.1384 -4.8143
23 2 7 -9.1157 -0.7183
23 2 9 -10.4325 1.8299
23 2 11 4.7478 -0.8645
23 2 13 2.1742 1.6141
23 2 15 14.8787 -0.0244
23 2 17 2.6925 -1.3077
23 3 2 -6.6322 3.7409
23 3 4 14.1019 3.2580
23 3 6 3.2628 -1.5151
23 3 8 -8.7790 -0.7881
23 3 10 -0.1921 0.1694
23 3 12 12.8885 -0.6132
23 3 14 8.6480 -0.3160
23 3 16 3.6507 -0.0322
23 4 1 -22.0130 2.5473
23 4 3 1.8954 0.4189
23 4 5 16.1664 0.8411
23 4 7 8.3417 2.1927
23 4 9 5.4130 -1.1898
23 4 11 -4.6507 -2.1650
23 4 13 -2.1470 -0.2232
23 4 15 -4.8909 0.1920
23 4 17 2.7714 1.1760
23 5 2 19.6849 -3.0622
23 5 4 -7.7297 1.9419
23 5 6 -7.2102 -2.1874
23 5 8 8.7786 -0.8975
23 5 10 -1.1567 0.7446
23 5 12 -16.3569 -0.7498
23 5 14 -9.8689 0.7746
23 5 16 -0.5863 0.1534
23 6 1 12.0869 1.7837
23 6 3 -3.1134 -3.3495
23 6 5 -22.6147 4.2311
23 6 7 6.5949 0.9147
23 6 9 -8.8628 -2.0978
23 6 11 -9.7265 0.5316
23 6 13 -5.1519 -0.2819
23 6 15 0.4261 0.7123
23 6 17 17.8923 0.3088
23 7 2 3.2760 2.0253
23 7 4 -4.3015 -0.4559
23 7 6 -6.7183 -0.0737
23 7 8 -0.5099 0.9939
23 7 10 7.8452 -0.2421
23 7 12 7.7679 1.1747
23 7 14 17.8425 -0.6064
23 7 16 -9.3506 0.0366
23 8 1 -7.1697 4.5124
23 8 3 12.0503 -0.3774
23 8 5 -2.4841 -0.3642
23 8 7 -1.4441 1.0764
23 8 9 10.0740 0.6469
23 8 11 -0.5783 -0.9711
23 8 13 -2.6987 0.1726
23 8 15 -13.2048 -0.1207
23 8 17 6.9927 0.0552
23 9 2 2.0105 0.9062
23 9 4 -1.0786 -0.0748
23 9 6 2.1091 0.6105
23 9 8 8.1760 0.0412
23 9 10 8.0856 0.9448
23 9 12 -3.6156 0.0763
23 9 14 16.9083 -0.7946
23 9 16 4.8018 -0.2406
23 10 1 -1.5744 -4.6175
23 10 3 -8.6000 -0.1726
23 10 5 -28.4657 -0.0962
23 10 7 0.9659 -0.3314
23 10 9 8.5898 0.0667
23 10 11 -2.6743 0.2563
23 10 13 -2.6214 0.3269
23 10 15 12.5789 -0.3415
23 10 17 15.4694 0.2137
23 11 2 -11.1488 -0.7283
23 11 4 13.0569 1.2770
23 11 6 -1.4572 -1.3165
23 11 8 -2.7690 1.5516
23 11 10 -0.8116 1.0874
23 11 12 8.3192 -1.4500
23 11 14 5.1896 -0.0997
23 11 16 -0.5886 -0.3023
23 12 1 -3.6206 1.5773
23 12 3 5.1834 -0.7931
23 12 5 8.6404 -0.1643
23 12 7 -1.4915 -0.9976
23 12 9 -3.0245 -0.3446
23 12 11 0.1602 0.9086
23 12 13 1.6567 0.5834
23 12 15 7.8704 0.1968
23 12 17 0.8316 0.1715
23 13 2 -2.4936 -3.3437
23 13 4 -3.8038 -1.7696
23 13 6 -0.6384 1.8321
23 13 8 3.5175 1.2958
23 13 10 5.0850 -0.6113
23 13 12 -7.9417 0.5250
23 13 14 -1.5905 -1.6354
23 13 16 -1.4762 -0.0145
23 14 1 -0.6955 -3.8584
23 14 3 1.9958 -2.8274
23 14 5 3.1679 0.4619
23 14 7 12.5019 -0.8600
23 14 9 0.3904 0.8974
23 14 11 12.3229 -0.9588
23 14 13 1.0181 0.0796
23 14 15 2.5169 -0.0183
23 15 2 6.9167 -0.4231
23 15 4 -6.9425 -2.0309
23 15 6 -3.6381 0.1794
23 15 8 -10.7572 1.2610
23 15 10 8.0057 2.3516
23 15 12 8.2283 -0.8673
23 15 14 -3.1698 -1.6835
23 15 16 7.5776 0.8162
23 16 1 1.1062 2.2698
23 16 3 -5.0619 0.8551
23 16 5 -1.2383 -0.5281
23 16 7 -0.9294 -0.5965
23 16 9 2.3480 -0.0599
23 16 11 5.7440 -0.5027
23 16 13 5.4262 1.3757
23 16 15 0.2590 0.0053
23 17 2 -2.4369 0.4336
23 17 4 -2.1854 -1.2392
23 17 6 6.6299 -0.6440
23 17 8 2.6187 1.7754
23 17 10 -2.0439 2.1629
23 17 12 -13.2122 -0.4129
23 17 14 2.8114 0.2001
23 17 16 5.9346 -1.0013
23 18 1 4.2318 -2.7603
23 18 3 4.4343 1.8028
23 18 5 -4.3882 2.0415
23 18 7 -7.0308 0.1731
23 18 9 1.6570 -1.4080
23 18 11 -8.6015 -1.8807
23 18 13 -8.8904 0.2673
23 18 15 1.3610 0.8772
23 19 2 -8.9153 2.1821
23 19 4 3.2043 -0.7340
23 19 6 1.1059 0.3466
23 19 8 -2.1478 2.2805
23 19 10 10.9638 -1.5837
23 19 12 7.4519 -1.5958
23 19 14 13.6595 -0.3750
23 20 1 -4.0166 0.4134
23 20 3 4.2215 0.3550
23 20 5 12.9304 -0.2277
23 20 7 -5.7399 -1.7850
23 20 9 -6.9285 1.1255
23 20 11 -14.3079 -0.5340
23 20 13 -18.9055 -0.0416
23 20 15 3.6051 -0.1305
23 21 2 -0.1723 0.3937
23 21 4 3.1261 -2.1495
23 21 6 -3.1775 0.4597
23 21 8 -2.0870 -0.6046
23 21 10 13.1577 0.5493
23 21 12 -6.9083 0.8524
23 21 14 2.9994 -0.1822
23 22 1 4.0119 0.1774
23 22 3 6.2564 0.7698
23 22 5 6.6302 -4.0739
23 22 7 4.7000 -1.3259
23 22 9 15.9070 3.4754
23 22 11 -0.8778 0.4343
23 22 13 -8.7645 -0.0488
23 22 15 4.5951 -1.7327
23 23 2 -4.9095 -1.0920
23 23 6 18.5547 -2.6193
23 23 10 -2.7573 2.7242
23 23 14 8.3088 1.0798
24 0 0 -29.5724 8.5149
24 0 2 2.5968 -18.5327
24 0 4 8.3929 -11.2546
24 0 6 -17.6282 22.1949
24 0 8 3.3247 -2.4171
24 0 10 1.6308 -11.0891
24 0 12 8.9801 7.7250
24 0 14 -7.0514 -0.7525
24 0 16 -12.6698 -4.7611
24 1 1 0.9900 8.0305
24 1 3 7.1849 -0.4600
24 1 5 18.2200 -9.6719
24 1 7 13.4595 5.5933
24 1 9 -7.3370 1.1001
24 1 11 7.8112 -5.6523
24 1 13 -3.8123 2.7637
24 1 15 -3.3056 1.0762
24 1 17 -6.9664 -2.0145
24 2 0 -0.1726 -15.9343
24 2 2 9.7293 -0.7015
24 2 4 -3.2057 0.3186
24 2 6 -0.8217 -2.6599
24 2 8 0.7983 0.3280
24 2 10 9.4364 0.8520
24 2 12 -2.2233 0.4157
24 2 14 -14.5235 -0.0436
24 2 16 -3.1648 0.1459
24 3 1 -16.0592 2.0901
24 3 3 -9.3879 2.3894
24 3 5 4.4956 -1.9959
24 3 7 -1.5285 0.6847
24 3 9 -4.0195 1.0867
24 3 11 12.0316 -2.3831
24 3 13 -5.7225 0.7098
24 3 15 0.5442 1.8341
24 3 17 -5.9069 -0.2973
24 4 0 30.5920 2.8591
24 4 2 -6.5944 4.6431
24 4 4 -14.0233 3.0497
24 4 6 1.2395 -3.8179
24 4 8 -21.1917 -0.0712
24 4 10 3.5747 0.2448
24 4 12 -10.6232 -2.0582
24 4 14 1.1332 0.3904
24 4 16 -4.2910 0.8269
24 5 1 6.6531 -3.5177
24 5 3 -7.4746 -0.3922
24 5 5 2.0952 0.7608
24 5 7 8.5116 -1.7841
24 5 9 -4.7080 -1.0378
24 5 11 -16.0586 -0.0864
24 5 13 -9.3316 -0.4368
24 5 15 5.8024 -0.5637
24 5 17 4.3557 0.3541
24 6 0 10.9663 -2.3954
24 6 2 -6.5738 -2.1749
24 6 4 -2.8500 -0.9737
24 6 6 0.9619 0.3851
24 6 8 3.9495 0.1380
24 6 10 -2.1270 -0.7858
24 6 12 -9.5872 0.1131
24 6 14 16.0296 0.8112
24 6 16 -15.5968 0.4285
24 7 1 -1.1672 0.6041
24 7 3 -3.1088 0.9823
24 7 5 -5.1279 2.2266
24 7 7 -5.1702 -1.1310
24 7 9 9.6271 -1.1193
24 7 11 -0.7133 1.8843
24 7 13 -3.6958 0.1256
24 7 15 1.7239 -0.5724
24 7 17 8.3095 -0.2582
24 8 0 5.7040 -8.0462
24 8 2 3.0721 -2.6721
24 8 4 -1.1731 1.2462
24 8 6 -12.3251 1.7420
24 8 8 0.2730 1.0472
24 8 10 -1.1828 -0.6979
24 8 12 -2.3886 0.3526
24 8 14 8.0904 0.1871
24 8 16 -6.0137 -1.5065
24 9 1 2.8704 5.5853
24 9 3 2.9292 -0.3857
24 9 5 -0.4487 0.6917
24 9 7 -0.8019 -0.2858
24 9 9 7.5334 1.4218
24 9 11 3.9305 0.9413
24 9 13 0.2378 -1.3509
24 9 15 5.7695 -0.4469
24 9 17 -1.8780 1.6092
24 10 0 18.1847 9.8232
24 10 2 0.2564 2.2356
24 10 4 -0.5145 -0.2447
24 10 6 3.1276 2.3965
24 10 8 8.1283 -1.0927
24 10 10 -0.9879 -1.3081
24 10 12 -9.3200 1.2275
24 10 14 4.9484 -0.1687
24 10 16 1.0819 -0.2790
24 11 1 -2.2622 -3.6140
24 11 3 -5.4246 -2.1204
24 11 5 -5.9588 -1.3577
24 11 7 -6.8962 0.1507
24 11 9 -4.5517 2.0323
24 11 11 -4.0142 -1.1397
24 11 13 5.7138 -0.5782
24 11 15 0.2831 0.2631
24 12 0 -1.2506 -7.8613
24 12 2 -7.9241 -1.7246
24 12 4 8.9229 -0.9604
24 12 6 4.9413 -0.3391
24 12 8 -2.0615 -0.5066
24 12 10 -0.2138 0.9067
24 12 12 11.0081 1.7161
24 12 14 -0.2101 0.2100
24 12 16 -0.2817 -0.1607
24 13 1 -0.3194 6.1643
24 13 3 7.7513 2.1059
24 13 5 17.6666 -0.4777
24 13 7 2.8385 3.4987
24 13 9 -16.5675 0.8438
24 13 11 -10.4549 -1.0679
24 13 13 -6.2161 0.0076
24 13 15 7.9723 -0.1866
24 14 0 -5.4547 7.2894
24 14 2 6.3256 -2.2490
24 14 4 2.8610 -0.6207
24 14 6 -5.7510 -0.8675
24 14 8 -6.6050 0.7166
24 14 10 0.0637 0.3883
24 14 12 3.5946 -1.6653
24 14 14 -4.5114 -0.7060
24 14 16 -3.1321 -0.0035
24 15 1 8.0929 -0.6401
24 15 3 -2.6600 -3.4246
24 15 5 -0.7923 -0.8997
24 15 7 7.2105 -2.0110
24 15 9 0.4863 1.1366
24 15 11 8.8449 2.0167
24 15 13 -18.4511 -0.9912
24 15 15 11.7155 -0.9113
24 16 0 3.3902 -1.4418
24 16 2 -0.9005 -1.2576
24 16 4 0.4620 -0.3344
24 16 6 6.8154 0.0934
24 16 8 3.9939 -0.6763
24 16 10 -1.7867 -0.1979
24 16 12 -13.8135 0.7501
24 16 14 5.5758 0.8039
24 16 16 0.2471 -0.2436
24 17 1 2.3383 2.1188
24 17 3 -0.1704 -3.8161
24 17 5 -8.6307 0.0065
24 17 7 -1.5100 0.5347
24 17 9 2.2293 2.3323
24 17 11 0.8167 1.0970
24 17 13 -4.6333 -1.6919
24 17 15 10.7344 -1.5294
24 18 0 8.4410 1.0589
24 18 2 8.3235 1.2320
24 18 4 -8.2410 -0.3845
24 18 6 -4.1106 2.5016
24 18 8 8.1314 -2.5714
24 18 10 3.7387 -1.7684
24 18 12 3.5311 1.0348
24 18 14 4.1577 1.0130
24 19 1 -1.0832 1.6512
24 19 3 7.6214 1.5448
24 19 5 1.1366 -0.3248
24 19 7 -3.2028 2.9136
24 19 9 -3.5109 2.0886
24 19 11 7.4207 -2.9974
24 19 13 5.1775 -1.0285
24 19 15 -11.9099 0.6350
24 20 0 -0.3797 7.1842
24 20 2 2.9150 0.1391
24 20 4 6.8443 -0.4483
24 20 6 -5.2868 0.2333
24 20 8 -3.3314 -0.4962
24 20 10 -3.6665 -0.2674
24 20 12 7.8656 -1.9067
24 20 14 -10.6474 0.6198
24 21 1 -2.1746 0.9276
24 21 3 -6.8658 -2.2574
24 21 5 4.2736 -2.2572
24 21 7 1.8262 0.1331
24 21 9 -0.4602 1.3603
24 21 11 12.2896 -1.8447
24 21 13 -3.1396 -0.4420
24 21 15 -11.2540 1.8731
24 22 0 -3.1136 -1.9735
24 22 2 -2.9742 2.8228
24 22 4 -10.6807 0.0724
24 22 6 4.0305 -3.6776
24 22 8 -2.9854 -0.1671
24 22 10 -4.4465 3.6435
24 22 12 5.2881 -1.3549
24 22 14 -13.0585 -1.0051
24 23 1 -2.1739 0.4305
24 23 3 -0.1990 0.3301
24 23 5 1.9000 3.3954
24 23 7 -2.8952 -3.9767
24 23 9 -13.2710 -1.6140
24 23 11 -11.1384 2.4326
24 23 13 -14.5856 0.6660
24 24 0 10.6524 8.0526
24 24 4 -2.9005 -6.6212
24 24 8 -16.3020 -2.3894
24 24 12 1.4704 3.4113
25 0 1 17.1509 -8.9317
25 0 3 10.4921 9.9879
25 0 5 -12.5820 -3.4480
25 0 7 24.3385 2.9840
25 0 9 6.1772 6.3365
25 0 11 -10.5304 -7.2094
25 0 13 -21.0804 0.4759
25 0 15 -4.5179 1.2531
25 0 17 5.3971 -1.5233
25 1 2 0.9190 -3.1473
25 1 4 -9.2357 6.7828
25 1 6 6.0996 -2.6316
25 1 8 -5.4737 -1.0523
25 1 10 10.4752 3.6657
25 1 12 -3.9680 -2.7810
25 1 14 -0.6260 0.6561
25 1 16 -4.4618 1.2697
25 2 1 -13.6337 6.2137
25 2 3 0.8481 -3.0518
25 2 5 4.1493 0.2185
25 2 7 4.1930 -2.6884
25 2 9 -17.0924 -0.5570
25 2 11 -6.7996 3.3542
25 2 13 -6.6135 -1.0533
25 2 15 -10.9190 -0.7211
25 2 17 4.5420 0.9970
25 3 2 -7.9755 -1.5190
25 3 4 -2.1521 0.9641
25 3 6 20.1407 -0.9660
25 3 8 -7.2022 -2.6440
25 3 10 -2.3216 -0.2035
25 3 12 -5.0676 0.9519
25 3 14 14.7865 -0.2486
25 3 16 -2.3151 0.2807
25 4 1 21.9671 1.7580
25 4 3 -12.0019 -3.3720
25 4 5 17.5421 1.7021
25 4 7 -3.3549 -1.6180
25 4 9 13.2399 -1.8930
25 4 11 7.7662 0.9630
25 4 13 12.2741 -0.3523
25 4 15 -12.3304 0.5400
25 4 17 2.1143 0.9913
25 5 2 -7.8639 4.3104
25 5 4 6.9372 -1.6781
25 5 6 -9.4975 0.0428
25 5 8 -3.4107 0.3534
25 5 10 14.7686 -1.2479
25 5 12 5.2410 -0.1384
25 5 14 -1.9159 0.0281
25 5 16 8.3611 -0.3075
25 6 1 -27.5461 3.8007
25 6 3 12.8506 0.9430
25 6 5 -4.6875 -0.1875
25 6 7 -6.1583 0.8368
25 6 9 -6.6812 -1.3855
25 6 11 7.0966 -2.0161
25 6 13 2.3060 1.2992
25 6 15 4.4004 0.1560
25 6 17 -9.1502 0.7913
25 7 2 9.6197 -1.4285
25 7 4 -1.2971 -1.0544
25 7 6 10.7252 -0.5168
25 7 8 8.0524 0.3134
25 7 10 -5.5415 0.2310
25 7 12 -15.2218 -0.8654
25 7 14 -13.3044 0.7608
25 7 16 -13.2155 0.4004
25 8 1 7.5966 -0.4810
25 8 3 -8.9880 -0.0885
25 8 5 9.8818 -0.7806
25 8 7 27.5979 -0.5862
25 8 9 4.8067 0.5717
25 8 11 1.6741 1.5762
25 8 13 -0.6643 -0.0452
25 8 15 3.6752 -0.6186
25 8 17 -16.3433 -0.5281
25 9 2 6.1082 0.6680
25 9 4 -1.7141 2.4442
25 9 6 0.2460 -0.5612
25 9 8 -24.1847 -0.6824
25 9 10 8.1955 0.7123
25 9 12 -15.5916 -0.6147
25 9 14 -5.8247 -0.2910
25 9 16 -9.0432 0.0936
25 10 1 -11.5740 2.8750
25 10 3 -3.7383 -1.1092
25 10 5 6.9309 0.5276
25 10 7 -8.3815 -0.0809
25 10 9 -10.2626 -0.0070
25 10 11 -3.1248 0.6327
25 10 13 5.2519 -0.0800
25 10 15 -10.5569 -0.4693
25 11 2 -3.1385 -0.7789
25 11 4 5.1427 -1.6792
25 11 6 -1.3541 1.1068
25 11 8 -10.0783 0.5066
25 11 10 -7.6692 0.5224
25 11 12 3.1597 0.1042
25 11 14 -6.9642 -0.5341
25 11 16 -3.5366 0.2239
25 12 1 6.0840 -1.9643
25 12 3 -1.5711 -1.6905
25 12 5 8.2458 0.1854
25 12 7 -8.9371 -0.1028
25 12 9 -5.4585 0.2324
25 12 11 7.9437 0.3884
25 12 13 -4.2201 0.6584
25 12 15 -6.4009 -0.7986
25 13 2 2.5930 0.9389
25 13 4 2.5170 -0.2318
25 13 6 -9.2010 0.1682
25 13 8 -9.7020 1.0906
25 13 10 7.6852 0.7309
25 13 12 6.9086 -0.9654
25 13 14 0.7845 -0.6597
25 13 16 -2.1344 1.1368
25 14 1 -11.3677 -0.6779
25 14 3 10.3762 -0.4188
25 14 5 2.6452 0.1008
25 14 7 2.4950 0.9990
25 14 9 6.8035 -0.3715
25 14 11 -7.3949 -0.4859
25 14 13 -11.1410 0.4891
25 14 15 9.4040 -0.3668
25 15 2 -16.6093 -1.4388
25 15 4 -4.6732 -2.5115
25 15 6 -2.1150 0.4664
25 15 8 -1.1579 0.5375
25 15 10 0.7167 0.5056
25 15 12 8.7696 0.3782
25 15 14 -2.1013 0.2373
25 15 16 -19.1885 0.1970
25 16 1 6.4062 -3.6021
25 16 3 1.6979 -0.8798
25 16 5 4.2656 0.6265
25 16 7 -0.0725 -0.8661
25 16 9 13.5217 0.8956
25 16 11 -21.2164 -0.1139
25 16 13 -15.3608 -0.1139
25 16 15 0.4661 0.0267
25 17 2 -3.6113 -0.4168
25 17 4 2.0302 -2.3367
25 17 6 -20.9894 -0.4308
25 17 8 5.8552 1.7832
25 17 10 -0.0809 1.5140
25 17 12 -6.5719 -1.0438
25 17 14 -4.7990 -0.5873
25 18 1 -8.7598 -0.3149
25 18 3 4.4744 1.5220
25 18 5 -13.9045 0.6607
25 18 7 -1.9162 -0.2336
25 18 9 10.3698 -0.1274
25 18 11 6.0913 -1.7976
25 18 13 -0.5257 1.7413
25 18 15 -6.0682 -0.0209
25 19 2 -17.9717 1.9263
25 19 4 1.9595 -1.0436
25 19 6 -3.1153 0.0010
25 19 8 8.6231 0.6573
25 19 10 0.8182 0.2944
25 19 12 -5.1171 -1.1969
25 19 14 -17.6072 0.2429
25 20 1 -7.5923 -3.4947
25 20 3 5.1270 -0.0136
25 20 5 -17.2143 2.8470
25 20 7 11.6574 1.4444
25 20 9 -4.2009 -1.9294
25 20 11 -4.2867 -1.2512
25 20 13 9.4032 0.5684
25 20 15 -3.9269 -0.1821
25 21 2 -6.9431 1.9416
25 21 4 -0.8744 -1.4474
25 21 6 -1.6253 0.9469
25 21 8 -4.4084 2.3541
25 21 10 -3.8038 -1.9262
25 21 12 -2.1950 -2.8790
25 21 14 -14.6158 0.1004
25 22 1 -0.2131 -0.0554
25 22 3 2.2915 -0.3718
25 22 5 -6.6705 0.4858
25 22 7 -9.6385 -0.3981
25 22 9 -17.0553 0.0840
25 22 11 0.9170 0.0153
25 22 13 7.9532 -0.5387
25 23 2 7.0505 2.5934
25 23 4 4.0029 -2.3835
25 23 6 8.3264 0.0003
25 23 8 4.3740 -0.1523
25 23 10 18.5392 -1.7118
25 23 12 0.6080 0.5024
25 23 14 3.9206 0.8576
25 24 1 0.9396 1.3088
25 24 3 -0.5955 1.9172
25 24 5 -10.9797 -5.4043
25 24 7 -13.7595 -2.6738
25 24 9 2.6623 3.1980
25 24 11 1.2220 1.5709
25 24 13 17.4168 0.4541
25 25 2 4.6260 -1.7810
25 25 6 -18.5362 -1.5467
25 25 10 2.1758 2.1803
26 0 0 24.3272 -19.1993
26 0 2 7.1496 13.7034
26 0 4 0.1886 17.3247
26 0 6 5.7816 -17.4994
26 0 8 -8.5192 10.9643
26 0 10 -21.6555 6.4609
26 0 12 6.5748 -11.1333
26 0 14 -0.2375 1.0474
26 0 16 7.1048 3.8903
26 1 1 -10.3088 -10.9467
26 1 3 -30.1672 1.5217
26 1 5 -6.6969 9.9865
26 1 7 7.1137 -7.9066
26 1 9 -14.7424 2.2350
26 1 11 2.4882 3.9123
26 1 13 4.4502 -3.2805
26 1 15 2.6592 0.3781
26 1 17 2.3607 1.0035
26 2 0 -4.5296 11.5558
26 2 2 1.3143 -0.7539
26 2 4 5.5131 -2.5998
26 2 6 -3.6804 -1.7442
26 2 8 2.4442 -3.3558
26 2 10 1.5174 2.0899
26 2 12 7.1457 2.1230
26 2 14 -10.3976 -0.9542
26 2 16 1.2954 -0.6538
26 3 1 2.5490 -4.6659
26 3 3 8.2705 -1.0016
26 3 5 -1.5010 2.2124
26 3 7 8.6670 -3.3827
26 3 9 -8.0928 -2.5284
26 3 11 14.3633 2.0643
26 3 13 -1.9454 0.7903
26 3 15 3.1155 -1.2933
26 3 17 2.3304 -0.1586
26 4 0 0.2299 -11.0615
26 4 2 4.8061 -5.5950
26 4 4 0.8887 -2.5389
26 4 6 -7.7102 2.2968
26 4 8 -8.2398 -2.0006
26 4 10 7.4251 -1.2942
26 4 12 -0.8365 1.1442
26 4 14 4.8113 0.1693
26 4 16 3.2412 0.3285
26 5 1 -11.7944 5.4586
26 5 3 -8.0361 0.9722
26 5 5 20.0944 -1.2092
26 5 7 13.7781 1.6842
26 5 9 -10.4867 0.1737
26 5 11 1.4547 -0.8806
26 5 13 14.1258 0.6925
26 5 15 13.7219 0.6738
26 6 0 16.3677 0.1008
26 6 2 6.6224 4.0272
26 6 4 -6.1755 0.8718
26 6 6 -4.5230 0.2320
26 6 8 4.3074 -0.1040
26 6 10 -10.8311 -2.4245
26 6 12 -7.4072 0.1017
26 6 14 -3.6397 1.6014
26 6 16 0.6633 -0.5771
26 7 1 13.8493 -0.9240
26 7 3 2.6739 -3.1279
26 7 5 -7.0047 -2.0234
26 7 7 9.2882 0.6594
26 7 9 -0.7576 1.4113
26 7 11 18.7544 -1.4999
26 7 13 4.0728 -0.4104
26 7 15 -0.6736 -0.1311
26 8 0 37.3976 5.0457
26 8 2 -0.1086 2.3201
26 8 4 -20.5607 -0.5729
26 8 6 -2.9325 -1.0374
26 8 8 -8.3826 -1.0021
26 8 10 -10.8999 1.5837
26 8 12 -1.2665 0.8406
26 8 14 -0.8712 -1.2409
26 8 16 15.9282 -1.0741
26 9 1 -8.9965 -3.3257
26 9 3 -15.6656 1.0269
26 9 5 7.1148 1.8263
26 9 7 6.5621 -0.5482
26 9 9 -4.8249 -1.1045
26 9 11 0.9082 -1.0829
26 9 13 -7.9703 0.6732
26 9 15 3.1683 -0.1085
26 10 0 12.5505 -7.1644
26 10 2 -9.0718 -2.0756
26 10 4 -16.4187 0.4944
26 10 6 -3.4909 -1.0710
26 10 8 15.7550 1.2839
26 10 10 6.2603 2.1970
26 10 12 -12.2763 -0.6463
26 10 14 2.5119 -0.0949
26 10 16 -8.7299 0.6272
26 11 1 5.9793 7.0789
26 11 3 -1.6670 2.4132
26 11 5 1.8968 0.6785
26 11 7 0.4376 -0.0338
26 11 9 3.7571 0.2262
26 11 11 5.2456 0.7369
26 11 13 -5.4987 0.2494
26 11 15 -2.3427 -0.1452
26 12 0 -5.4475 7.8607
26 12 2 -1.5238 0.2574
26 12 4 9.1177 1.4393
26 12 6 1.8566 1.1655
26 12 8 -10.2504 0.4999
26 12 10 9.0047 -1.0721
26 12 12 2.0004 -0.7752
26 12 14 9.6115 -0.1419
26 12 16 3.2716 -1.8927
26 13 1 -3.7548 -1.6230
26 13 3 -3.6442 -3.3967
26 13 5 -0.9637 0.7469
26 13 7 -5.2634 -2.3546
26 13 9 4.0346 0.7129
26 13 11 3.5131 0.4194
26 13 13 17.7553 0.0604
26 13 15 -5.6597 0.5785
26 14 0 7.7104 -5.0166
26 14 2 -6.2948 0.4633
26 14 4 -0.0354 -0.7592
26 14 6 1.2879 2.9108
26 14 8 -1.0661 -0.5090
26 14 10 -8.3524 -0.8923
26 14 12 -6.0220 1.3199
26 14 14 -1.9526 0.3390
26 14 16 -13.3567 2.1887
26 15 1 0.4535 2.3568
26 15 3 -1.8048 0.2557
26 15 5 -8.3755 -0.5761
26 15 7 -0.4982 1.8332
26 15 9 4.2971 -0.2609
26 15 11 -2.8640 -1.3148
26 15 13 6.6524 0.8513
26 15 15 1.3114 0.1340
26 16 0 -3.1008 3.3091
26 16 2 -12.8451 -2.4988
26 16 4 9.3493 -2.1163
26 16 6 -2.7009 0.4135
26 16 8 -1.1436 -0.5419
26 16 10 -15.4388 0.7493
26 16 12 24.3433 -0.0577
26 16 14 15.6665 -0.8122
26 17 1 4.4500 3.0654
26 17 3 -6.8943 0.0964
26 17 5 -4.4428 -2.2359
26 17 7 2.5132 -0.2743
26 17 9 -7.7428 0.2341
26 17 11 0.6047 -0.3526
26 17 13 0.0144 0.8718
26 17 15 2.1949 0.6878
26 18 0 5.4639 2.6871
26 18 2 -11.1008 1.4381
26 18 4 5.1956 1.6847
26 18 6 0.8394 -1.9960
26 18 8 4.5123 0.2111
26 18 10 0.1466 1.4798
26 18 12 -2.4351 -0.6158
26 18 14 -7.5846 0.3258
26 19 1 -1.3490 -1.0418
26 19 3 -5.9390 -1.6148
26 19 5 -4.2119 1.1576
26 19 7 -1.4165 -1.6296
26 19 9 -11.7518 -0.1882
26 19 11 5.4579 0.4063
26 19 13 -9.3517 -0.6748
26 19 15 12.0338 -0.0602
26 20 0 1.6926 -3.8687
26 20 2 -2.4105 -1.4248
26 20 4 -2.5078 0.7725
26 20 6 2.4976 1.7830
26 20 8 -5.0833 -1.7164
26 20 10 -6.6439 -1.1272
26 20 12 -0.6499 0.6161
26 20 14 14.8643 0.9025
26 21 1 -0.4107 1.9455
26 21 3 -13.8926 1.4686
26 21 5 5.5894 1.4785
26 21 7 14.6034 1.1767
26 21 9 -10.5991 0.6571
26 21 11 12.9747 -2.6584
26 21 13 17.3817 -1.4205
26 22 0 0.1701 8.0589
26 22 2 -1.0758 -1.5987
26 22 4 0.3741 -1.2931
26 22 6 -2.3555 3.3709
26 22 8 2.7543 -0.9225
26 22 10 13.3512 -1.1230
26 22 12 -4.4848 -0.2802
26 22 14 5.9612 -0.4453
26 23 1 -3.0702 0.9839
26 23 3 -1.7147 -2.6359
26 23 5 -5.2141 -3.1397
26 23 7 12.1650 2.3803
26 23 9 13.9203 0.3975
26 23 11 -5.0791 -2.0194
26 23 13 7.0714 0.3768
26 24 0 0.3978 -2.0629
26 24 2 3.7158 2.8632
26 24 4 3.6329 -0.0441
26 24 6 1.2815 -4.4074
26 24 8 14.8988 0.3009
26 24 10 -0.8536 2.8281
26 24 12 0.7082 -0.6268
26 25 1 5.3021 0.3798
26 25 3 -4.4576 1.6600
26 25 5 1.1965 0.3035
26 25 7 0.3592 -1.6827
26 25 9 -1.0169 -0.4457
26 25 11 1.8918 0.8293
26 25 13 2.1511 1.0815
26 26 0 3.5942 5.4070
26 26 4 -10.9059 -3.9372
26 26 8 8.5151 -2.5263
26 26 12 -0.4366 3.2337
27 0 1 5.6381 3.3276
27 0 3 -13.8206 -11.0239
27 0 5 -7.8853 8.3876
27 0 7 5.6869 7.0264
27 0 9 2.8325 -5.0916
27 0 11 -1.7831 0.9875
27 0 13 -0.2640 0.1731
27 0 15 10.4442 -2.4195
27 1 2 2.7382 3.7334
27 1 4 -2.4242 -4.5599
27 1 6 5.4376 -0.3109
27 1 8 -0.1718 2.1984
27 1 10 -5.3633 -1.1787
27 1 12 -2.1706 1.1531
27 1 14 -6.2107 0.9510
27 1 16 -4.0774 -0.9533
27 2 1 -2.0460 1.9103
27 2 3 -0.0065 -0.2438
27 2 5 8.9620 -1.2194
27 2 7 0.8908 -2.2930
27 2 9 1.5074 0.1405
27 2 11 1.5992 0.9056
27 2 13 11.2226 0.5005
27 2 15 4.3839 0.4041
27 3 2 -12.6017 2.3135
27 3 4 -8.9868 -2.3448
27 3 6 -6.7408 0.2077
27 3 8 6.3009 1.8575
27 3 10 -5.6853 -0.2059
27 3 12 -6.1911 0.4173
27 3 14 -5.8468 0.9126
27 3 16 4.8285 -0.8207
27 4 1 -0.4556 3.0377
27 4 3 7.1350 3.6948
27 4 5 2.2219 -1.6212
27 4 7 -7.4497 -3.1251
27 4 9 13.1714 1.5171
27 4 11 -3.7568 0.1031
27 4 13 10.5668 -0.4641
27 4 15 -7.8115 0.2813
27 5 2 7.3252 -1.5573
27 5 4 8.9958 1.3855
27 5 6 -5.0230 -0.2409
27 5 8 13.1292 -1.0723
27 5 10 -3.7657 0.7368
27 5 12 9.9382 -0.9513
27 5 14 -9.0878 -0.0949
27 5 16 16.5774 0.3769
27 6 1 -3.4726 -0.8580
27 6 3 2.3666 -0.7089
27 6 5 10.0644 -0.4570
27 6 7 -7.6341 -1.2759
27 6 9 -14.8494 0.2098
27 6 11 6.8769 0.4569
27 6 13 3.6985 -0.3337
27 6 15 5.7781 0.4808
27 7 2 2.0207 -0.8958
27 7 4 6.7225 -0.1362
27 7 6 -10.4860 0.8003
27 7 8 -0.4522 -0.4537
27 7 10 5.2300 -0.3437
27 7 12 -3.8074 -0.2880
27 7 14 11.0643 -0.2031
27 7 16 5.4254 -0.7531
27 8 1 -5.0908 3.6589
27 8 3 5.4735 -1.6703
27 8 5 7.4703 0.5162
27 8 7 -1.8863 0.6392
27 8 9 11.3876 -1.3954
27 8 11 6.8055 -0.1092
27 8 13 -1.5659 1.0039
27 8 15 5.2509 -0.7742
27 9 2 18.1698 -0.0538
27 9 4 -4.2497 -1.4409
27 9 6 -8.6563 0.4830
27 9 8 3.0059 -0.6627
27 9 10 -8.7117 -0.7920
27 9 12 -5.8272 0.0058
27 9 14 3.7144 1.0539
27 9 16 -6.5968 0.8433
27 10 1 -5.7774 0.8610
27 10 3 1.3478 0.5531
27 10 5 -14.2970 -1.0350
27 10 7 1.7353 -0.0060
27 10 9 2.4417 1.1711
27 10 11 2.1966 0.1722
27 10 13 -3.1891 -0.3903
27 10 15 0.3734 -1.3798
27 11 2 -3.0381 1.4296
27 11 4 -3.3232 0.9148
27 11 6 12.0014 0.1223
27 11 8 7.1999 0.0096
27 11 10 -5.0492 -0.3029
27 11 12 11.0271 -0.8106
27 11 14 -0.2654 0.0095
27 11 16 -16.1408 -0.5368
27 12 1 -4.2873 0.1573
27 12 3 3.3336 1.1086
27 12 5 2.9076 0.0660
27 12 7 -0.3894 0.2574
27 12 9 -6.8270 0.6184
27 12 11 5.1996 -0.2309
27 12 13 -16.1204 -0.3535
27 12 15 -15.8269 0.2724
27 13 2 1.2995 -1.0892
27 13 4 -0.7492 0.5501
27 13 6 8.0458 0.5560
27 13 8 0.6949 -1.1325
27 13 10 4.4435 0.0011
27 13 12 -6.5143 0.9776
27 13 14 0.9178 1.2544
27 14 1 -5.6001 -0.7226
27 14 3 3.1782 -0.1885
27 14 5 5.6940 1.0865
27 14 7 -5.0266 0.3935
27 14 9 -2.5073 0.8302
27 14 11 1.6039 0.0254
27 14 13 3.5059 -0.7330
27 14 15 -2.6103 -0.5937
27 15 2 5.4941 -0.5229
27 15 4 8.9601 1.4334
27 15 6 -3.2524 0.4055
27 15 8 -2.5257 -2.0271
27 15 10 -0.6219 -0.7852
27 15 12 -1.9599 1.0143
27 15 14 14.8855 0.7923
27 16 1 6.9770 -0.7984
27 16 3 -13.1015 -0.5444
27 16 5 -3.3348 1.1823
27 16 7 1.0398 1.1269
27 16 9 7.6103 -0.2773
27 16 11 -1.8762 -1.4051
27 16 13 11.6648 0.5451
27 16 15 1.3233 -0.4732
27 17 2 0.7340 0.7452
27 17 4 4.6696 -1.6516
27 17 6 10.0868 0.0999
27 17 8 25.3342 -0.9464
27 17 10 -11.2172 0.1710
27 17 12 14.0143 0.3078
27 17 14 8.1399 0.1163
27 18 1 6.6185 -1.1439
27 18 3 -0.1078 0.4590
27 18 5 2.0073 -0.7405
27 18 7 11.6952 -1.7309
27 18 9 -8.9120 0.8362
27 18 11 11.0266 1.5528
27 18 13 0.3104 1.1094
27 18 15 18.5707 -1.1078
27 19 2 2.8920 0.4934
27 19 4 5.2864 -1.0052
27 19 6 -4.4700 -0.3012
27 19 8 4.4140 0.0227
27 19 10 19.5718 -0.4464
27 19 12 3.7509 -0.5311
27 19 14 10.7968 1.1064
27 20 1 -2.4416 -1.3459
27 20 3 1.0723 2.2352
27 20 5 3.7391 0.2405
27 20 7 -5.8727 0.4388
27 20 9 -5.8168 0.1679
27 20 11 11.0993 -0.3667
27 20 13 14.6444 0.3959
27 21 2 2.1071 2.1569
27 21 4 -8.7243 0.8955
27 21 6 -15.9092 -0.1530
27 21 8 -8.6331 -0.2812
27 21 10 -6.2341 -1.4353
27 21 12 -1.3603 -0.8085
27 21 14 0.6330 1.2259
27 22 1 6.3361 -3.9892
27 22 3 -2.3213 -1.1318
27 22 5 3.7411 2.6680
27 22 7 1.8826 1.1882
27 22 9 -3.7697 -1.2638
27 22 11 11.3847 -0.5791
27 22 13 3.9678 -0.5924
27 23 2 2.0949 0.5805
27 23 4 17.5777 -1.3280
27 23 6 5.7813 1.7703
27 23 8 -9.5739 1.7748
27 23 10 -13.2011 -0.0881
27 23 12 -10.7023 -1.2386
27 24 1 -3.7648 0.3172
27 24 3 5.7217 0.1163
27 24 5 0.6103 -0.0030
27 24 7 4.2813 -0.0256
27 24 9 -6.4043 -0.3717
27 24 11 4.6101 0.9783
27 24 13 1.0462 -0.3875
27 25 2 -3.3022 1.9119
27 25 4 11.0335 -1.2701
27 25 6 9.9100 -0.4031
27 25 8 -1.1095 -0.1249
27 25 10 -0.1974 -1.0858
27 25 12 2.9831 0.7646
27 26 1 1.7609 4.2442
27 26 3 2.2716 1.7437
27 26 5 6.2828 -5.2706
27 26 7 5.2034 -2.5109
27 26 9 0.3055 0.6905
27 26 11 0.9798 2.3616
27 27 2 6.1527 -1.5652
27 27 6 6.3274 -0.4064
27 27 10 3.4863 0.9262
28 0 0 -10.0814 12.0262
28 0 2 -12.8124 -17.7612
28 0 4 -9.0225 -11.0095
28 0 6 5.3989 23.1515
28 0 8 15.7365 -7.8997
28 0 10 8.9743 -6.3836
28 0 12 0.6820 6.9527
28 0 14 9.4241 -3.2735
28 0 16 10.7671 -1.5554
28 1 1 8.1907 11.9167
28 1 3 -3.4266 -4.1634
28 1 5 -4.2276 -10.7214
28 1 7 8.4692 9.1964
28 1 9 -3.9828 -0.9715
28 1 11 -4.8343 -3.0702
28 1 13 11.6314 3.2787
28 1 15 7.5360 -1.0846
28 2 0 0.0245 -14.3552
28 2 2 -7.6701 0.9458
28 2 4 3.3733 0.1708
28 2 6 4.5222 -2.2469
28 2 8 -11.1714 1.9333
28 2 10 -17.3643 -0.2470
28 2 12 3.1355 -0.3747
28 2 14 -6.6710 1.1625
28 2 16 9.3679 -0.3351
28 3 1 -1.1890 2.4815
28 3 3 -15.8472 1.5095
28 3 5 4.4798 -1.7602
28 3 7 12.4202 2.5285
28 3 9 -7.9402 2.6600
28 3 11 0.7657 -1.0889
28 3 13 3.8920 1.3648
28 3 15 -5.8984 0.5901
28 4 0 -11.3379 8.7762
28 4 2 -12.7508 8.3432
28 4 4 16.1931 1.5826
28 4 6 -2.0308 -6.3654
28 4 8 13.6029 -0.3553
28 4 10 3.5632 1.9133
28 4 12 5.9147 -0.3278
28 4 14 -4.2900 0.4553
28 4 16 1.0651 0.4382
28 5 1 4.0417 -8.7745
28 5 3 12.4734 -0.3419
28 5 5 -10.8750 2.2019
28 5 7 -11.3015 -2.6376
28 5 9 -2.2328 0.7036
28 5 11 -12.2196 -0.1093
28 5 13 -11.2278 -1.0676
28 5 15 -5.6434 -0.5048
28 6 0 -9.2531 -3.3913
28 6 2 2.5154 -4.4728
28 6 4 5.9484 -0.0072
28 6 6 -8.1368 1.5350
28 6 8 5.1896 -1.8082
28 6 10 -1.1181 1.8136
28 6 12 -2.6637 -0.5703
28 6 14 11.2062 -0.3678
28 6 16 1.9081 0.2364
28 7 1 -8.8574 1.3353
28 7 3 -2.0726 -0.2643
28 7 5 8.3889 1.5019
28 7 7 -2.2889 1.1339
28 7 9 1.2451 -1.2568
28 7 11 -11.9409 -0.1739
28 7 13 16.0996 1.0865
28 7 15 -7.1648 -1.0093
28 8 0 -16.3855 -1.9781
28 8 2 5.9156 -0.8565
28 8 4 11.0754 -1.3225
28 8 6 -0.2704 0.1955
28 8 8 3.5637 1.0188
28 8 10 21.2427 -1.0027
28 8 12 17.7419 -0.0741
28 8 14 3.8511 0.8207
28 8 16 -2.5125 0.4397
28 9 1 -1.5244 3.3771
28 9 3 16.5753 -1.0000
28 9 5 6.5522 -0.0658
28 9 7 -7.0881 -0.0377
28 9 9 3.2163 -0.5145
28 9 11 -2.8564 -0.1698
28 9 13 18.3325 0.5101
28 9 15 2.3790 -0.6415
28 10 0 11.5858 6.2569
28 10 2 -2.3238 3.3486
28 10 4 -3.5038 0.1015
28 10 6 3.4580 0.0599
28 10 8 3.2363 0.2864
28 10 10 -2.5199 -0.5245
28 10 12 -0.0774 -0.4551
28 10 14 -3.6181 -0.5908
28 11 1 -6.1526 -4.7351
28 11 3 -1.3027 0.0715
28 11 5 -0.9841 0.2664
28 11 7 6.1162 -1.7352
28 11 9 6.2978 0.3597
28 11 11 1.2781 -1.5773
28 11 13 -3.7591 0.1603
28 11 15 -2.5569 1.4808
28 12 0 -7.3755 -4.7680
28 12 2 -4.0599 0.2970
28 12 4 -10.5465 0.4935
28 12 6 -11.0507 0.4112
28 12 8 12.5064 0.0913
28 12 10 -4.5601 1.4001
28 12 12 8.8223 -0.3274
28 12 14 12.5329 0.0289
28 13 1 3.2470 3.0422
28 13 3 9.1323 3.0619
28 13 5 -5.4056 0.8116
28 13 7 -6.3724 0.9266
28 13 9 0.2830 -0.9163
28 13 11 -9.8116 -0.7532
28 13 13 -3.0659 2.1772
28 13 15 1.5491 -0.9128
28 14 0 8.1546 4.0732
28 14 2 5.4403 -0.3245
28 14 4 15.1355 0.9836
28 14 6 3.6142 0.1193
28 14 8 -9.2177 0.5691
28 14 10 3.0528 0.5493
28 14 12 3.1379 -1.8393
28 14 14 -0.8227 -0.5019
28 15 1 8.0816 -1.0199
28 15 3 -4.9463 -0.7853
28 15 5 -0.5486 1.6411
28 15 7 -6.6632 -1.7967
28 15 9 2.5208 -2.3324
28 15 11 -2.8745 1.1906
28 15 13 -9.6262 1.7757
28 15 15 -5.9876 1.2424
28 16 0 -0.5555 -2.0399
28 16 2 -6.1330 1.4514
28 16 4 -2.8480 1.0380
28 16 6 2.2907 0.7662
28 16 8 -0.1939 0.7116
28 16 10 2.9109 -0.6568
28 16 12 -2.3957 -0.4431
28 16 14 -9.4075 0.1915
28 17 1 4.9360 -0.7226
28 17 3 10.9433 0.0577
28 17 5 8.5617 1.4075
28 17 7 4.7670 -2.4279
28 17 9 -11.2668 -0.8630
28 17 11 -10.1427 0.7347
28 17 13 -0.2484 -0.1522
28 18 0 -11.6400 -1.3769
28 18 2 11.7869 -1.3317
28 18 4 2.6045 -1.9491
28 18 6 1.5656 0.3048
28 18 8 -3.9545 -1.5070
28 18 10 -4.0787 1.1639
28 18 12 -16.8774 1.5473
28 18 14 -12.7050 -0.3453
28 19 1 3.7611 2.0427
28 19 3 -11.3005 1.3909
28 19 5 -12.8835 -0.6516
28 19 7 4.0226 0.2702
28 19 9 2.8262 -0.7280
28 19 11 -6.4020 -1.0197
28 19 13 -10.5313 1.0732
28 20 0 4.7833 5.0607
28 20 2 2.3573 2.9284
28 20 4 -0.3474 0.1597
28 20 6 3.8488 -1.8719
28 20 8 14.8812 -0.2386
28 20 10 -3.1574 1.2871
28 20 12 4.2392 0.2680
28 20 14 -4.5768 -1.1285
28 21 1 -0.3365 -4.4392
28 21 3 0.4072 -0.2084
28 21 5 6.6825 0.2699
28 21 7 6.3728 -0.1795
28 21 9 -4.9354 -0.6023
28 21 11 -2.6229 -0.0363
28 21 13 -2.6244 0.6365
28 22 0 -3.3538 -4.7668
28 22 2 -1.3573 -2.6572
28 22 4 10.9441 0.9181
28 22 6 3.7525 0.0970
28 22 8 3.5574 -0.3403
28 22 10 5.4113 -0.0669
28 22 12 -1.6215 -0.8348
28 23 1 0.1484 1.7689
28 23 3 -4.5140 0.8090
28 23 5 8.5956 0.3581
28 23 7 -0.3872 0.9161
28 23 9 -9.7495 0.8486
28 23 11 -1.3619 -0.1336
28 23 13 -14.7675 -1.2647
28 24 0 -2.7215 5.1809
28 24 2 4.8739 -1.6305
28 24 4 2.2415 0.5158
28 24 6 -7.0456 3.0732
28 24 8 -0.5640 -0.0928
28 24 10 10.8075 -0.5865
28 24 12 -13.1843 -0.0682
28 25 1 9.3158 -0.1196
28 25 3 -9.5924 -1.7618
28 25 5 -1.9710 -1.5980
28 25 7 -6.6771 1.6428
28 25 9 8.4571 0.4972
28 25 11 5.2543 -0.1399
28 26 0 -8.8732 -1.5607
28 26 2 -3.1245 2.5219
28 26 4 4.3792 0.8783
28 26 6 13.8410 -2.2457
28 26 8 2.5081 -0.3248
28 26 10 4.7039 1.2447
28 26 12 -9.5602 -0.3106
28 27 1 12.1751 -0.1899
28 27 3 -9.3050 0.4297
28 27 5 -7.5625 -1.4963
28 27 7 -1.8068 0.5216
28 27 9 12.1748 0.7878
28 27 11 6.2412 0.4106
28 28 0 1.3364 2.7540
28 28 4 -2.9175 -1.1487
28 28 8 10.1759 -1.7554
29 0 1 -6.0311 -5.4004
29 0 3 -1.3499 6.9294
29 0 5 8.7348 2.2064
29 0 7 -1.3837 -6.0765
29 0 9 5.4877 6.1530
29 0 11 27.2771 0.5938
29 0 13 1.4711 -6.2243
29 0 15 0.2796 2.5308
29 1 2 -4.6124 -2.9787
29 1 4 11.3871 -2.1898
29 1 6 9.6219 3.3127
29 1 8 -0.1667 -1.4378
29 1 10 -5.8178 0.3746
29 1 12 -6.4162 2.3210
29 1 14 7.7817 -2.3492
29 1 16 -11.9532 -1.0358
29 2 1 10.9063 0.7299
29 2 3 -6.6327 2.1324
29 2 5 -2.6554 -1.6750
29 2 7 5.6276 -0.2580
29 2 9 -4.9477 2.0410
29 2 11 -4.3833 -1.1664
29 2 13 -8.2432 0.5740
29 2 15 -11.8119 -0.4136
29 3 2 29.2564 0.1105
29 3 4 -1.7857 4.8538
29 3 6 -3.3361 0.1684
29 3 8 -7.3730 -3.7168
29 3 10 -2.1362 2.1715
29 3 12 -0.6731 0.9644
29 3 14 1.8603 -0.4360
29 3 16 -6.7812 0.1735
29 4 1 7.1868 2.1234
29 4 3 0.8044 -2.2230
29 4 5 -9.5407 -1.1881
29 4 7 -8.6113 -0.2432
29 4 9 -3.8906 -1.2135
29 4 11 4.4365 0.9332
29 4 13 -4.6866 1.7911
29 4 15 5.4596 -0.5029
29 5 2 -7.5624 -1.3381
29 5 4 -0.2418 -0.0396
29 5 6 -2.0058 -0.0535
29 5 8 2.7427 1.2988
29 5 10 10.7842 0.6853
29 5 12 3.0099 -1.0790
29 5 14 -14.9511 0.0373
29 5 16 1.6199 -0.9857
29 6 1 -3.4107 -0.0436
29 6 3 6.0959 -1.1640
29 6 5 -8.0468 2.9034
29 6 7 12.7793 0.8766
29 6 9 -6.4708 -1.0267
29 6 11 -6.4290 0.3675
29 6 13 -15.7949 0.0427
29 6 15 -4.7156 0.4175
29 7 2 11.1024 2.3960
29 7 4 -5.3378 -3.3467
29 7 6 -12.6138 0.8853
29 7 8 -8.1709 2.2567
29 7 10 15.6362 -1.8429
29 7 12 10.7200 -0.7253
29 7 14 -3.2963 0.5570
29 8 1 2.9301 0.0612
29 8 3 0.2077 1.0721
29 8 5 9.8607 -2.7624
29 8 7 1.4460 -2.0172
29 8 9 -14.7323 2.1474
29 8 11 3.4979 -0.6620
29 8 13 -17.1594 0.1196
29 8 15 -2.7009 -0.8075
29 9 2 -13.6699 -0.8986
29 9 4 4.5019 -0.2181
29 9 6 12.4600 1.2636
29 9 8 -3.6371 -0.6328
29 9 10 -7.0929 -1.0029
29 9 12 -11.3330 -0.2572
29 9 14 -0.6263 0.1601
29 10 1 10.0853 -1.5602
29 10 3 -7.6734 1.0657
29 10 5 -2.3560 -1.5959
29 10 7 -5.1465 -0.1767
29 10 9 -7.9403 0.8945
29 10 11 -7.0433 -0.8125
29 10 13 -7.3774 -0.6875
29 10 15 -10.3323 0.1449
29 11 2 1.1536 -0.4792
29 11 4 -5.4157 3.1499
29 11 6 0.7005 -1.4151
29 11 8 -1.3783 -3.0268
29 11 10 -8.6732 0.9673
29 11 12 -6.3712 1.0155
29 11 14 7.3336 0.2705
29 12 1 -0.8697 2.0205
29 12 3 5.2390 -1.0332
29 12 5 10.6604 1.8482
29 12 7 6.4737 0.8913
29 12 9 0.0360 -0.6306
29 12 11 0.1774 -0.5689
29 12 13 4.1222 -0.0377
29 12 15 4.1888 -0.1388
29 13 2 -7.0591 -0.7456
29 13 4 0.9405 0.0175
29 13 6 14.7903 0.6989
29 13 8 1.5453 -0.0705
29 13 10 2.3894 -0.3831
29 13 12 -0.7323 -0.1074
29 13 14 -6.8431 0.2481
29 14 1 -3.9208 0.7343
29 14 3 -1.3830 0.4715
29 14 5 -19.7400 0.4177
29 14 7 -2.6034 0.2360
29 14 9 3.3152 -0.0995
29 14 11 0.7373 -0.6559
29 14 13 -1.0441 0.2048
29 14 15 -1.3823 0.2254
29 15 2 6.1543 0.6760
29 15 4 -2.1582 0.3202
29 15 6 -2.2659 1.5334
29 15 8 4.8114 -0.2321
29 15 10 9.8032 -1.0423
29 15 12 5.9403 0.6079
29 15 14 -17.1464 0.8221
29 16 1 0.4374 0.5759
29 16 3 4.8959 0.8117
29 16 5 3.0320 -1.2900
29 16 7 -4.3876 -0.4472
29 16 9 -19.2882 1.0777
29 16 11 9.9511 0.3885
29 16 13 -6.0471 -0.0636
29 17 2 10.2507 -0.9792
29 17 4 -9.1006 2.1819
29 17 6 -16.7635 -0.4041
29 17 8 -8.8565 -2.3564
29 17 10 -6.6448 -0.0011
29 17 12 5.4424 0.9570
29 17 14 1.5774 -0.0807
29 18 1 3.7736 -0.3635
29 18 3 3.2859 0.3777
29 18 5 -11.3903 0.4633
29 18 7 8.2409 0.0557
29 18 9 7.9319 0.8352
29 18 11 1.3933 0.0284
29 18 13 -2.3792 -0.8119
29 19 2 17.9908 0.6626
29 19 4 18.0679 0.0252
29 19 6 -4.2232 -0.0053
29 19 8 -5.1099 -1.5185
29 19 10 -1.4734 0.4497
29 19 12 2.7910 1.3024
29 19 14 16.8139 0.0462
29 20 1 -4.0528 -0.3962
29 20 3 4.8299 0.1576
29 20 5 -8.6384 -0.8762
29 20 7 -13.9923 -1.2781
29 20 9 5.8489 0.3848
29 20 11 -5.4937 0.6254
29 20 13 3.3844 0.4165
29 21 2 -1.5976 -0.3982
29 21 4 -5.1651 -0.9772
29 21 6 -0.4651 0.4300
29 21 8 4.5770 -0.0686
29 21 10 -13.5974 1.2473
29 21 12 22.1235 0.2897
29 22 1 3.5989 -0.6927
29 22 3 -1.2151 1.1728
29 22 5 -3.9264 0.2536
29 22 7 2.5315 1.4704
29 22 9 8.0947 -0.9633
29 22 11 -1.5507 -0.0815
29 22 13 -14.6036 0.2397
29 23 2 1.0944 1.0651
29 23 4 6.0620 0.2165
29 23 6 -0.3853 0.3463
29 23 8 -2.1240 0.6315
29 23 10 2.5012 -0.4808
29 23 12 5.1348 -0.3861
29 24 1 2.6803 -1.9777
29 24 3 0.4124 -0.7652
29 24 5 9.3520 1.3950
29 24 7 -6.2472 1.5789
29 24 9 3.8864 -1.1169
29 24 11 -6.0888 0.0938
29 25 2 3.2563 0.1356
29 25 4 -11.7939 -1.3816
29 25 6 -22.3750 0.5440
29 25 8 2.1686 1.8061
29 25 10 -8.9390 0.1908
29 25 12 5.4010 -0.2730
29 26 1 0.9312 -0.4560
29 26 3 -3.6353 1.1761
29 26 5 -3.6244 0.6684
29 26 7 -6.2112 -0.2810
29 26 9 1.7468 0.0687
29 26 11 4.6333 -0.5157
29 27 2 -7.1144 1.5537
29 27 4 5.3868 0.3881
29 27 6 -7.6549 -0.4158
29 27 8 1.2334 -0.4840
29 27 10 -12.1869 0.4028
29 28 1 1.3404 3.5257
29 28 3 11.8712 1.1112
29 28 5 -0.7401 -2.3875
29 28 7 1.3001 -0.7786
29 28 9 -4.5908 -1.0240
29 28 11 0.7608 0.9179
29 29 2 -3.1337 -0.3830
29 29 6 13.3148 0.1176
29 29 10 -5.8235 -0.2930
30 0 0 14.2141 -13.4061
30 0 2 9.4143 9.9626
30 0 4 -8.8828 9.1836
30 0 6 -10.7262 -13.8936
30 0 8 9.0938 8.5478
30 0 10 -1.2117 5.2120
30 0 12 -8.1042 -6.9170
30 0 14 -5.3174 1.4331
30 1 1 1.0513 -6.1099
30 1 3 -7.6356 1.3827
30 1 5 -3.6374 6.9966
30 1 7 -5.1147 -5.6272
30 1 9 14.2436 1.1681
30 1 11 1.8925 2.6577
30 1 13 3.7636 -2.3086
30 1 15 2.8305 -0.7529
30 2 0 -17.9522 10.3265
30 2 2 -7.4751 1.0927
30 2 4 -1.5920 0.0181
30 2 6 -7.1511 0.5655
30 2 8 1.9897 -1.4667
30 2 10 3.3510 0.0917
30 2 12 -5.1098 -0.8568
30 2 14 8.8313 -0.4473
30 3 1 4.8347 -3.2773
30 3 3 1.8826 -0.9938
30 3 5 12.8637 2.4266
30 3 7 0.0954 -2.1800
30 3 9 7.8857 -1.4290
30 3 11 -10.7305 1.5694
30 3 13 7.1638 -0.5412
30 3 15 -14.3773 -0.8468
30 4 0 8.6753 -5.5693
30 4 2 2.9806 -5.0438
30 4 4 -4.0754 -3.4390
30 4 6 5.6168 3.1384
30 4 8 9.8400 -1.8390
30 4 10 8.7162 -0.1288
30 4 12 -6.2570 2.7906
30 4 14 1.4679 0.6466
30 5 1 -5.6528 3.4868
30 5 3 2.6871 1.4706
30 5 5 -7.4056 0.0034
30 5 7 -15.8691 2.3935
30 5 9 4.3718 0.3376
30 5 11 -2.0583 -0.5171
30 5 13 -4.2435 0.5312
30 5 15 1.7247 -0.2069
30 6 0 -19.6271 1.8256
30 6 2 -9.4621 2.3059
30 6 4 3.0991 0.5432
30 6 6 -9.6638 -0.0642
30 6 8 2.7567 1.3986
30 6 10 12.3367 -0.6652
30 6 12 11.6640 -0.2777
30 6 14 2.5311 0.6284
30 7 1 3.6459 -2.1392
30 7 3 -2.2950 -0.2366
30 7 5 -13.8003 -1.2974
30 7 7 8.1453 0.1339
30 7 9 1.7706 1.5392
30 7 11 2.1265 -1.6337
30 7 13 -10.4039 0.0926
30 7 15 1.7866 -0.0826
30 8 0 14.8330 2.6030
30 8 2 3.6279 -0.0577
30 8 4 -14.4001 0.5098
30 8 6 4.2087 -0.5031
30 8 8 7.6991 -0.3346
30 8 10 -8.9428 0.9136
30 8 12 -0.6119 -0.8750
30 8 14 3.5828 -0.1256
30 9 1 -1.4627 -2.0408
30 9 3 -9.7229 -0.8755
30 9 5 -14.3772 -0.8753
30 9 7 -2.5094 0.2323
30 9 9 -0.5072 -0.0918
30 9 11 -0.8118 -0.8831
30 9 13 -9.3162 0.7026
30 9 15 -5.0606 0.3934
30 10 0 2.5091 -2.7489
30 10 2 0.5507 -2.2851
30 10 4 1.1859 -1.1443
30 10 6 1.6758 -0.9134
30 10 8 -4.5519 -0.3060
30 10 10 4.7371 1.2691
30 10 12 -11.5297 -0.5204
30 10 14 -4.8890 -0.2813
30 11 1 1.0102 2.5322
30 11 3 1.6778 2.7424
30 11 5 0.6691 1.5570
30 11 7 7.6313 -0.8551
30 11 9 4.5150 -1.5766
30 11 11 0.3478 1.0916
30 11 13 -4.9614 0.4581
30 11 15 -3.2930 -2.4721
30 12 0 1.0357 4.1960
30 12 2 19.3707 1.0402
30 12 4 -4.8438 0.0104
30 12 6 3.8686 -0.2937
30 12 8 15.3198 0.4070
30 12 10 8.1962 -1.3277
30 12 12 -1.1155 -1.1748
30 12 14 -1.6733 1.2813
30 13 1 1.1350 -3.2272
30 13 3 0.0145 -1.0357
30 13 5 0.9709 -0.5637
30 13 7 -1.6172 -1.1945
30 13 9 1.1373 0.5567
30 13 11 13.5533 0.2873
30 13 13 -15.8853 -0.4862
30 14 0 0.3907 -2.7578
30 14 2 0.0775 0.9177
30 14 4 5.8206 1.0523
30 14 6 -2.8099 1.1051
30 14 8 -2.6499 -0.1650
30 14 10 -7.6610 -0.1145
30 14 12 -17.0580 0.5965
30 14 14 5.4938 -0.1108
30 15 1 -13.9318 -0.2987
30 15 3 -1.1823 0.6023
30 15 5 5.8921 0.9539
30 15 7 0.9875 0.8121
30 15 9 -2.9242 0.4841
30 15 11 7.4317 -0.8543
30 15 13 2.8330 0.2036
30 16 0 -11.8425 0.1923
30 16 2 -4.9407 0.6528
30 16 4 -9.3914 -0.5859
30 16 6 -1.6700 -0.2629
30 16 8 3.7565 -0.7784
30 16 10 -10.4023 0.7170
30 16 12 23.0641 -0.4222
30 16 14 10.8029 -0.1310
30 17 1 -5.4035 -0.6749
30 17 3 13.6580 0.8833
30 17 5 -2.4493 1.2240
30 17 7 -8.1935 0.5305
30 17 9 14.0103 -1.2282
30 17 11 -1.4497 0.5387
30 17 13 -14.0002 0.4277
30 18 0 -14.2902 1.0551
30 18 2 3.0260 1.0831
30 18 4 10.3335 -0.4261
30 18 6 0.8469 -1.2628
30 18 8 -9.3331 1.2338
30 18 10 5.3349 0.5813
30 18 12 13.1447 -1.3746
30 19 1 -5.6801 -1.1633
30 19 3 3.6617 0.5506
30 19 5 4.0916 0.1707
30 19 7 -1.5754 -1.9018
30 19 9 0.8212 -0.4131
30 19 11 -12.5432 1.6903
30 19 13 -6.3024 -0.1666
30 20 0 8.9098 -4.4715
30 20 2 9.3573 -0.8293
30 20 4 -1.9060 -0.1865
30 20 6 7.0002 -0.7439
30 20 8 -1.1227 0.2361
30 20 10 2.2716 0.3397
30 20 12 2.9914 0.2439
30 21 1 3.2508 0.0334
30 21 3 -3.3446 0.4631
30 21 5 13.9450 -0.0938
30 21 7 -2.0065 -0.5739
30 21 9 13.0972 0.4929
30 21 11 -11.9180 1.0063
30 21 13 1.6136 -0.0085
30 22 0 -5.7829 3.8068
30 22 2 -12.4848 1.4993
30 22 4 -3.8131 -0.1773
30 22 6 -0.0380 -0.3972
30 22 8 -8.0881 -1.0208
30 22 10 -13.3940 -0.7370
30 22 12 -0.1339 0.1004
30 23 1 1.1309 -3.9925
30 23 3 -5.8460 -1.0808
30 23 5 5.0788 0.2691
30 23 7 -0.9442 1.0465
30 23 9 -1.6971 0.4022
30 23 11 3.5490 0.2282
30 24 0 6.7362 -3.5622
30 24 2 -2.5194 -2.4887
30 24 4 -12.0788 0.1907
30 24 6 -1.2565 1.7400
30 24 8 5.5751 0.1489
30 24 10 -5.8158 0.3689
30 24 12 -0.3840 -1.1701
30 25 1 0.5588 2.4217
30 25 3 -8.2690 0.0819
30 25 5 -3.7993 -1.3221
30 25 7 -0.0288 1.4950
30 25 9 -12.4345 0.7354
30 25 11 15.8098 0.3471
30 26 0 -6.4666 1.9541
30 26 2 -4.3455 -0.6666
30 26 4 -5.5717 1.0924
30 26 6 -8.2820 1.9607
30 26 8 -13.0422 0.9363
30 26 10 -12.7063 -0.9879
30 27 1 2.8007 0.4057
30 27 3 -5.7003 0.6805
30 27 5 -12.6649 -0.5725
30 27 7 7.6139 0.0720
30 27 9 -1.1859 -0.0439
30 27 11 1.2563 0.3582
30 28 0 -5.5790 -0.8737
30 28 2 4.5361 0.5776
30 28 4 13.6377 2.0076
30 28 6 -13.9734 -0.7963
30 28 8 7.2837 -0.0763
30 28 10 -12.5976 -1.2074
30 29 1 -4.5642 0.1292
30 29 3 3.7088 0.8122
30 29 5 0.0341 -0.8462
30 29 7 -10.6432 -0.4767
30 29 9 -12.0099 -0.4161
30 30 0 11.7073 0.3590
30 30 4 8.3030 0.7490
30 30 8 0.3554 -1.0313
31 0 1 2.2903 1.7117
31 0 3 -2.9536 -5.9707
31 0 5 -6.4811 -2.8317
31 0 7 -15.0576 10.6397
31 0 9 -0.1283 -3.5460
31 0 11 -32.0263 -4.9135
31 0 13 -8.4927 7.8696
31 0 15 13.7787 -3.8898
31 1 2 -5.9461 2.9719
31 1 4 4.3147 3.3839
31 1 6 -6.6272 -4.7610
31 1 8 -13.8033 1.9117
31 1 10 -3.3026 1.5137
31 1 12 7.7700 -4.5287
31 1 14 1.7592 3.5462
31 2 1 -3.3478 1.8304
31 2 3 -2.7032 -1.9945
31 2 5 6.9655 3.4726
31 2 7 -0.7861 0.8174
31 2 9 -8.6135 -2.1548
31 2 11 -7.6245 0.1580
31 2 13 -6.0719 -0.9647
31 2 15 -7.2614 0.0628
31 3 2 5.7398 1.0583
31 3 4 2.5929 -4.6797
31 3 6 4.3472 -0.6900
31 3 8 -4.4262 2.9548
31 3 10 14.6029 -1.6757
31 3 12 5.1644 -0.6470
31 3 14 -3.2923 0.9135
31 4 1 -8.6730 -1.2922
31 4 3 3.6318 2.0824
31 4 5 2.3613 0.0094
31 4 7 -2.4566 -2.8153
31 4 9 5.2140 2.1577
31 4 11 9.9682 1.6849
31 4 13 14.0960 -0.3461
31 4 15 4.8405 -0.6686
31 5 2 0.0957 3.1330
31 5 4 0.3812 1.2102
31 5 6 -3.6325 2.2460
31 5 8 -6.3360 -1.0789
31 5 10 0.2279 -0.9002
31 5 12 -0.0618 0.6947
31 5 14 9.3410 -1.0714
31 6 1 6.7438 -1.9944
31 6 3 -0.5055 2.4599
31 6 5 11.1337 -3.1603
31 6 7 -19.9018 -0.2642
31 6 9 -35.0741 2.6039
31 6 11 -6.8985 -1.5347
31 6 13 6.8716 0.9211
31 6 15 -7.7783 0.1347
31 7 2 -3.8936 -3.3154
31 7 4 -7.5749 2.6620
31 7 6 1.0648 -0.4241
31 7 8 0.7258 -2.3376
31 7 10 -4.7380 1.9320
31 7 12 8.1322 0.0364
31 7 14 3.1021 -0.0067
31 8 1 1.3804 -3.9065
31 8 3 4.5138 -2.0617
31 8 5 6.7315 2.2614
31 8 7 1.0442 1.7079
31 8 9 8.0178 -1.4034
31 8 11 -3.7353 -0.3093
31 8 13 4.8815 0.0586
31 8 15 16.3235 0.2267
31 9 2 -6.8138 0.7396
31 9 4 -3.9050 -1.7984
31 9 6 -7.4433 -1.2234
31 9 8 -3.8595 1.3979
31 9 10 -5.0542 0.0083
31 9 12 -0.5703 -0.0780
31 9 14 10.0082 -0.1805
31 10 1 4.1183 3.6607
31 10 3 4.5176 -1.7975
31 10 5 2.7200 0.7937
31 10 7 -5.2219 -0.4645
31 10 9 1.8274 -1.1263
31 10 11 -7.9638 0.6232
31 10 13 18.2872 0.8899
31 11 2 -11.5776 1.1172
31 11 4 5.3784 -2.9770
31 11 6 -11.9441 0.4902
31 11 8 4.7920 1.4078
31 11 10 3.1423 -0.9946
31 11 12 12.4455 -0.5459
31 11 14 -0.6685 0.2982
31 12 1 5.0207 -3.1197
31 12 3 6.9224 1.5614
31 12 5 -9.9774 -2.9419
31 12 7 -9.0444 -2.4176
31 12 9 -7.0316 1.2455
31 12 11 1.6375 -1.2158
31 12 13 5.9137 -0.3401
31 13 2 1.2219 1.5853
31 13 4 3.8704 2.3569
31 13 6 0.4583 -1.0400
31 13 8 2.8029 -0.8930
31 13 10 -4.3899 1.1791
31 13 12 -0.0140 -0.2705
31 13 14 -4.1301 -0.3144
31 14 1 -0.0170 1.6891
31 14 3 -0.4893 0.1285
31 14 5 1.4781 0.3708
31 14 7 10.0880 0.7244
31 14 9 0.3217 0.1030
31 14 11 -4.7235 0.1669
31 14 13 2.9993 0.6370
31 15 2 3.7363 -2.9027
31 15 4 -2.1620 0.0458
31 15 6 -1.1204 0.1021
31 15 8 -9.2168 0.1973
31 15 10 -8.5160 0.5677
31 15 12 3.6148 -0.8414
31 15 14 7.4005 -1.3074
31 16 1 7.5363 0.5391
31 16 3 -7.2329 -0.8442
31 16 5 -1.5828 1.4017
31 16 7 -10.0639 0.1498
31 16 9 1.6540 -1.1169
31 16 11 4.4386 0.0639
31 16 13 -1.1364 0.1368
31 17 2 -1.8835 0.2633
31 17 4 -4.3326 -0.3010
31 17 6 10.5461 2.0052
31 17 8 7.5577 1.0240
31 17 10 6.8258 0.1869
31 17 12 -3.3512 0.4134
31 18 1 7.4700 1.4678
31 18 3 -5.6608 -1.1666
31 18 5 -6.0872 -2.0794
31 18 7 4.0233 0.4673
31 18 9 -5.0501 0.5076
31 18 11 4.8987 -0.2906
31 18 13 -11.9883 -0.5380
31 19 2 -13.9626 0.6529
31 19 4 -4.6106 -0.0304
31 19 6 17.0644 -0.2855
31 19 8 -8.9396 -0.3839
31 19 10 6.0476 1.6221
31 19 12 -3.4864 0.1104
31 20 1 -5.9770 0.6904
31 20 3 -10.3170 0.9435
31 20 5 -9.3014 0.1228
31 20 7 2.9640 0.9157
31 20 9 -7.1428 0.4632
31 20 11 1.1262 0.3929
31 20 13 7.8134 0.1187
31 21 2 4.3477 0.2861
31 21 4 -19.8252 0.0945
31 21 6 -1.8447 -0.8736
31 21 8 4.2681 -0.7906
31 21 10 -0.7626 0.4943
31 21 12 8.2324 0.7483
31 22 1 -6.4900 -0.4090
31 22 3 -0.6499 0.0523
31 22 5 1.5201 -0.3549
31 22 7 3.4049 -0.6541
31 22 9 5.9179 -0.4349
31 22 11 0.5657 -0.4862
31 23 2 -1.4596 -0.2677
31 23 4 0.0943 -1.2185
31 23 6 -0.3451 0.7539
31 23 8 13.8227 0.1842
31 23 10 -2.8506 0.6280
31 23 12 -11.7120 1.9228
31 24 1 -0.6490 -1.8402
31 24 3 4.9185 -0.6631
31 24 5 6.7870 0.3442
31 24 7 -5.0674 1.4902
31 24 9 -2.7133 -0.3181
31 24 11 0.2981 -1.5596
31 25 2 -3.6358 0.3058
31 25 4 -0.6108 -0.0194
31 25 6 1.9560 0.8752
31 25 8 8.8965 -0.1461
31 25 10 7.3664 0.8281
31 26 1 -1.8365 -0.3755
31 26 3 9.0261 -0.1344
31 26 5 5.7319 0.7021
31 26 7 1.1327 1.7301
31 26 9 0.9482 -1.3350
31 26 11 3.8332 0.4465
31 27 2 -6.7833 -0.4243
31 27 4 10.3414 -0.7380
31 27 6 1.3921 -0.5328
31 27 8 -0.6146 0.3900
31 27 10 -2.1629 -0.3484
31 28 1 3.2085 -0.4019
31 28 3 -7.3724 0.5011
31 28 5 -0.3891 0.9045
31 28 7 9.3876 -0.0026
31 28 9 -15.1328 -0.8905
31 29 2 4.0885 2.4183
31 29 4 17.4435 2.3630
31 29 6 -3.0349 -0.0714
31 29 8 3.3908 -1.6248
31 30 1 -0.4114 0.6151
31 30 3 -10.0232 -0.9530
31 30 5 -1.2486 -0.2072
31 30 7 3.1677 0.7258
31 30 9 -5.2480 -1.2749
31 31 2 -5.0529 1.7338
31 31 6 12.8282 -0.0935
32 0 0 1.6236 6.2354
32 0 2 2.5697 -4.5957
32 0 4 1.8401 -7.3778
32 0 6 6.0259 8.0741
32 0 8 23.2851 -1.3886
32 0 10 2.2135 -3.6249
32 0 12 -10.0835 3.3152
32 0 14 14.9481 -0.1559
32 1 1 -13.8100 2.5700
32 1 3 1.9382 -0.7419
32 1 5 12.0184 -3.6940
32 1 7 11.4772 1.9761
32 1 9 10.4178 -0.3841
32 1 11 3.1853 -2.0437
32 1 13 -6.9697 0.7145
32 1 15 -1.9848 0.6948
32 2 0 4.2877 -5.0845
32 2 2 8.8378 -0.4663
32 2 4 -11.9635 -0.7035
32 2 6 -8.1158 1.6811
32 2 8 12.6044 0.8721
32 2 10 0.6607 -1.1541
32 2 12 -2.1396 -0.2871
32 2 14 9.8347 -0.0521
32 3 1 -3.6772 1.7605
32 3 3 -4.9495 1.7063
32 3 5 -4.5761 -1.3578
32 3 7 -16.5097 1.1665
32 3 9 11.5816 0.5036
32 3 11 5.1157 -1.3986
32 3 13 -3.1483 0.1064
32 3 15 12.2892 0.3017
32 4 0 -14.0735 5.8547
32 4 2 -3.5716 2.5751
32 4 4 7.1813 1.9435
32 4 6 -9.2692 -2.1742
32 4 8 -2.0701 -0.2216
32 4 10 12.3855 1.2614
32 4 12 -1.2791 -0.4089
32 4 14 -4.7890 0.0676
32 5 1 -7.7112 -3.5225
32 5 3 2.8086 0.2198
32 5 5 4.9144 1.0215
32 5 7 0.7168 -1.2955
32 5 9 16.6134 -0.0619
32 5 11 -8.9184 -0.0630
32 5 13 -14.0156 -0.2502
32 5 15 0.8383 -0.2078
32 6 0 5.8940 -0.4530
32 6 2 0.0330 -1.3949
32 6 4 -6.6472 0.5667
32 6 6 6.9747 0.3860
32 6 8 7.0899 0.2329
32 6 10 12.0392 0.8467
32 6 12 1.4977 -0.1537
32 6 14 2.5551 -0.2278
32 7 1 0.5711 -0.2485
32 7 3 -4.1969 0.4557
32 7 5 -0.9645 0.9698
32 7 7 2.8053 -0.5464
32 7 9 23.3736 -0.3023
32 7 11 2.5696 1.2380
32 7 13 12.9280 0.2985
32 8 0 -20.7329 -1.6497
32 8 2 0.4617 -2.8110
32 8 4 12.3034 -0.6798
32 8 6 11.1651 2.1015
32 8 8 10.7551 -0.0666
32 8 10 -5.0392 -0.2818
32 8 12 -6.2256 -0.0798
32 8 14 -11.7937 0.0719
32 9 1 6.5598 2.0062
32 9 3 0.1425 0.4545
32 9 5 7.1045 -1.9060
32 9 7 5.4531 0.6475
32 9 9 3.3520 0.7919
32 9 11 3.9414 0.3291
32 9 13 7.7295 0.1190
32 10 0 2.3541 4.4272
32 10 2 -5.2876 0.7866
32 10 4 -8.9918 -0.0278
32 10 6 -7.8910 -0.4831
32 10 8 -4.8454 0.0991
32 10 10 1.7681 -0.5612
32 10 12 -4.5826 0.3875
32 10 14 -0.9461 0.4751
32 11 1 3.9972 -0.7062
32 11 3 -7.2930 -1.6159
32 11 5 4.8025 -2.7617
32 11 7 -15.0659 0.0138
32 11 9 -3.4543 0.4177
32 11 11 -0.5288 -0.1235
32 11 13 17.5710 -0.5447
32 12 0 -14.8146 -2.5987
32 12 2 -11.0206 -0.8092
32 12 4 8.5202 -0.1639
32 12 6 1.4190 -0.4166
32 12 8 -5.6212 -1.4883
32 12 10 -1.2350 0.3231
32 12 12 -1.2571 0.2649
32 12 14 10.0570 0.0498
32 13 1 -0.3236 -0.0531
32 13 3 -2.5361 1.9380
32 13 5 -2.2026 0.8424
32 13 7 -3.4733 0.0821
32 13 9 -2.6126 0.9298
32 13 11 -6.0544 0.2156
32 13 13 1.8162 -1.3152
32 14 0 3.4128 1.9638
32 14 2 -5.1614 0.6188
32 14 4 6.8322 -0.6885
32 14 6 6.9221 -0.7397
32 14 8 -8.0868 -0.6552
32 14 10 0.3752 0.2942
32 14 12 -16.7203 0.4355
32 15 1 -17.2030 -0.8228
32 15 3 3.4496 -0.9036
32 15 5 -3.5092 -1.5685
32 15 7 3.9913 1.2644
32 15 9 2.9567 0.5528
32 15 11 0.4752 -0.5452
32 15 13 17.1445 -1.2166
32 16 0 -13.0242 -1.5718
32 16 2 -2.9549 -0.8570
32 16 4 -4.6013 0.7437
32 16 6 9.8408 0.6852
32 16 8 18.3631 0.4140
32 16 10 8.3658 -0.3767
32 16 12 -12.9331 -0.4391
32 17 1 -3.0505 0.5354
32 17 3 -4.8290 -0.3582
32 17 5 12.4133 0.1960
32 17 7 9.9155 0.6585
32 17 9 5.9461 0.5319
32 17 11 -1.8263 0.0389
32 17 13 -0.6896 -0.8635
32 18 0 -6.4716 -2.2883
32 18 2 3.1310 0.9762
32 18 4 7.0347 -0.0351
32 18 6 -1.5263 -0.3792
32 18 8 -4.4966 1.1051
32 18 10 8.1289 -0.3871
32 18 12 -6.7367 -0.8367
32 19 1 0.9215 0.3623
32 19 3 -3.6964 -0.2108
32 19 5 15.9865 1.0284
32 19 7 -11.3877 0.2419
32 19 9 -0.5295 1.4324
32 19 11 16.5406 0.6900
32 20 0 21.4681 0.7374
32 20 2 -22.2179 0.0524
32 20 4 -16.4540 -1.1589
32 20 6 2.4800 -0.0078
32 20 8 11.9838 0.1178
32 20 10 -5.9720 0.3079
32 20 12 -19.4813 -0.6844
32 21 1 -8.7485 -0.3931
32 21 3 -0.8994 0.2102
32 21 5 -1.7158 -1.1943
32 21 7 -1.4383 -0.5385
32 21 9 -1.8891 -1.0522
32 21 11 11.7495 0.6983
32 22 0 4.0885 -3.8137
32 22 2 -2.8485 -0.1406
32 22 4 6.6569 -0.2356
32 22 6 23.4785 -0.1243
32 22 8 -8.2384 0.0393
32 22 10 -2.6770 -0.3130
32 22 12 -1.9281 -0.2998
32 23 1 0.4976 0.2331
32 23 3 13.1278 1.1575
32 23 5 -4.5450 -0.2922
32 23 7 -17.2668 0.0544
32 23 9 -3.6392 -0.2815
32 23 11 -3.5465 0.4752
32 24 0 2.4359 0.7205
32 24 2 0.3297 -0.0440
32 24 4 11.4498 -0.1499
32 24 6 -1.1955 -0.2254
32 24 8 7.6298 0.3271
32 24 10 13.2389 -1.0600
32 25 1 10.8326 -1.2332
32 25 3 11.6325 -1.0427
32 25 5 -10.6487 0.4878
32 25 7 -9.2276 0.1057
32 25 9 4.5277 0.4433
32 26 0 7.3494 -2.3010
32 26 2 8.2135 -1.7453
32 26 4 -7.0773 0.1934
32 26 6 1.3627 0.9653
32 26 8 0.0647 0.1518
32 26 10 2.8792 -0.1027
32 27 1 -0.9410 1.4257
32 27 3 3.3721 -0.4222
32 27 5 3.6302 -0.5889
32 27 7 9.2887 0.0255
32 27 9 6.6777 -0.0372
32 28 0 -5.7159 0.1356
32 28 2 7.0163 -0.4832
32 28 4 -5.4928 0.4871
32 28 6 9.3478 1.0524
32 28 8 -3.1498 -0.2430
32 29 1 -2.5997 0.6819
32 29 3 4.6537 1.1521
32 29 5 8.0478 0.9291
32 29 7 -2.4565 -0.3139
32 29 9 5.5528 -1.8916
32 30 0 -0.5829 -0.3982
32 30 2 12.4180 -0.5491
32 30 4 6.7677 0.5278
32 30 6 4.5887 0.0789
32 30 8 0.6257 0.4902
32 31 1 -5.5095 -0.0209
32 31 3 -11.3759 1.4882
32 31 5 -26.4378 -0.6566
32 31 7 5.9536 -1.1875
32 32 0 -1.9798 -0.4415
32 32 4 -4.0153 1.1833
33 0 1 11.2155 -3.2173
33 0 3 -2.4870 5.4094
33 0 5 -4.6322 3.2596
33 0 7 9.6552 -10.2112
33 0 9 9.1039 6.0470
33 0 11 9.1517 5.4162
33 0 13 -2.5783 -8.5776
33 1 2 1.1662 -3.7336
33 1 4 -1.9118 -2.3793
33 1 6 -5.0643 4.4605
33 1 8 2.6913 -4.0500
33 1 10 -2.0236 -2.3698
33 1 12 -7.7691 4.5733
33 1 14 8.7477 -3.2574
33 2 1 5.9913 -3.2554
33 2 3 7.7676 3.3878
33 2 5 8.0316 -1.6711
33 2 7 -7.8887 0.6709
33 2 9 -20.7255 2.2445
33 2 11 7.0131 -2.9790
33 2 13 -6.8263 0.7696
33 3 2 -10.4081 -0.8157
33 3 4 -7.7107 4.9182
33 3 6 9.6529 0.9946
33 3 8 0.5570 -3.5292
33 3 10 -17.6252 1.8626
33 3 12 -1.4184 -0.2910
33 3 14 0.1017 0.2403
33 4 1 10.8943 1.0974
33 4 3 -4.4509 -2.1684
33 4 5 2.3642 -1.5088
33 4 7 1.9894 3.0071
33 4 9 6.5505 -2.0370
33 4 11 12.0942 -1.0793
33 4 13 -8.2766 2.7154
33 5 2 9.5160 -1.7230
33 5 4 -5.5262 0.6102
33 5 6 -2.4954 -2.5468
33 5 8 -6.7866 -0.4338
33 5 10 6.6500 1.0634
33 5 12 -3.8273 -0.8750
33 5 14 -5.0648 -0.0480
33 6 1 -8.3710 -1.2090
33 6 3 4.6458 -1.2322
33 6 5 9.3480 4.5945
33 6 7 -3.1535 0.6399
33 6 9 -9.2449 -1.5617
33 6 11 -5.9187 1.4693
33 6 13 -6.8707 -0.9452
33 7 2 -2.4042 3.0901
33 7 4 1.8970 -2.4992
33 7 6 33.7744 0.4646
33 7 8 -8.2509 2.6451
33 7 10 -14.1842 -1.6699
33 7 12 2.1478 0.6251
33 7 14 -15.8091 0.6028
33 8 1 2.6696 0.6346
33 8 3 -6.4309 2.3431
33 8 5 3.1702 -0.7497
33 8 7 -3.0447 -0.7991
33 8 9 11.1302 1.9165
33 8 11 14.0923 -0.5957
33 8 13 1.5333 -0.6875
33 9 2 10.4113 0.2003
33 9 4 0.7916 -1.6031
33 9 6 4.3295 0.3987
33 9 8 -0.1598 -0.3845
33 9 10 2.4457 0.7468
33 9 12 -8.3981 0.7169
33 9 14 -8.1019 0.2270
33 10 1 9.2328 -6.4079
33 10 3 -4.5971 0.9672
33 10 5 -2.1199 -1.6937
33 10 7 -0.7819 -1.3953
33 10 9 -7.7078 1.1149
33 10 11 4.4562 -0.4070
33 10 13 10.5646 0.2143
33 11 2 -11.0830 0.2524
33 11 4 -2.1559 1.8257
33 11 6 9.5025 -1.2610
33 11 8 -0.0524 -1.1278
33 11 10 -1.7045 2.0814
33 11 12 15.1290 -0.2840
33 11 14 2.8355 -1.6237
33 12 1 6.1903 3.8631
33 12 3 -4.9454 -0.8184
33 12 5 -7.8728 1.9405
33 12 7 7.8027 1.2426
33 12 9 1.7821 -2.1153
33 12 11 -5.1938 0.7378
33 12 13 -8.7095 1.2449
33 13 2 5.0150 -1.3923
33 13 4 3.7729 -2.5926
33 13 6 0.9254 -0.6990
33 13 8 -3.2363 1.4556
33 13 10 -0.8211 -0.4159
33 13 12 -15.0409 -1.3142
33 14 1 -0.7889 -0.9681
33 14 3 14.2967 -1.5583
33 14 5 -0.3271 -0.6254
33 14 7 -8.8019 -1.3964
33 14 9 -6.8553 -1.0054
33 14 11 2.2148 0.1774
33 14 13 5.0279 0.6558
33 15 2 -5.5061 2.3774
33 15 4 -9.3188 -0.9554
33 15 6 -5.5480 0.1609
33 15 8 -0.9180 2.5767
33 15 10 -0.0807 0.1182
33 15 12 -6.1667 -2.3021
33 16 1 9.6641 1.6003
33 16 3 -0.9841 -0.2170
33 16 5 -1.6557 -0.6976
33 16 7 -1.7332 0.4817
33 16 9 -3.2743 0.3759
33 16 11 -3.0231 0.1799
33 16 13 5.9047 -0.2438
33 17 2 9.9397 -0.1783
33 17 4 6.0374 -0.2803
33 17 6 -3.6136 0.3118
33 17 8 2.9414 -0.2316
33 17 10 0.1689 -0.0267
33 17 12 -6.4226 0.0301
33 18 1 -2.9699 0.1641
33 18 3 -0.1941 0.2914
33 18 5 2.1574 1.1270
33 18 7 -1.9172 1.0805
33 18 9 20.3095 -0.1779
33 18 11 -0.7610 0.5388
33 19 2 -4.4184 -0.5523
33 19 4 2.9248 -0.0513
33 19 6 -13.8436 0.6287
33 19 8 7.6074 0.3474
33 19 10 -5.0594 0.6771
33 19 12 -9.1713 -0.8418
33 20 1 -2.1438 0.6976
33 20 3 6.4095 -1.0348
33 20 5 13.1637 -0.5640
33 20 7 5.7606 1.0700
33 20 9 0.1867 -0.0813
33 20 11 -12.0817 -0.6334
33 21 2 4.6655 1.0346
33 21 4 5.1595 -1.0152
33 21 6 -3.0606 -0.1333
33 21 8 4.1089 -0.1239
33 21 10 10.3707 0.8102
33 22 1 3.3173 0.9165
33 22 3 -2.9123 0.1600
33 22 5 8.3525 -0.4156
33 22 7 -1.6694 -0.2195
33 22 9 -14.2314 -0.2759
33 22 11 9.6646 -0.7826
33 23 2 -4.4721 -0.1260
33 23 4 -2.6829 0.5829
33 23 6 9.5203 -0.2942
33 23 8 -9.4812 -1.3512
33 23 10 9.9547 0.0288
33 24 1 8.3525 1.2776
33 24 3 -4.8471 -0.1848
33 24 5 -14.5407 -0.1620
33 24 7 -4.5173 0.2352
33 24 9 -1.0262 -0.4204
33 25 2 5.6847 -0.1164
33 25 4 -2.8662 -1.1861
33 25 6 -4.3445 0.5501
33 25 8 9.0853 -0.4579
33 25 10 5.5315 -1.2688
33 26 1 -2.9641 -1.7071
33 26 3 -7.9811 -1.3685
33 26 5 -12.9102 -0.5210
33 26 7 -3.0205 0.3924
33 26 9 -11.3867 -0.0569
33 27 2 -0.2922 0.2398
33 27 4 -6.7855 0.3772
33 27 6 3.5613 0.8298
33 27 8 -8.6629 -0.2414
33 28 1 -2.5921 -0.7441
33 28 3 0.1375 0.6713
33 28 5 2.4015 0.1388
33 28 7 6.5759 0.0301
33 29 2 15.5563 -1.0852
33 29 4 -0.9042 -0.0726
33 29 6 11.6597 -0.5197
33 29 8 -2.3302 -0.7083
33 30 1 -11.1199 -0.4219
33 30 3 -10.8816 1.0365
33 30 5 -1.6510 0.4003
33 30 7 -19.6584 -0.4989
33 31 2 -12.5707 -0.2738
33 31 4 3.3087 3.0295
33 31 6 6.1533 -0.0111
33 32 1 2.5518 0.8465
33 32 3 7.9270 -2.3226
33 32 5 -13.6085 0.4838
33 33 2 -3.2328 3.0353
34 0 0 4.3237 -1.0365
34 0 2 11.1924 -0.7101
34 0 4 4.7891 1.4909
34 0 6 -8.7259 -0.3227
34 0 8 -9.7041 -2.5051
34 0 10 -6.0843 4.3887
34 0 12 25.4556 -0.4262
34 0 14 0.9002 -2.2398
34 1 1 -12.4294 0.0796
34 1 3 -9.7188 -0.4162
34 1 5 3.3373 0.6910
34 1 7 6.9850 1.4474
34 1 9 -34.4265 -2.6806
34 1 11 3.7832 1.1161
34 1 13 4.0042 2.0456
34 2 0 -2.4943 2.3605
34 2 2 -2.2805 -0.0410
34 2 4 -9.0856 1.4651
34 2 6 15.9038 0.1692
34 2 8 3.5824 0.5423
34 2 10 -6.1241 -1.1259
34 2 12 15.2241 -1.4377
34 2 14 -0.8530 0.9013
34 3 1 6.1551 -1.6534
34 3 3 5.9348 -0.9200
34 3 5 -7.8884 1.3370
34 3 7 23.5787 -0.9127
34 3 9 -13.9779 -0.5305
34 3 11 -0.2441 -0.1821
34 3 13 13.8838 -1.5338
34 4 0 4.0765 1.9314
34 4 2 14.5321 0.5196
34 4 4 0.0412 -1.9609
34 4 6 11.8781 -0.2263
34 4 8 -10.6019 0.7761
34 4 10 1.4101 -0.2738
34 4 12 -0.3234 0.0924
34 4 14 -6.5699 -0.6893
34 5 1 -3.3710 -0.7877
34 5 3 -1.1051 0.7337
34 5 5 12.4918 0.2843
34 5 7 2.9682 -0.5262
34 5 9 10.8796 0.0855
34 5 11 -3.2962 0.8122
34 5 13 13.9487 0.0939
34 6 0 -1.1108 -0.2542
34 6 2 -5.9052 -1.2748
34 6 4 -14.6911 1.2948
34 6 6 -11.2985 2.3066
34 6 8 1.9689 -0.8422
34 6 10 -29.9033 0.0103
34 6 12 -13.0287 0.3265
34 6 14 9.3682 -0.4086
34 7 1 4.4836 0.5622
34 7 3 32.4205 0.5409
34 7 5 -6.5655 -1.1010
34 7 7 -3.0081 0.7591
34 7 9 17.7143 0.3734
34 7 11 -16.8095 0.5809
34 7 13 7.4058 0.5721
34 8 0 0.1296 2.6824
34 8 2 0.1145 1.5891
34 8 4 0.8310 1.4192
34 8 6 -8.1473 -0.4748
34 8 8 11.9620 0.7034
34 8 10 -7.4888 -0.3767
34 8 12 16.0833 -0.9338
34 9 1 -9.3311 -0.8069
34 9 3 14.8691 -1.1463
34 9 5 9.7739 -0.8480
34 9 7 2.9297 0.0093
34 9 9 -40.2743 0.0257
34 9 11 -4.3211 0.2429
34 9 13 -18.1498 -0.7428
34 10 0 -2.1477 -1.6588
34 10 2 -11.5487 -1.8606
34 10 4 -9.3698 -0.3624
34 10 6 3.8361 0.7714
34 10 8 -0.5709 -0.3432
34 10 10 -1.3770 0.7323
34 10 12 6.5454 0.5690
34 11 1 11.7191 1.1672
34 11 3 9.1349 1.1701
34 11 5 -5.4823 0.4817
34 11 7 -1.1349 0.1228
34 11 9 -3.6683 0.4139
34 11 11 3.8494 1.4986
34 11 13 -8.6851 -0.6988
34 12 0 -7.5101 2.9387
34 12 2 -13.2290 0.7813
34 12 4 12.9821 -0.1538
34 12 6 2.3443 0.5085
34 12 8 9.1259 -0.9058
34 12 10 13.2666 -0.0659
34 12 12 12.1022 0.7351
34 13 1 19.8263 0.2478
34 13 3 -1.1377 -1.3092
34 13 5 5.3521 -2.6528
34 13 7 -2.9900 1.0756
34 13 9 6.2291 -0.8500
34 13 11 -5.9208 -0.4409
34 13 13 -21.8522 0.1736
34 14 0 -0.2362 -2.0264
34 14 2 -11.1925 -1.1372
34 14 4 8.8390 0.2624
34 14 6 -6.2875 -0.1848
34 14 8 -0.7449 -0.6564
34 14 10 12.6075 -0.4181
34 14 12 4.2579 0.1413
34 15 1 -2.6573 -0.0837
34 15 3 1.5320 0.2621
34 15 5 -8.1638 0.1875
34 15 7 2.9810 0.1330
34 15 9 -4.5740 1.4804
34 15 11 -12.4095 -1.0843
34 16 0 6.1163 0.1557
34 16 2 1.5675 1.2924
34 16 4 -1.4950 0.1193
34 16 6 10.4186 -0.4439
34 16 8 -21.7533 0.0485
34 16 10 14.7357 -0.0489
34 16 12 15.3115 -0.0933
34 17 1 17.3971 0.3734
34 17 3 -17.4299 -0.4777
34 17 5 -0.9337 -0.2926
34 17 7 -3.7336 0.1879
34 17 9 -3.0356 0.0008
34 17 11 -0.3712 -0.4594
34 18 0 3.4910 -1.3457
34 18 2 -4.2891 -1.4656
34 18 4 -1.8822 -0.0431
34 18 6 0.7989 1.3641
34 18 8 0.4040 -0.2081
34 18 10 -2.9667 0.2994
34 18 12 4.3215 -0.0764
34 19 1 17.5015 0.7647
34 19 3 -0.4738 -0.0428
34 19 5 0.0789 -0.7261
34 19 7 0.8145 1.1255
34 19 9 -7.6091 -1.0072
34 19 11 -0.8335 -0.5352
34 20 0 13.6175 -2.4948
34 20 2 -7.8632 1.1376
34 20 4 17.4326 0.3762
34 20 6 -14.2853 -0.6677
34 20 8 -0.7394 1.4975
34 20 10 12.8025 0.0120
34 21 1 6.4066 0.6281
34 21 3 -2.4082 0.0805
34 21 5 -15.7171 0.1744
34 21 7 2.0945 0.0332
34 21 9 -2.5851 0.3794
34 21 11 -11.3402 0.6088
34 22 0 -16.5048 -1.0938
34 22 2 14.8264 0.1160
34 22 4 -7.4314 0.3415
34 22 6 -13.5394 -0.8673
34 22 8 4.0446 -0.1177
34 22 10 2.9130 -0.3153
34 23 1 -6.5016 0.1517
34 23 3 7.3587 0.0097
34 23 5 11.8975 0.3382
34 23 7 16.9072 -1.3422
34 23 9 0.2151 -0.5930
34 24 0 -6.6498 -1.6396
34 24 2 17.3240 0.9344
34 24 4 -0.1632 -0.8524
34 24 6 -6.4462 0.3530
34 24 8 5.5792 -1.0220
34 24 10 -10.0488 0.2326
34 25 1 -3.4379 -0.7585
34 25 3 -6.2224 0.8994
34 25 5 14.2064 0.5032
34 25 7 -9.9802 0.2745
34 25 9 -0.2906 -1.7078
34 26 0 -9.2292 -0.9161
34 26 2 -3.6898 0.0489
34 26 4 15.1561 -1.0962
34 26 6 -7.5004 -0.6043
34 26 8 12.5713 0.4408
34 27 1 -7.0618 -0.1661
34 27 3 6.7423 -0.9148
34 27 5 -4.2117 -0.4562
34 27 7 -7.0359 0.4035
34 28 0 2.6810 -1.0416
34 28 2 -8.7976 -0.0945
34 28 4 3.9674 0.6563
34 28 6 12.5108 -1.0999
34 28 8 0.8394 -0.0506
34 29 1 11.0485 -0.1636
34 29 3 -12.2555 -0.6732
34 29 5 -9.2738 -0.0995
34 29 7 -8.0375 -1.0201
34 30 0 -1.9528 -0.6875
34 30 2 -5.0683 0.3367
34 30 4 -0.5159 0.9784
34 30 6 4.6315 0.3728
34 31 1 -9.1086 -0.6713
34 31 3 -3.2404 0.2907
34 31 5 -13.3608 1.4018
34 32 0 -12.2900 0.0997
34 32 2 18.7644 0.1411
34 32 4 -12.6248 -0.0933
34 33 1 -0.6929 0.0791
34 33 3 -10.7530 1.5048
34 34 0 -7.2795 -0.5374
35 0 1 -4.8630 4.7221
35 0 3 -10.2622 -9.4313
35 0 5 13.1532 -1.5555
35 0 7 -9.0146 10.1336
35 0 9 -3.4266 -6.1037
35 0 11 13.9963 -2.8172
35 0 13 -11.7658 8.1115
35 1 2 6.1777 4.6060
35 1 4 -2.6472 0.0658
35 1 6 1.9471 -3.0283
35 1 8 -1.3045 4.4652
35 1 10 6.3462 0.2232
35 1 12 -0.3367 -3.8391
35 2 1 -6.0634 -0.1519
35 2 3 -6.4931 -2.0275
35 2 5 4.0159 3.0887
35 2 7 -5.2778 1.0702
35 2 9 6.1022 -2.5176
35 2 11 -0.3287 -0.2434
35 2 13 1.4556 -1.7883
35 3 2 3.1262 0.5021
35 3 4 6.1954 -4.3397
35 3 6 -7.1343 -1.1086
35 3 8 -4.1010 2.8195
35 3 10 -19.0668 -1.6826
35 3 12 -0.1468 -1.1798
35 4 1 2.3661 -1.3463
35 4 3 2.6088 2.6750
35 4 5 2.5918 -0.5904
35 4 7 4.1293 -2.4569
35 4 9 2.9283 2.5493
35 4 11 -21.8309 0.4938
35 4 13 -0.5861 -0.0570
35 5 2 3.2839 1.0314
35 5 4 -7.1036 0.1525
35 5 6 -8.1518 1.7810
35 5 8 -8.2217 -0.5164
35 5 10 -5.7744 -0.2031
35 5 12 3.3965 1.5222
35 6 1 3.0828 -0.8165
35 6 3 -0.5663 2.2906
35 6 5 -2.5721 -1.9065
35 6 7 3.3042 -0.3606
35 6 9 7.8032 1.1148
35 6 11 -1.5219 -0.9099
35 6 13 9.9887 -0.9433
35 7 2 -2.5631 -2.1158
35 7 4 5.9855 2.7259
35 7 6 -17.1372 0.0844
35 7 8 -10.5364 -3.2675
35 7 10 7.1293 1.4905
35 7 12 15.6766 0.8296
35 8 1 4.6393 -2.9212
35 8 3 -0.4343 -0.0625
35 8 5 -2.8110 2.0295
35 8 7 2.6984 1.8496
35 8 9 2.1281 -1.7730
35 8 11 -19.2730 -0.4178
35 8 13 -12.8436 -0.7721
35 9 2 3.2840 -0.4316
35 9 4 -4.5273 0.2194
35 9 6 -10.7122 -0.7686
35 9 8 4.2674 1.3246
35 9 10 1.1069 0.8381
35 9 12 4.5182 -0.5889
35 10 1 -6.2545 4.2098
35 10 3 -3.6696 -0.6002
35 10 5 -2.4338 1.5700
35 10 7 2.5439 1.2094
35 10 9 -0.8091 -0.4393
35 10 11 3.1136 0.7311
35 10 13 -0.6491 1.5820
35 11 2 1.0636 0.8017
35 11 4 4.7950 -2.4242
35 11 6 -7.1251 0.3886
35 11 8 7.8324 1.1295
35 11 10 -1.6004 -1.1226
35 11 12 6.7682 -0.1548
35 12 1 4.5043 -3.3731
35 12 3 2.4022 -0.1302
35 12 5 -4.5549 -1.5294
35 12 7 5.9903 -2.3786
35 12 9 -7.6501 0.6445
35 12 11 -1.4324 0.3540
35 12 13 6.9218 -1.4660
35 13 2 -1.6478 2.2368
35 13 4 -7.0123 0.3808
35 13 6 11.6671 0.8730
35 13 8 4.2555 0.1732
35 13 10 7.8968 0.2544
35 13 12 -4.3083 -0.5240
35 14 1 -1.5139 1.6262
35 14 3 7.3532 1.6026
35 14 5 -3.0720 -0.0693
35 14 7 2.2698 0.4277
35 14 9 6.0249 0.0265
35 14 11 -11.1100 0.2686
35 15 2 -1.5142 -1.8692
35 15 4 -0.5933 0.2397
35 15 6 19.9070 -0.6402
35 15 8 -3.1534 -1.3156
35 15 10 -11.6523 -0.4936
35 15 12 25.3730 -1.1710
35 16 1 -11.1221 -1.1791
35 16 3 1.3774 -1.2666
35 16 5 -0.6405 0.8606
35 16 7 -0.6910 0.8984
35 16 9 -1.4470 -1.0744
35 16 11 0.5438 -0.1763
35 17 2 -0.7897 0.4161
35 17 4 3.0725 -0.2452
35 17 6 6.1755 -0.6031
35 17 8 8.9149 0.6039
35 17 10 -6.3605 -0.5148
35 17 12 -6.6059 -1.2431
35 18 1 6.2391 1.6609
35 18 3 6.5451 -0.9653
35 18 5 -1.2218 0.3124
35 18 7 10.3153 0.1356
35 18 9 -17.8130 -1.0778
35 18 11 -10.4129 0.3059
35 19 2 4.2132 0.5363
35 19 4 -6.3287 -0.2038
35 19 6 -6.9635 0.9507
35 19 8 -7.8012 0.3157
35 19 10 3.6160 0.0086
35 20 1 14.7525 1.9263
35 20 3 1.8582 0.2463
35 20 5 -8.2360 -0.2256
35 20 7 -2.0693 -0.3671
35 20 9 0.0870 0.1186
35 20 11 -3.7148 0.4880
35 21 2 -8.4435 0.3413
35 21 4 -1.1717 -0.4741
35 21 6 8.9664 -0.1272
35 21 8 7.7442 -0.3716
35 21 10 12.4629 -0.3687
35 22 1 6.3775 0.8104
35 22 3 -0.1985 0.8298
35 22 5 -2.9310 -0.0333
35 22 7 -0.7870 0.2695
35 22 9 9.0436 0.5777
35 23 2 0.2390 0.3004
35 23 4 -4.8083 -0.3386
35 23 6 0.8684 -0.1185
35 23 8 -5.7505 -0.8948
35 23 10 -15.5610 -0.1578
35 24 1 -1.5750 0.2013
35 24 3 1.2659 -0.0072
35 24 5 0.8533 -0.4346
35 24 7 2.7819 -0.8674
35 24 9 10.3860 -0.3110
35 25 2 8.6203 -0.9782
35 25 4 10.6216 0.6463
35 25 6 -8.2595 0.8966
35 25 8 1.3955 -1.0403
35 26 1 -4.3111 1.1825
35 26 3 -7.3850 0.3084
35 26 5 8.6466 -0.7086
35 26 7 -7.9449 -0.1358
35 27 2 -7.4567 -1.2289
35 27 4 -1.6571 0.0599
35 27 6 6.1514 -0.0316
35 27 8 -2.1793 -0.9499
35 28 1 -5.4397 0.9724
35 28 3 -1.2385 -1.3613
35 28 5 7.6923 0.1782
35 28 7 -0.0930 -0.2913
35 29 2 -0.8470 -0.0902
35 29 4 10.3611 -0.5378
35 29 6 3.4960 0.0115
35 30 1 -4.7638 -0.3750
35 30 3 -2.5919 1.5689
35 30 5 -5.2636 0.1017
35 31 2 2.1430 -0.1867
35 31 4 -9.9366 -0.2116
35 32 1 -4.6633 -1.2822
35 32 3 -4.1871 2.0603
36 0 0 3.7687 -2.2893
36 0 2 5.2308 5.7575
36 0 4 0.6459 0.6536
36 0 6 -3.5615 -5.6812
36 0 8 34.9009 6.3113
36 0 10 14.7332 -2.1327
36 0 12 -1.1499 -1.7907
36 1 1 0.0347 -4.6085
36 1 3 -10.7474 2.7475
36 1 5 3.3014 2.9870
36 1 7 -7.3420 -3.7630
36 1 9 -13.1916 3.5627
36 1 11 9.9022 -0.4202
36 1 13 11.2022 -2.7846
36 2 0 -7.4785 3.4912
36 2 2 -5.3702 -1.1918
36 2 4 4.0385 -0.6800
36 2 6 -5.5970 2.8147
36 2 8 -2.5894 -1.9378
36 2 10 -2.1381 -0.0567
36 2 12 6.0998 0.6217
36 3 1 3.1002 -0.5922
36 3 3 -6.1213 -1.1746
36 3 5 6.1509 -1.1532
36 3 7 9.9520 0.8840
36 3 9 15.7349 -0.7215
36 3 11 4.9687 -0.4096
36 3 13 -14.3518 1.4660
36 4 0 -8.3942 -1.0753
36 4 2 -4.3299 -2.2721
36 4 4 13.0526 -0.7795
36 4 6 -14.5201 0.6575
36 4 8 -0.6332 -0.6319
36 4 10 13.6899 0.5797
36 4 12 15.9134 0.0199
36 5 1 2.1583 2.4721
36 5 3 -9.8497 0.2186
36 5 5 -1.1001 -0.7486
36 5 7 -10.2454 1.5218
36 5 9 -20.4322 -0.6657
36 5 11 15.3694 0.3075
36 5 13 -30.2358 -0.5465
36 6 0 11.3296 3.5288
36 6 2 -1.1147 3.0922
36 6 4 -0.7064 0.2414
36 6 6 4.4485 -2.8766
36 6 8 -6.4904 0.7707
36 6 10 1.7226 -0.3560
36 6 12 2.0762 -1.1731
36 7 1 -3.0450 -2.7905
36 7 3 -28.4735 -0.5779
36 7 5 5.3097 1.2687
36 7 7 6.3463 -1.1683
36 7 9 4.7017 0.2430
36 7 11 15.8756 0.4951
36 7 13 -7.0726 -0.6909
36 8 0 -5.2169 -2.0472
36 8 2 -2.6261 -0.7863
36 8 4 13.4112 0.5812
36 8 6 4.8710 1.7616
36 8 8 1.6565 -0.5728
36 8 10 10.4871 0.3984
36 8 12 -1.5232 0.7351
36 9 1 7.3887 0.0147
36 9 3 -13.7542 1.1211
36 9 5 9.3862 0.8697
36 9 7 -11.3196 0.6251
36 9 9 -0.4986 -0.2537
36 9 11 -6.3997 0.9614
36 10 0 2.0203 3.1609
36 10 2 -1.3363 0.2260
36 10 4 -10.1373 0.0246
36 10 6 -4.2400 0.9998
36 10 8 -11.3842 0.2462
36 10 10 -3.1205 -0.8631
36 10 12 -0.4015 -0.6297
36 11 1 -8.2972 0.7885
36 11 3 1.9081 -1.3006
36 11 5 -1.4787 -0.8504
36 11 7 -1.4375 0.9680
36 11 9 24.6713 -1.3516
36 11 11 -0.7958 0.0398
36 12 0 3.2226 -1.4219
36 12 2 0.1789 -0.5037
36 12 4 2.2597 -0.4306
36 12 6 -6.6095 -0.6985
36 12 8 1.3968 0.4556
36 12 10 14.1333 0.5735
36 12 12 3.6398 0.4193
36 13 1 -0.5621 -0.4909
36 13 3 0.5394 0.7047
36 13 5 2.2818 1.5331
36 13 7 2.5419 -0.2134
36 13 9 2.4853 0.5035
36 13 11 10.8908 -0.0143
36 14 0 9.1986 0.8864
36 14 2 7.6948 1.7217
36 14 4 -4.8096 0.3523
36 14 6 7.3745 0.2808
36 14 8 3.0024 -0.9732
36 14 10 -19.5138 0.5140
36 14 12 -14.4034 0.2834
36 15 1 2.9981 -0.5549
36 15 3 -1.3142 -0.0311
36 15 5 -0.8024 -0.4668
36 15 7 -8.2730 -0.3436
36 15 9 -7.4157 -1.3217
36 15 11 16.0229 -0.0241
36 16 0 -1.5122 -1.3212
36 16 2 4.1867 -2.1558
36 16 4 13.0636 -0.3188
36 16 6 -10.4857 0.5701
36 16 8 0.1989 -0.4582
36 16 10 -4.5442 -0.2901
36 17 1 7.9854 0.0108
36 17 3 4.9398 0.4533
36 17 5 0.3086 -0.5717
36 17 7 -10.3983 0.0615
36 17 9 -2.9844 -0.6336
36 17 11 5.6798 -0.8053
36 18 0 -16.0749 -0.4183
36 18 2 2.7025 0.8812
36 18 4 -5.6736 1.1477
36 18 6 -1.1825 -1.1723
36 18 8 11.8017 0.5052
36 18 10 6.9055 -0.3338
36 19 1 -2.3774 -0.1333
36 19 3 0.9695 -0.7035
36 19 5 -7.6222 0.6057
36 19 7 -16.6717 -0.6902
36 19 9 6.0376 -0.4470
36 20 0 -7.1120 -1.8528
36 20 2 -11.7574 -0.1470
36 20 4 11.1294 -0.0712
36 20 6 -9.7868 0.4301
36 20 8 2.6143 -0.8295
36 20 10 -10.0936 0.4349
36 21 1 -10.2803 -0.1819
36 21 3 -16.0584 0.4428
36 21 5 16.3498 0.1598
36 21 7 11.0372 0.7613
36 21 9 -9.0427 -0.2080
36 22 0 -14.0134 -0.7526
36 22 2 0.1787 1.0016
36 22 4 11.5695 -0.2458
36 22 6 -0.5160 -0.4944
36 22 8 -4.5379 0.3152
36 23 1 -9.8283 -0.2167
36 23 3 -2.6497 0.4207
36 23 5 5.1301 -0.2520
36 23 7 -3.2925 0.4630
36 23 9 -3.6666 -0.7694
36 24 0 -6.5629 -1.3710
36 24 2 -4.5301 0.9086
36 24 4 -3.3592 0.7678
36 24 6 13.4323 -0.9335
36 24 8 -7.7735 0.6917
36 25 1 1.9121 -0.3101
36 25 3 -18.3643 0.3063
36 25 5 4.0963 0.2679
36 25 7 -5.1005 -0.7589
36 26 0 0.3693 -0.5620
36 26 2 -5.8994 0.5244
36 26 4 -16.3505 0.0912
36 26 6 8.5303 -0.4022
36 27 1 1.9868 -1.1274
36 27 3 -2.6179 0.1026
36 27 5 -6.3352 1.5468
36 27 7 5.8925 -0.0231
36 28 0 13.4570 -1.1126
36 28 2 7.4662 0.3949
36 28 4 3.8699 -1.2741
36 28 6 -0.8931 -0.1281
36 29 1 -3.4092 0.4809
36 29 3 1.3299 -0.8576
36 29 5 4.8529 -1.5521
36 30 0 3.1336 -0.0892
36 30 2 9.9307 1.3414
36 30 4 -2.6095 1.2927
36 31 1 -0.6869 -0.4909
36 31 3 1.8614 -0.2459
36 32 0 -1.3110 -0.9387
37 0 1 -4.7328 -8.3681
37 0 3 -4.5461 14.5996
37 0 5 -0.3604 -3.0091
37 0 7 1.8345 -8.9082
37 0 9 4.3853 9.1946
37 0 11 -7.4032 0.3712
37 0 13 4.2164 -6.0045
37 1 2 -5.2498 -6.3729
37 1 4 5.3832 4.3667
37 1 6 25.3832 1.3488
37 1 8 -0.1371 -4.4189
37 1 10 6.0666 2.3107
37 1 12 -0.2354 1.8041
37 2 1 1.8217 -1.0092
37 2 3 -2.3685 -0.0927
37 2 5 -0.0543 -0.3202
37 2 7 7.7248 0.1321
37 2 9 -3.0494 0.2014
37 2 11 -24.9387 -0.3277
37 3 2 -5.6414 -1.5064
37 3 4 -2.6237 1.1335
37 3 6 -16.1406 1.5407
37 3 8 -8.7942 -2.0911
37 3 10 8.4617 0.2833
37 3 12 5.3001 -0.0207
37 4 1 -11.5299 0.0865
37 4 3 6.2796 -4.2294
37 4 5 0.3929 -0.1737
37 4 7 -8.7503 2.0360
37 4 9 8.0349 -2.5568
37 4 11 -7.3701 -0.3522
37 5 2 -4.4750 0.5403
37 5 4 -8.3605 -0.4972
37 5 6 10.5255 -1.0394
37 5 8 13.3992 0.7695
37 5 10 -0.1784 -0.2380
37 5 12 0.4489 -0.2377
37 6 1 -9.5118 1.6922
37 6 3 1.9080 -0.0849
37 6 5 -17.1151 -0.6559
37 6 7 -2.4279 -0.1713
37 6 9 -5.3920 -0.3822
37 6 11 -3.0952 0.4011
37 7 2 -1.9835 0.5980
37 7 4 -14.3678 -1.5580
37 7 6 -0.3757 -0.8419
37 7 8 0.5274 1.7843
37 7 10 -0.0552 -0.0170
37 7 12 -2.2299 -0.2600
37 8 1 1.1815 1.2358
37 8 3 5.7607 2.2449
37 8 5 1.4598 0.7141
37 8 7 -6.8080 -1.3667
37 8 9 -7.8342 0.6553
37 8 11 3.8174 0.7458
37 9 2 0.8521 0.2829
37 9 4 -3.2058 1.2965
37 9 6 18.3133 1.4302
37 9 8 3.3255 -1.2611
37 9 10 0.2238 -0.8353
37 9 12 -16.7860 -1.4610
37 10 1 13.8469 -3.2691
37 10 3 0.1437 -0.2713
37 10 5 -16.3251 -1.6581
37 10 7 5.7900 -0.0440
37 10 9 -1.2013 0.4069
37 10 11 -8.9426 -0.6674
37 11 2 -5.2223 -0.2692
37 11 4 -5.9042 1.2202
37 11 6 10.6709 1.1456
37 11 8 -5.7920 -0.3552
37 11 10 2.5565 0.3308
37 11 12 2.4931 2.3276
37 12 1 -5.4471 1.4974
37 12 3 -4.3418 0.6396
37 12 5 -4.4968 -0.1145
37 12 7 -2.6717 1.9317
37 12 9 -1.1820 0.3764
37 12 11 2.2289 -0.1803
37 13 2 -8.5800 -1.7557
37 13 4 -9.6586 1.0113
37 13 6 -1.3766 -0.2251
37 13 8 0.4555 -1.1252
37 13 10 -4.5236 -0.0882
37 14 1 5.6711 -0.1263
37 14 3 -2.1309 -1.3717
37 14 5 -1.5197 0.6924
37 14 7 8.8027 -0.2626
37 14 9 -0.8598 -0.4706
37 14 11 11.9728 0.8514
37 15 2 2.5198 0.8078
37 15 4 -6.5345 -0.1762
37 15 6 -19.0562 0.1144
37 15 8 1.6887 0.6757
37 15 10 10.3979 -0.6166
37 16 1 4.3823 1.2607
37 16 3 -9.7671 -0.0416
37 16 5 -0.8461 -0.4774
37 16 7 -1.1698 -0.8322
37 16 9 -3.4909 0.1453
37 16 11 -2.9252 -0.4649
37 17 2 -0.0130 0.7930
37 17 4 4.8122 0.5791
37 17 6 -5.2336 0.3255
37 17 8 -1.7498 -0.7365
37 17 10 5.6335 -0.2939
37 18 1 29.7055 -0.9620
37 18 3 -10.9537 0.1435
37 18 5 -10.9213 0.1446
37 18 7 -13.2628 -0.4118
37 18 9 -2.7072 -0.3120
37 19 2 -6.0345 0.2972
37 19 4 5.2550 -0.0250
37 19 6 -12.9980 -1.0164
37 19 8 -1.3709 -1.3223
37 19 10 -4.4693 -0.5205
37 20 1 -4.7705 -0.1890
37 20 3 -6.0848 0.4715
37 20 5 -14.8512 0.4480
37 20 7 4.7855 -0.1634
37 20 9 -4.2579 -0.7454
37 21 2 -1.4813 -1.6766
37 21 4 -5.1218 0.5254
37 21 6 -7.9104 0.9110
37 21 8 1.2443 0.6234
37 22 1 -6.4543 2.4402
37 22 3 0.3242 -0.7501
37 22 5 -4.6859 -0.5643
37 22 7 -3.3184 -0.1655
37 22 9 -18.7920 -1.0254
37 23 2 -0.5894 0.2881
37 23 4 -2.5277 -0.9477
37 23 6 -0.5281 0.0333
37 23 8 0.4136 0.8827
37 24 1 -5.4936 1.0427
37 24 3 2.9887 0.6475
37 24 5 1.3087 -0.0315
37 24 7 -15.5600 -0.2731
37 25 2 1.4886 0.5685
37 25 4 6.1584 0.8582
37 25 6 11.3349 -0.0613
37 26 1 15.3200 0.4378
37 26 3 -0.4036 -0.6584
37 26 5 9.3041 0.8742
37 26 7 -8.8960 0.9048
37 27 2 -2.9386 -0.1401
37 27 4 -9.1518 0.2713
37 27 6 -6.5570 0.0356
37 28 1 -8.2314 -0.4842
37 28 3 2.0849 0.4357
37 28 5 -3.6570 0.0128
37 29 2 17.0132 -0.3475
37 29 4 6.5549 -0.3092
37 30 1 11.5173 0.2819
37 30 3 -1.9234 0.1115
38 0 0 -4.4517 5.6286
38 0 2 9.4849 -7.8808
38 0 4 -2.6752 -3.1021
38 0 6 7.0373 9.3318
38 0 8 -7.3115 -6.4626
38 0 10 -35.6552 0.7881
38 0 12 -4.0758 3.1029
38 1 1 0.9138 4.7057
38 1 3 0.8914 -1.3120
38 1 5 -1.4284 -4.5172
38 1 7 -5.9298 5.0002
38 1 9 -11.1548 -2.1530
38 1 11 5.1065 -1.4090
38 2 0 5.7567 -4.9897
38 2 2 -2.7429 0.7501
38 2 4 -3.5766 0.1116
38 2 6 -5.1808 -1.3904
38 2 8 -19.9106 1.7877
38 2 10 6.4987 0.2140
38 2 12 7.8184 -2.4212
38 3 1 -0.4646 1.5879
38 3 3 19.7307 0.4878
38 3 5 6.9951 -0.8677
38 3 7 4.5706 0.8149
38 3 9 0.9001 0.5536
38 3 11 -22.7123 0.0670
38 4 0 6.2156 4.4640
38 4 2 -2.4625 2.4329
38 4 4 -0.1025 -0.0149
38 4 6 -0.8831 -2.0263
38 4 8 -7.3368 -0.1711
38 4 10 15.6619 -0.1148
38 4 12 10.5504 1.1706
38 5 1 2.8307 -2.3100
38 5 3 16.6557 -0.6889
38 5 5 -1.6614 0.7262
38 5 7 -8.8563 -1.4625
38 5 9 16.4131 -0.1493
38 5 11 -15.9098 0.4040
38 6 0 2.1826 -1.3925
38 6 2 8.3116 -1.9042
38 6 4 5.0974 -2.5892
38 6 6 1.7847 -0.3814
38 6 8 -4.8571 -1.0865
38 6 10 11.7129 1.0087
38 6 12 10.6290 1.3854
38 7 1 -1.2468 1.3284
38 7 3 23.4464 0.6801
38 7 5 4.3632 0.1119
38 7 7 -2.1098 0.8980
38 7 9 6.8790 -0.6370
38 7 11 0.5517 -0.9127
38 8 0 1.9335 1.1682
38 8 2 4.9497 1.6616
38 8 4 7.8561 1.3892
38 8 6 1.4115 0.0041
38 8 8 2.8015 0.3759
38 8 10 17.6508 -0.9479
38 8 12 0.0029 -0.9569
38 9 1 -3.8853 -0.6100
38 9 3 13.3736 -1.0335
38 9 5 -10.3736 0.1795
38 9 7 0.8882 -0.3425
38 9 9 7.4898 0.1501
38 9 11 -0.6852 1.1334
38 10 0 -2.2493 -0.1970
38 10 2 9.2759 0.2375
38 10 4 1.0667 -1.1051
38 10 6 3.2038 -1.0304
38 10 8 -6.2895 -0.0651
38 10 10 13.8142 0.0257
38 11 1 -3.5715 -1.4745
38 11 3 -1.7373 0.7957
38 11 5 -13.6354 1.6350
38 11 7 11.0627 0.5891
38 11 9 11.9587 -0.2755
38 11 11 -0.7200 -1.4057
38 12 0 -10.8024 0.8422
38 12 2 8.1867 -0.1765
38 12 4 19.1415 0.0523
38 12 6 12.0129 1.1243
38 12 8 11.0614 0.6417
38 12 10 11.3891 1.1487
38 13 1 -3.5671 1.5876
38 13 3 -0.0919 -0.0637
38 13 5 14.2190 0.0851
38 13 7 4.1758 -0.2918
38 13 9 5.8721 -1.3081
38 13 11 -22.2083 1.1375
38 14 0 -3.0622 -0.8346
38 14 2 -5.2885 -0.7990
38 14 4 0.5986 -0.3048
38 14 6 -3.3567 -0.5741
38 14 8 2.2106 0.5260
38 14 10 -9.8902 -0.0439
38 15 1 -3.2047 -0.9980
38 15 3 -0.2146 -0.2843
38 15 5 -14.5707 0.3014
38 15 7 0.3635 -0.2157
38 15 9 1.8504 0.3917
38 16 0 -3.1392 0.4046
38 16 2 -5.0248 1.1766
38 16 4 8.7411 0.7151
38 16 6 5.4056 -0.8546
38 16 8 2.4279 0.0230
38 16 10 5.8254 0.2749
38 17 1 -3.9892 -0.4814
38 17 3 0.8595 -0.0029
38 17 5 3.2332 0.9062
38 17 7 0.8398 -0.9296
38 17 9 -5.1918 -0.3790
38 18 0 -8.4260 -1.6667
38 18 2 12.8496 -1.4586
38 18 4 -3.2965 -0.9409
38 18 6 6.2933 1.0734
38 18 8 -1.5588 -0.8852
38 19 1 11.8533 -0.0978
38 19 3 21.3377 1.1536
38 19 5 6.1855 -0.9136
38 19 7 3.2739 -0.0876
38 19 9 3.0933 -0.1835
38 20 0 -2.3202 0.8720
38 20 2 9.8341 -0.4191
38 20 4 5.7509 0.8979
38 20 6 5.1220 -0.2039
38 20 8 1.7662 -0.2276
38 21 1 4.1993 -0.6468
38 21 3 24.9190 -0.7154
38 21 5 2.6216 -0.4464
38 21 7 -1.1943 1.0003
38 22 0 4.5019 -1.7928
38 22 2 -10.3036 0.4785
38 22 4 -12.7061 0.1483
38 22 6 4.9887 -1.3645
38 22 8 15.1664 1.6351
38 23 1 0.1240 -0.3044
38 23 3 28.2462 0.7650
38 23 5 -10.4357 1.0500
38 23 7 0.9977 -0.7462
38 24 0 -3.4469 0.5685
38 24 2 8.3612 -0.4215
38 24 4 10.3164 -0.3558
38 24 6 6.3583 0.8418
38 25 1 12.1169 -0.2777
38 25 3 -1.8223 0.3659
38 25 5 10.7254 0.1918
38 26 0 -1.5399 -0.7955
38 26 2 -4.4485 -0.1505
38 26 4 -3.9926 0.1787
38 26 6 -8.0815 -0.3082
38 27 1 7.4856 0.4125
38 27 3 4.9022 0.5710
38 27 5 -0.7532 0.1046
38 28 0 4.6237 -0.2257
38 28 2 7.7337 -0.0587
38 28 4 0.2638 -0.0519
38 29 1 -3.3695 0.3063
39 0 1 -8.2929 9.3513
39 0 3 9.3862 -17.4336
39 0 5 -1.3802 6.2466
39 0 7 2.0519 7.0445
39 0 9 11.3534 -10.4033
39 0 11 1.1118 2.5613
39 1 2 -9.9827 8.0625
39 1 4 -6.1830 -7.4635
39 1 6 10.4213 -0.4135
39 1 8 -0.6157 5.1697
39 1 10 -1.6789 -3.7118
39 2 1 0.0045 -1.8712
39 2 3 2.9603 -0.0817
39 2 5 -0.8032 -0.1700
39 2 7 3.5210 0.4915
39 2 9 -2.0223 0.5209
39 2 11 -7.4212 -0.7980
39 3 2 -9.9577 2.2505
39 3 4 0.3494 -2.1387
39 3 6 0.8943 -1.1151
39 3 8 7.4268 2.2471
39 3 10 -3.5099 -0.6258
39 4 1 18.0154 0.5439
39 4 3 2.2752 3.5663
39 4 5 5.2815 -1.6104
39 4 7 -6.0730 -2.5233
39 4 9 0.4777 1.8900
39 4 11 6.2167 1.1365
39 5 2 -2.7768 -1.2279
39 5 4 -6.4374 0.0170
39 5 6 -1.7811 0.4027
39 5 8 -6.0057 -0.8209
39 5 10 -0.7252 0.4208
39 6 1 -7.3507 -0.8854
39 6 3 -12.6347 -1.0523
39 6 5 7.2554 -0.7653
39 6 7 14.9093 -1.3992
39 6 9 6.4506 -0.3336
39 6 11 -7.4550 0.1745
39 7 2 -1.5691 0.0766
39 7 4 8.6118 0.9452
39 7 6 -4.0322 -0.0032
39 7 8 11.4114 -1.1255
39 7 10 2.4435 -0.4057
39 8 1 2.0317 0.6005
39 8 3 -2.4674 -0.2087
39 8 5 1.4314 -1.1877
39 8 7 11.6222 1.1502
39 8 9 2.6458 -0.1304
39 8 11 -6.1173 0.5173
39 9 2 -6.3324 -1.6161
39 9 4 -8.7765 0.1891
39 9 6 -7.1319 -0.9726
39 9 8 -7.6535 0.2981
39 9 10 -5.6898 0.7420
39 10 1 -0.4221 1.3722
39 10 3 7.3171 0.5671
39 10 5 9.2791 0.3231
39 10 7 -2.7519 0.3217
39 10 9 -4.4166 -0.9700
39 10 11 -14.9616 -1.1352
39 11 2 -1.4406 0.8203
39 11 4 5.0326 0.9932
39 11 6 -11.5963 0.3764
39 11 8 -7.5899 0.9685
39 11 10 8.5687 -0.7894
39 12 1 -2.6084 -0.0582
39 12 3 1.2889 -2.2016
39 12 5 3.3107 -0.0244
39 12 7 -2.2473 0.0384
39 12 9 -8.6749 1.0250
39 13 2 -2.0913 0.6929
39 13 4 8.9382 -0.7163
39 13 6 -4.0699 0.8682
39 13 8 -9.9925 -0.0723
39 13 10 6.6719 -1.1432
39 14 1 -0.1670 -0.9580
39 14 3 -11.3448 1.8550
39 14 5 -2.3776 -0.8351
39 14 7 -1.5202 0.4213
39 14 9 -1.0390 2.0718
39 15 2 -7.6150 -0.6485
39 15 4 5.0419 0.7096
39 15 6 13.7067 0.1343
39 15 8 -3.8098 -1.3870
39 15 10 -2.4436 1.4865
39 16 1 -7.9387 -0.1518
39 16 3 -22.5664 0.5940
39 16 5 10.5962 -0.2646
39 16 7 -6.4655 -0.1631
39 16 9 -10.1595 0.2612
39 17 2 -0.2245 -1.0340
39 17 4 -2.9759 1.4737
39 17 6 6.1798 -0.7496
39 17 8 10.9938 -0.1857
39 18 1 -15.8054 -0.3086
39 18 3 -3.0426 -2.1292
39 18 5 6.9357 1.1295
39 18 7 2.5100 -0.1484
39 18 9 4.3813 -0.8463
39 19 2 2.5380 0.9092
39 19 4 -1.1461 -0.9107
39 19 6 -1.2280 0.0944
39 19 8 -0.3562 0.8298
39 20 1 -15.8414 0.9735
39 20 3 1.5865 0.5633
39 20 5 3.7311 0.3155
39 20 7 4.8472 -0.3146
39 21 2 1.8822 0.3136
39 21 4 2.4576 -0.9652
39 21 6 10.7320 -0.3378
39 21 8 4.4928 1.4084
39 22 1 5.8745 -1.3449
39 22 3 2.2580 -0.2008
39 22 5 3.3930 -0.4843
39 22 7 -0.3059 -0.9125
39 23 2 2.8627 -0.0191
39 23 4 -0.8082 0.8440
39 23 6 6.1379 0.4696
39 24 1 -1.5109 0.4718
39 24 3 -3.4598 -0.3193
39 24 5 5.7090 -0.0583
39 25 2 -2.6593 -0.3074
39 25 4 -7.0157 -0.1492
39 26 1 -7.0903 0.4362
39 26 3 2.1410 -0.5319
39 27 2 -7.9846 0.9759
39 28 1 1.4849 0.0727
40 0 0 0.0128 -6.0737
40 0 2 6.0893 7.3235
40 0 4 3.4002 4.5939
40 0 6 -9.7794 -9.0248
40 0 8 -2.3728 4.0762
40 0 10 -25.1150 2.2706
40 1 1 5.3380 -4.4704
40 1 3 0.2793 1.3083
40 1 5 0.8378 3.1375
40 1 7 7.2887 -3.8318
40 1 9 -9.6171 0.5378
40 1 11 2.6515 3.3695
40 2 0 8.6532 5.5685
40 2 2 -5.7178 -0.7879
40 2 4 -0.4827 -0.4618
40 2 6 -0.6670 1.8975
40 2 8 4.2568 -0.7906
40 2 10 15.6988 -0.3087
40 3 1 -2.9667 -1.4974
40 3 3 5.3286 -0.2869
40 3 5 4.8055 0.1369
40 3 7 -2.7106 -0.7120
40 3 9 -4.3838 -0.1714
40 3 11 4.4762 -1.4348
40 4 0 -2.0265 -4.3509
40 4 2 -8.8532 -1.9429
40 4 4 -3.6120 -1.8913
40 4 6 3.9357 0.9570
40 4 8 17.1675 -0.7989
40 4 10 -8.9699 0.2137
40 5 1 1.9803 3.3224
40 5 3 19.8938 -0.0930
40 5 5 -1.7557 -0.6858
40 5 7 7.4602 2.2555
40 5 9 7.2081 0.1458
40 5 11 3.5615 -0.4460
40 6 0 1.3262 2.3168
40 6 2 -11.2507 2.4395
40 6 4 -19.8963 0.3067
40 6 6 1.0644 -0.5496
40 6 8 0.7445 0.1015
40 6 10 -13.1219 0.1084
40 7 1 -6.8301 -1.0273
40 7 3 -1.1160 -0.3303
40 7 5 2.2473 -1.1467
40 7 7 11.2617 -1.0384
40 7 9 -13.4031 0.1558
40 8 0 -22.3449 0.1345
40 8 2 -7.2518 0.3892
40 8 4 -3.7269 -0.6124
40 8 6 9.8996 -1.7131
40 8 8 8.2872 -0.3218
40 8 10 -12.9714 -0.6151
40 9 1 4.2276 -2.3849
40 9 3 -3.3759 0.2449
40 9 5 5.4315 1.5651
40 9 7 -5.8643 -0.3993
40 9 9 -9.5825 0.1472
40 10 0 -3.9676 -0.9582
40 10 2 -2.2273 -0.5458
40 10 4 -10.8531 1.1104
40 10 6 -1.3687 1.0472
40 10 8 8.6478 -0.0539
40 10 10 11.6127 1.4429
40 11 1 9.3771 3.0261
40 11 3 0.8725 0.2441
40 11 5 0.1241 -0.4954
40 11 7 -1.6372 0.0130
40 11 9 -11.4600 -0.7329
40 12 0 4.8762 1.1674
40 12 2 2.9199 -0.4222
40 12 4 -9.7597 -0.8823
40 12 6 -6.6498 -1.3753
40 12 8 -4.3416 1.0581
40 12 10 -6.4277 -1.5357
40 13 1 -6.2489 -0.8341
40 13 3 10.0658 -1.5389
40 13 5 -2.1218 0.1523
40 13 7 -5.1050 -0.4089
40 13 9 -6.1265 1.2121
40 14 0 -10.8144 -0.9408
40 14 2 4.5977 0.9431
40 14 4 2.3815 0.7914
40 14 6 1.1644 1.2389
40 14 8 -9.5329 0.5679
40 15 1 -5.3287 1.0294
40 15 3 14.9969 0.4627
40 15 5 1.7441 -0.3230
40 15 7 0.2970 0.1475
40 15 9 -10.3570 -0.4918
40 16 0 -12.4683 0.0117
40 16 2 8.6409 -0.4585
40 16 4 12.6914 -0.3884
40 16 6 -12.1989 -1.2604
40 16 8 11.1685 0.1762
40 17 1 -12.0283 -0.0270
40 17 3 12.2486 -0.2013
40 17 5 2.4861 0.2080
40 17 7 17.0917 0.0764
40 18 0 13.6168 0.7718
40 18 2 4.5630 -0.6562
40 18 4 -4.6876 0.3377
40 18 6 8.2156 1.3955
40 18 8 -7.7023 0.3654
40 19 1 3.1020 0.0125
40 19 3 -14.8706 -0.1352
40 19 5 2.0019 -1.2391
40 19 7 7.2409 0.1276
40 20 0 12.5075 -2.1807
40 20 2 -2.4487 -0.1726
40 20 4 4.9242 0.7354
40 20 6 7.6740 -0.7595
40 21 1 -20.3521 0.2985
40 21 3 -31.3069 0.5690
40 21 5 -3.7047 0.9449
40 21 7 -2.2753 -1.3809
40 22 0 2.9053 2.4623
40 22 2 8.4632 -1.0116
40 22 4 3.9612 -0.8971
40 22 6 15.8229 1.7658
40 23 1 0.9853 -0.8666
40 23 3 -16.4825 -0.0787
40 23 5 -10.8106 -1.5032
40 24 0 0.8849 -1.2855
40 24 2 5.9408 -0.3744
40 24 4 -8.1654 0.1523
40 25 1 8.3791 0.2555
40 25 3 -3.3666 0.6090
40 26 0 16.3986 1.4228
40 26 2 -6.5720 -1.4990
41 0 1 11.1072 -9.7041
41 0 3 -7.1972 16.8260
41 0 5 -7.1416 -7.9526
41 0 7 6.4133 -5.5934
41 0 9 4.9271 10.1030
41 1 2 -3.9503 -6.9492
41 1 4 -5.3283 8.0253
41 1 6 11.4448 -1.2842
41 1 8 2.4578 -5.1337
41 1 10 6.7210 4.9098
41 2 1 -3.4789 2.4034
41 2 3 6.2748 -0.4572
41 2 5 -2.8110 1.4257
41 2 7 1.0890 -0.2789
41 2 9 -4.9251 -1.1535
41 3 2 -3.7495 -2.8466
41 3 4 -0.1934 0.7653
41 3 6 2.1976 1.1896
41 3 8 -2.3117 -0.8894
41 3 10 11.0765 -0.8726
41 4 1 -0.8749 -0.6030
41 4 3 0.0350 -3.9839
41 4 5 6.8428 1.6236
41 4 7 -8.7215 1.3225
41 4 9 5.0593 -1.5333
41 5 2 -2.5311 2.8261
41 5 4 -7.6455 -1.2486
41 5 6 -12.3730 0.1276
41 5 8 -4.4621 1.4259
41 5 10 0.2035 0.5134
41 6 1 11.4989 3.0181
41 6 3 6.1115 1.0050
41 6 5 1.9723 -1.3494
41 6 7 -5.1113 -0.0057
41 6 9 -17.1373 0.7364
41 7 2 5.3659 -1.0468
41 7 4 -10.4255 -0.7160
41 7 6 6.6284 -1.5608
41 7 8 -10.8641 0.1321
41 7 10 3.5997 -0.3886
41 8 1 15.2412 -0.8533
41 8 3 2.0571 0.9007
41 8 5 3.0045 1.3975
41 8 7 0.6503 -0.6037
41 8 9 -4.4222 -0.5057
41 9 2 20.5337 1.3031
41 9 4 -6.5106 -0.0721
41 9 6 3.0190 -0.1705
41 9 8 -12.3893 0.7916
41 9 10 -8.0698 -0.0312
41 10 1 1.9111 -0.0822
41 10 3 -8.0040 -0.6250
41 10 5 -0.1431 -0.9719
41 10 7 -7.4121 -0.5126
41 10 9 -2.4548 0.2239
41 11 2 5.1572 -0.6633
41 11 4 4.4635 0.4908
41 11 6 -0.0210 0.6594
41 11 8 -4.0280 -0.8921
41 12 1 2.8193 -1.0755
41 12 3 -9.1334 0.6981
41 12 5 -10.7550 -0.4134
41 12 7 -2.8578 1.2371
41 12 9 1.0697 0.6442
41 13 2 14.1185 0.0277
41 13 4 -8.3687 -0.2633
41 13 6 0.6258 -1.1721
41 13 8 11.4063 0.4944
41 14 1 -1.0105 1.1591
41 14 3 1.6473 0.0604
41 14 5 3.3053 0.9483
41 14 7 -0.9524 0.7509
41 15 2 -6.8838 -1.2548
41 15 4 -0.9651 0.3377
41 15 6 13.2371 -0.0771
41 15 8 -2.2687 -0.1746
41 16 1 -2.5503 0.3356
41 16 3 4.1577 -1.2823
41 16 5 -3.0733 0.0926
41 16 7 4.7167 -1.1398
41 17 2 -7.9975 1.8189
41 17 4 -3.4282 -1.3271
41 17 6 -3.4673 0.5582
41 18 1 5.6965 -0.2807
41 18 3 1.3299 2.0805
41 18 5 -2.7618 0.2550
41 18 7 -6.5107 0.3017
41 19 2 -6.9459 -0.5413
41 19 4 -4.6323 0.0114
41 19 6 -12.6495 0.0226
41 20 1 -2.7764 -2.7137
41 20 3 -4.9988 -0.5340
41 20 5 -1.8731 -0.1306
41 21 2 5.0922 -0.1428
41 21 4 -3.8115 0.1669
41 21 6 11.4933 -0.5524
41 22 1 1.9708 1.3490
41 22 3 6.5595 0.2364
41 22 5 -2.9034 1.3128
41 23 2 -4.7570 -0.2038
41 23 4 -6.2859 -2.1080
41 24 1 5.4305 -0.6339
41 24 3 -0.6863 0.5388
41 25 2 -3.6554 -0.3639
42 0 0 1.0238 5.9972
42 0 2 -7.7717 -4.8923
42 0 4 -13.5517 -5.4667
42 0 6 0.7774 5.9834
42 0 8 16.0461 -0.9017
42 0 10 10.3985 -3.3229
42 1 1 3.4471 2.2444
42 1 3 16.7317 1.0527
42 1 5 6.8650 -3.5674
42 1 7 -1.4070 1.6318
42 1 9 -1.1344 1.9612
42 2 0 2.2400 -5.4880
42 2 2 8.2706 0.9010
42 2 4 -10.2452 0.7078
42 2 6 6.8021 -0.1360
42 2 8 -0.3734 -0.0821
42 3 1 0.6600 0.2043
42 3 3 -17.3839 -0.5161
42 3 5 -2.2255 -0.8890
42 3 7 -8.2108 1.8743
42 3 9 5.8873 -1.1240
42 4 0 2.9787 3.6654
42 4 2 3.2285 1.7152
42 4 4 3.8044 1.9282
42 4 6 3.0973 0.1184
42 4 8 -5.3217 0.3074
42 5 1 -0.5550 -1.7278
42 5 3 -1.7190 0.7184
42 5 5 -2.5744 0.8691
42 5 7 3.6840 -0.3505
42 5 9 14.8511 0.2357
42 6 0 -0.5716 -1.4299
42 6 2 -0.4991 -0.8984
42 6 4 20.1075 -0.9571
42 6 6 5.2189 -0.9540
42 6 8 1.9624 0.6236
42 7 1 -2.1510 -0.0994
42 7 3 0.5663 -0.3545
42 7 5 -4.1337 1.9538
42 7 7 5.5919 -0.2066
42 7 9 -1.1474 0.4094
42 8 0 -1.7911 -1.1967
42 8 2 2.9481 -0.6710
42 8 4 5.8542 0.7339
42 8 6 -8.5765 2.8536
42 8 8 7.4377 0.2101
42 9 1 -2.3174 1.4508
42 9 3 5.3670 0.8475
42 9 5 3.5839 -1.9009
42 9 7 1.9208 -1.4382
42 9 9 6.7812 -0.7674
42 10 0 3.9817 2.4912
42 10 2 6.9999 0.8649
42 10 4 4.8522 0.4609
42 10 6 -9.8674 -1.6339
42 10 8 -9.8290 -1.3267
42 11 1 -6.1063 -2.0004
42 11 3 -12.3027 -1.6208
42 11 5 3.5430 0.4874
42 11 7 3.7649 0.6157
42 12 0 4.9975 -2.1796
42 12 2 -8.4453 -0.7308
42 12 4 3.6695 0.4964
42 12 6 4.1938 -0.3880
42 12 8 -0.8509 0.9726
42 13 1 -2.0300 2.8772
42 13 3 6.2739 1.4026
42 13 5 9.1924 -0.5861
42 13 7 -7.3459 -1.5148
42 14 0 7.2244 1.0612
42 14 2 -5.5410 -0.1846
42 14 4 3.6135 0.0567
42 14 6 0.7892 -0.2144
42 14 8 -6.3938 -0.4803
42 15 1 3.8644 -0.0162
42 15 3 -16.5743 -2.1662
42 15 5 -1.4282 -0.7523
42 15 7 -6.7138 1.9674
42 16 0 -3.3853 -0.2402
42 16 2 8.8240 0.3581
42 16 4 0.2918 0.4644
42 16 6 -2.5073 -0.2806
42 17 1 1.9245 0.5096
42 17 3 -6.3593 0.1076
42 17 5 -1.4294 -0.1699
42 17 7 -10.0791 -1.1283
42 18 0 11.8928 -1.3860
42 18 2 -0.9372 0.9641
42 18 4 -3.9075 0.2494
42 18 6 -3.4658 -0.1759
42 19 1 3.4129 -0.0973
42 19 3 -0.9671 0.2370
42 19 5 -0.9691 0.7978
42 20 0 5.1214 2.3858
42 20 2 2.4927 -0.4329
42 20 4 -5.7963 -0.6228
42 21 1 3.2362 -0.3376
42 21 3 8.5929 0.1517
42 22 0 -1.7318 -2.3749
42 22 2 0.6967 0.2418
42 23 1 4.6593 -0.1860
43 0 1 -1.0707 8.6219
43 0 3 1.3422 -13.3733
43 0 5 15.1324 6.2591
43 0 7 -19.1074 3.8315
43 0 9 -0.1140 -6.6191
43 1 2 -7.3296 4.2391
43 1 4 0.6795 -5.7192
43 1 6 2.6537 1.0302
43 1 8 -1.0045 2.3429
43 2 1 -3.3555 -1.3340
43 2 3 1.8344 0.1108
43 2 5 0.4186 -0.8062
43 2 7 -2.7861 -0.6002
43 2 9 -1.5060 2.3916
43 3 2 5.3575 3.1472
43 3 4 -2.2556 -0.5486
43 3 6 -1.2796 0.4116
43 3 8 -4.2384 0.5333
43 4 1 -3.7324 1.1363
43 4 3 -3.6199 3.7699
43 4 5 3.3031 0.2805
43 4 7 -9.1143 0.0820
43 4 9 -14.3565 -0.9562
43 5 2 -1.2324 -2.6849
43 5 4 1.9474 1.5271
43 5 6 5.1082 -0.2791
43 5 8 2.2142 -0.4911
43 6 1 -12.7341 -2.3094
43 6 3 1.2505 -0.8884
43 6 5 -8.9977 1.1237
43 6 7 3.1182 0.3102
43 7 2 -8.2070 0.5840
43 7 4 4.2542 0.1358
43 7 6 -8.2614 0.8532
43 7 8 -1.6654 -0.1604
43 8 1 -0.5560 0.4059
43 8 3 0.3638 -1.2281
43 8 5 -10.2554 -0.2829
43 8 7 -11.1030 0.1143
43 9 2 -18.0924 -0.4354
43 9 4 7.2276 -0.1918
43 9 6 1.0371 -0.3041
43 9 8 10.1352 -1.5857
43 10 1 -10.7488 0.1143
43 10 3 -6.3405 0.6870
43 10 5 6.2267 0.6422
43 10 7 -6.9953 1.3014
43 11 2 -6.9722 0.7467
43 11 4 1.4342 0.0139
43 11 6 5.2185 -1.8847
43 12 1 -0.3078 0.6077
43 12 3 3.0212 -0.9014
43 12 5 -3.8784 0.5478
43 12 7 9.2230 -1.6665
43 13 2 9.9108 0.3248
43 13 4 -8.1271 -0.2879
43 13 6 0.0020 1.3277
43 14 1 7.4266 -1.3019
43 14 3 3.7722 -0.0746
43 14 5 11.5780 -0.8988
43 14 7 1.0891 -0.1631
43 15 2 17.5354 0.5939
43 15 4 -4.3196 -0.9449
43 15 6 -7.4805 -0.9028
43 16 1 -9.4570 0.4067
43 16 3 -0.1891 1.7306
43 16 5 -2.9924 0.6061
43 17 2 11.1971 -1.7142
43 17 4 3.7250 0.5142
43 18 1 -11.2705 -0.4884
43 18 3 2.5575 -0.1192
43 18 5 -6.6761 -1.4327
43 19 2 7.1866 -0.3529
43 19 4 5.9227 1.4962
43 20 1 3.1352 1.6777
43 20 3 -2.1861 -1.4302
43 21 2 5.7123 2.6900
44 0 0 -2.1565 -3.4765
44 0 2 -1.9165 2.2476
44 0 4 -4.2293 5.4758
44 0 6 -2.3610 -4.5124
44 0 8 11.7267 -1.0680
44 1 1 3.5625 -1.0917
44 1 3 4.8797 -2.0277
44 1 5 -0.5307 2.9146
44 1 7 2.1123 0.4027
44 2 0 -1.1228 3.4550
44 2 2 1.8921 -0.0201
44 2 4 1.2140 0.4317
44 2 6 6.8492 -2.2374
44 2 8 5.5417 2.4894
44 3 1 6.6207 -0.8373
44 3 3 -16.1382 0.5230
44 3 5 7.0265 2.6499
44 3 7 -0.4616 -2.0944
44 4 0 -9.4556 -2.8347
44 4 2 3.3713 -1.2331
44 4 4 3.3398 -1.6836
44 4 6 -23.2565 3.7642
44 4 8 6.5759 -1.1070
44 5 1 16.0335 -0.0273
44 5 3 -8.7616 0.3189
44 5 5 -7.0480 -1.3081
44 5 7 -8.4214 0.9775
44 6 0 2.9074 0.0110
44 6 2 5.9070 -0.9794
44 6 4 -3.8491 1.5055
44 6 6 -6.8364 1.1960
44 7 1 -4.8784 0.9576
44 7 3 4.5377 0.6987
44 7 5 7.2334 0.7453
44 7 7 -5.5352 -0.4996
44 8 0 5.0962 2.0758
44 8 2 8.0577 0.2011
44 8 4 -1.5433 -0.3861
44 8 6 6.9860 -0.4112
44 9 1 2.6926 -1.9284
44 9 3 11.9877 -0.9947
44 9 5 1.9215 -0.1622
44 9 7 -21.3172 2.2470
44 10 0 -2.3554 -3.2979
44 10 2 -2.1874 -1.3702
44 10 4 8.0241 1.3942
44 10 6 -4.9924 -1.9771
44 11 1 2.0118 1.6052
44 11 3 -6.2359 1.9720
44 11 5 6.7779 2.1523
44 12 0 11.0571 3.5236
44 12 2 10.9153 -0.1065
44 12 4 6.2915 -1.0029
44 12 6 -4.0657 3.9666
44 13 1 -5.1725 -0.1074
44 13 3 -15.7275 -2.0073
44 13 5 13.5709 -4.0530
44 14 0 8.7654 -3.0883
44 14 2 -0.2404 -0.1646
44 14 4 -1.3204 1.3435
44 15 1 0.5264 0.3286
44 15 3 -14.6741 1.1587
44 15 5 14.5017 3.8650
44 16 0 4.3602 0.8763
44 16 2 -6.1477 -0.2508
44 16 4 4.9141 -2.0385
44 17 1 1.7863 1.2996
44 17 3 17.7966 -0.7658
44 18 0 -2.5061 -0.0116
44 18 2 0.6588 1.8570
44 19 1 -0.8307 -1.9907
45 0 1 -7.2774 -5.2186
45 0 3 -2.7029 7.2052
45 0 5 20.7931 -3.1843
45 0 7 11.7995 -2.0343
45 1 2 -4.9972 -1.0793
45 1 4 -0.6267 2.0438
45 1 6 7.8656 0.6349
45 2 1 -10.1921 1.3847
45 2 3 -5.7878 0.8174
45 2 5 -5.9872 0.5432
45 2 7 10.0417 0.8129
45 3 2 2.9747 -2.5104
45 3 4 -9.3724 1.4756
45 3 6 -1.1727 -0.4422
45 4 1 -6.7750 -1.5837
45 4 3 3.5336 -1.1349
45 4 5 5.8963 0.3196
45 4 7 -12.3120 -0.3124
45 5 2 -3.8629 0.0540
45 5 4 2.5881 0.3018
45 5 6 15.2098 0.5971
45 6 1 -0.5996 1.3432
45 6 3 -4.5333 -1.4143
45 6 5 10.1298 0.8655
45 7 2 3.5370 1.3266
45 7 4 -9.4382 -0.3458
45 7 6 -3.9518 0.1969
45 8 1 -3.0481 -0.9941
45 8 3 -15.8454 0.1291
45 8 5 5.7899 -0.4957
45 9 2 -3.1758 -0.1363
45 9 4 6.2397 -0.5393
45 9 6 -4.0322 -0.5734
45 10 1 -5.1269 -1.4766
45 10 3 -1.6204 0.1264
45 10 5 -0.6738 1.0203
45 11 2 5.3371 0.4311
45 11 4 -13.4144 0.3806
45 12 1 -8.8543 -0.0107
45 12 3 5.2324 -0.3651
45 12 5 -15.1846 -1.4733
45 13 2 -7.4211 0.7281
45 13 4 -18.1763 0.3690
45 14 1 -1.9735 0.2653
45 14 3 -13.3602 -0.0781
45 15 2 13.1228 -0.4746
45 16 1 6.8893 -0.4713
45 16 3 4.3993 0.0881
46 0 0 -13.6912 2.3085
46 0 2 -6.7551 -1.0227
46 0 4 -3.2283 -5.4488
46 0 6 -1.5939 3.2254
46 1 1 1.4685 2.0439
46 1 3 4.7029 1.2124
46 1 5 -1.7712 -2.6112
46 2 0 6.4865 -1.8977
46 2 2 15.9826 -0.6565
46 2 4 3.1070 0.7225
46 2 6 10.9487 0.8389
46 3 1 4.6797 1.2024
46 3 3 -6.9614 -0.6113
46 3 5 -4.5709 -0.8393
46 4 0 14.7738 -0.6315
46 4 2 -5.3844 1.0189
46 4 4 3.8662 0.8996
46 5 1 -6.0635 -1.4136
46 5 3 14.7637 0.8726
46 5 5 2.5094 0.5495
46 6 0 -1.5174 2.8501
46 6 2 -6.8226 -2.0271
46 6 4 -6.4608 -0.0060
46 7 1 -1.7847 1.1386
46 7 3 4.5710 -0.4741
46 7 5 -0.0460 -1.5069
46 8 0 -2.5415 -5.9375
46 8 2 11.0249 -0.7024
46 8 4 3.8593 0.8894
46 9 1 7.2105 -0.4398
46 9 3 -9.2256 0.3236
46 10 0 0.6291 7.3680
46 10 2 8.5604 -0.0612
46 10 4 -1.3326 -3.1043
46 11 1 1.1703 0.8498
46 11 3 -7.4753 -0.2631
46 12 0 6.3939 -7.3113
46 12 2 0.2553 1.5158
46 13 1 4.0133 -2.5865
46 14 0 10.5366 6.7332
47 0 1 17.5579 0.7362
47 0 3 -10.2973 -0.6634
47 1 2 1.3441 -1.8396
47 1 4 11.4276 0.8847
47 2 1 23.4943 0.7028
47 2 3 8.4571 -0.8670
47 3 2 7.9320 2.0721
47 3 4 3.4431 -1.2195
47 4 1 3.2821 -0.0462
47 4 3 -1.6880 0.7845
47 5 2 -0.7344 0.0144
47 5 4 3.1706 0.3923
47 6 1 8.7331 -1.0513
47 6 3 -7.5852 0.7469
47 7 2 13.9868 -0.9244
47 8 1 2.4951 -0.8837
47 8 3 -13.7765 0.2601
47 9 2 -8.5667 -0.0108
47 10 1 1.6464 1.2755
48 0 0 -10.4860 -4.0822
48 0 2 3.4755 0.4969
48 1 1 -1.2390 -1.7539
48 2 0 -21.1173 2.7908
48 2 2 -2.0357 0.6975
48 3 1 -3.8927 1.3280
48 4 0 -18.2595 -0.2726
0 0 0 0.0 0.0
;
_shelx_fab_checksum              33476
_olex2_submission_special_instructions 'No special instructions were received'
_oxdiff_exptl_absorpt_empirical_details
;
Empirical correction (ABSPACK) includes:
- Absorption correction using spherical harmonics
- Frame scaling
- Detector area scaling
;
_oxdiff_exptl_absorpt_empirical_full_max 1.477
_oxdiff_exptl_absorpt_empirical_full_min 0.579
loop_
_space_group_symop_operation_xyz
'x, y, z'
'-x+1/2, -y, z+1/2'
'-y+1/4, x+3/4, z+1/4'
'y+1/4, -x+1/4, z+3/4'
'-x+1/2, y, -z+1/2'
'x, -y, -z'
'y+1/4, x+3/4, -z+1/4'
'-y+1/4, -x+1/4, -z+3/4'
'x+1/2, y+1/2, z+1/2'
'-x+1, -y+1/2, z+1'
'-y+3/4, x+5/4, z+3/4'
'y+3/4, -x+3/4, z+5/4'
'-x+1, y+1/2, -z+1'
'x+1/2, -y+1/2, -z+1/2'
'y+3/4, x+5/4, -z+3/4'
'-y+3/4, -x+3/4, -z+5/4'
'-x, -y, -z'
'x-1/2, y, -z-1/2'
'y-1/4, -x-3/4, -z-1/4'
'-y-1/4, x-1/4, -z-3/4'
'x-1/2, -y, z-1/2'
'-x, y, z'
'-y-1/4, -x-3/4, z-1/4'
'y-1/4, x-1/4, z-3/4'
'-x+1/2, -y+1/2, -z+1/2'
'x, y+1/2, -z'
'y+1/4, -x-1/4, -z+1/4'
'-y+1/4, x+1/4, -z-1/4'
'x, -y+1/2, z'
'-x+1/2, y+1/2, z+1/2'
'-y+1/4, -x-1/4, z+1/4'
'y+1/4, x+1/4, z-1/4'
loop_
_atom_site_label
_atom_site_type_symbol
_atom_site_fract_x
_atom_site_fract_y
_atom_site_fract_z
_atom_site_U_iso_or_equiv
_atom_site_adp_type
_atom_site_occupancy
_atom_site_site_symmetry_order
_atom_site_calc_flag
_atom_site_refinement_flags_posn
_atom_site_refinement_flags_adp
_atom_site_refinement_flags_occupancy
Zr2 Zr 0.72925(2) 0.29308(3) 0.84091(5) 0.0900(4) Uani 1 1 d . U .
Zr1 Zr 0.69608(2) 0.250000 0.68242(8) 0.0974(6) Uani 1 2 d S TU P
O2 O 0.67834(14) 0.3106(2) 0.8264(4) 0.094(2) Uani 1 1 d . U .
O1 O 0.65639(14) 0.2833(2) 0.7238(5) 0.100(2) Uani 1 1 d . U .
O7 O 0.7429(2) 0.250000 0.6229(8) 0.115(3) Uani 1 2 d S TU P
O3 O 0.72380(16) 0.2925(3) 0.7152(5) 0.128(3) Uani 1 1 d . U .
O12 O 0.5265(3) 0.45427(16) 1.3022(4) 0.117(3) Uani 1 1 d . U .
O11 O 0.5290(2) 0.3855(3) 0.9150(6) 0.155(4) Uani 1 1 d . U .
O5 O 0.7330(2) 0.3456(3) 0.8208(6) 0.133(3) Uani 1 1 d . U .
C2 C 0.6231(2) 0.3192(3) 0.7963(7) 0.092(3) Uani 1 1 d . U .
C7 C 0.5959(2) 0.3130(3) 0.7495(6) 0.085(3) Uani 1 1 d . U .
H7 H 0.597697 0.298228 0.707925 0.102 Uiso 1 1 calc R . .
C6 C 0.5659(2) 0.3285(3) 0.7639(6) 0.086(3) Uani 1 1 d . U .
H6 H 0.547911 0.323780 0.731963 0.103 Uiso 1 1 calc R . .
C1 C 0.6550(2) 0.3038(3) 0.7808(7) 0.093(3) Uani 1 1 d . U .
C15 C 0.500000 0.4483(4) 1.2651(9) 0.113(5) Uani 1 2 d S TU P
O4 O 0.7034(4) 0.250000 0.8051(8) 0.132(3) Uani 1 2 d S TU P
C5 C 0.5622(3) 0.3511(3) 0.8253(6) 0.096(3) Uani 1 1 d . U .
C14 C 0.500000 0.4337(4) 1.1901(10) 0.119(5) Uani 1 2 d S TU P
C3 C 0.6196(3) 0.3409(4) 0.8562(8) 0.129(5) Uani 1 1 d . U .
H3 H 0.637551 0.344777 0.889012 0.154 Uiso 1 1 calc R . .
C13 C 0.5284(5) 0.4260(4) 1.1521(8) 0.151(6) Uani 1 1 d . U .
H13 H 0.548302 0.429540 1.177795 0.181 Uiso 1 1 calc R . .
C11 C 0.500000 0.4042(5) 1.0450(10) 0.119(5) Uani 1 2 d S TU P
C4 C 0.5904(3) 0.3575(4) 0.8703(8) 0.141(5) Uani 1 1 d . U .
H4 H 0.589522 0.373087 0.910229 0.169 Uiso 1 1 calc R . .
C12 C 0.5292(4) 0.4130(4) 1.0774(9) 0.146(6) Uani 1 1 d . U .
H12 H 0.548878 0.410465 1.050214 0.175 Uiso 1 1 calc R . .
O6 O 0.7573(2) 0.3163(2) 0.9378(4) 0.107(2) Uani 1 1 d . U .
O8 O 0.6833(2) 0.2810(4) 0.5824(5) 0.150(4) Uani 1 1 d . U .
B2 B 0.500000 0.3905(7) 0.9500(13) 0.126(7) Uani 1 2 d S TU P
O10 O 0.500000 0.35720(18) 0.8148(4) 0.0592(17) Uani 1 2 d S TU P
O9 O 0.6553(3) 0.2852(3) 0.4724(8) 0.079(3) Uani 0.5 1 d . U .
C8 C 0.6577(5) 0.2690(6) 0.5364(10) 0.085(5) Uani 0.5 1 d . U .
B1 B 0.5292(4) 0.3693(5) 0.8414(9) 0.127(5) Uani 1 1 d . U .
C9 C 0.750000 0.3550(6) 0.750000 0.131(5) Uani 1 2 d S TU P
H9 H 0.750001 0.377922 0.750000 0.157 Uiso 1 2 calc RS T P
C10 C 0.7938(8) 0.3131(8) 0.9550(18) 0.132(9) Uani 0.5 1 d . U .
loop_
_atom_site_aniso_label
_atom_site_aniso_U_11
_atom_site_aniso_U_22
_atom_site_aniso_U_33
_atom_site_aniso_U_23
_atom_site_aniso_U_13
_atom_site_aniso_U_12
Zr2 0.0347(4) 0.1583(10) 0.0771(6) 0.0041(6) 0.0024(4) 0.0040(4)
Zr1 0.0315(5) 0.1867(16) 0.0739(7) 0.000 0.0018(5) 0.000
O2 0.039(3) 0.159(6) 0.085(4) -0.009(4) 0.006(3) 0.001(3)
O1 0.040(3) 0.160(7) 0.101(5) -0.014(4) 0.003(3) 0.005(3)
O7 0.061(5) 0.138(9) 0.147(8) 0.000 0.046(6) 0.000
O3 0.042(3) 0.234(8) 0.108(5) -0.019(5) 0.029(3) -0.022(4)
O12 0.234(10) 0.050(4) 0.066(4) -0.004(3) -0.006(5) 0.032(5)
O11 0.101(6) 0.224(10) 0.141(7) -0.120(7) -0.036(5) 0.055(6)
O5 0.079(5) 0.170(6) 0.149(7) 0.059(5) -0.033(5) -0.040(5)
C2 0.043(4) 0.132(8) 0.101(7) -0.025(6) 0.000(4) 0.001(4)
C7 0.055(4) 0.121(8) 0.079(6) -0.032(6) 0.003(4) 0.005(5)
C6 0.049(4) 0.113(7) 0.097(7) -0.027(6) -0.010(5) 0.003(4)
C1 0.039(4) 0.149(9) 0.090(6) 0.000(6) 0.004(4) -0.003(5)
C15 0.238(15) 0.048(7) 0.052(6) -0.001(6) 0.000 0.000
O4 0.155(11) 0.141(7) 0.101(5) 0.000 -0.040(6) 0.000
C5 0.069(5) 0.132(9) 0.088(6) -0.042(6) -0.015(5) 0.023(5)
C14 0.212(15) 0.062(8) 0.082(8) -0.032(8) 0.000 0.000
C3 0.064(5) 0.202(13) 0.120(9) -0.077(9) -0.031(6) 0.017(7)
C13 0.181(12) 0.151(12) 0.121(9) -0.080(9) -0.044(8) 0.056(10)
C11 0.159(13) 0.111(12) 0.085(9) -0.047(9) 0.000 0.000
C4 0.077(6) 0.223(14) 0.122(9) -0.094(9) -0.034(7) 0.032(7)
C12 0.161(11) 0.160(12) 0.117(8) -0.074(9) -0.036(8) 0.047(10)
O6 0.130(6) 0.114(6) 0.079(4) -0.019(4) -0.004(4) 0.025(5)
O8 0.094(5) 0.276(13) 0.081(4) 0.001(6) -0.011(4) 0.064(7)
B2 0.134(11) 0.162(18) 0.082(10) -0.040(12) 0.000 0.000
O10 0.062(4) 0.058(4) 0.057(4) 0.001(4) 0.000 0.000
O9 0.067(7) 0.080(7) 0.089(7) 0.022(7) 0.001(6) 0.006(6)
C8 0.083(10) 0.123(14) 0.050(7) 0.019(8) 0.020(6) 0.026(9)
B1 0.086(6) 0.178(13) 0.118(9) -0.087(9) -0.058(7) 0.052(7)
C9 0.140(16) 0.149(12) 0.103(11) 0.000 -0.032(9) 0.000
C10 0.141(13) 0.125(18) 0.128(19) 0.011(17) -0.067(15) -0.034(15)
loop_
_atom_type_symbol
_atom_type_description
_atom_type_scat_dispersion_real
_atom_type_scat_dispersion_imag
_atom_type_scat_source
C C 0.0181 0.0091 'International Tables Vol C Tables 4.2.6.8 and 6.1.1.4'
H H 0.0000 0.0000 'International Tables Vol C Tables 4.2.6.8 and 6.1.1.4'
B B 0.0090 0.0039 'International Tables Vol C Tables 4.2.6.8 and 6.1.1.4'
O O 0.0492 0.0322 'International Tables Vol C Tables 4.2.6.8 and 6.1.1.4'
Zr Zr -0.1862 2.2449 'International Tables Vol C Tables 4.2.6.8 and 6.1.1.4'
loop_
_geom_angle_atom_site_label_1
_geom_angle_atom_site_label_2
_geom_angle_atom_site_label_3
_geom_angle
_geom_angle_site_symmetry_1
_geom_angle_site_symmetry_3
Zr2 Zr2 Zr2 90.0 29 5_656
Zr2 Zr2 Zr1 60.23(2) 29 25_656
Zr1 Zr2 Zr2 60.31(3) . 5_656
Zr1 Zr2 Zr2 59.31(3) 25_656 5_656
Zr1 Zr2 Zr2 59.89(2) . 29
Zr1 Zr2 Zr1 89.77(4) . 25_656
O2 Zr2 Zr2 108.8(2) . 29
O2 Zr2 Zr2 110.50(18) . 5_656
O2 Zr2 Zr1 73.2(2) . .
O2 Zr2 Zr1 163.0(2) . 25_656
O2 Zr2 O6 115.4(3) . .
O7 Zr2 Zr2 36.4(3) 25_656 29
O7 Zr2 Zr2 90.0(3) 25_656 5_656
O7 Zr2 Zr1 35.3(2) 25_656 25_656
O7 Zr2 Zr1 91.0(3) 25_656 .
O7 Zr2 O2 141.4(3) 25_656 .
O7 Zr2 O12 76.0(4) 25_656 7_547
O7 Zr2 O6 82.2(4) 25_656 .
O3 Zr2 Zr2 34.46(17) . 5_656
O3 Zr2 Zr2 89.3(3) 5_656 29
O3 Zr2 Zr2 34.8(2) 5_656 5_656
O3 Zr2 Zr2 89.3(3) . 29
O3 Zr2 Zr1 35.4(3) . .
O3 Zr2 Zr1 89.6(3) 5_656 .
O3 Zr2 Zr1 34.3(3) 5_656 25_656
O3 Zr2 Zr1 88.3(2) . 25_656
O3 Zr2 O2 78.2(3) . .
O3 Zr2 O2 142.5(3) 5_656 .
O3 Zr2 O7 69.6(4) 5_656 25_656
O3 Zr2 O7 109.0(4) . 25_656
O3 Zr2 O3 69.3(4) 5_656 .
O3 Zr2 O12 140.9(3) . 7_547
O3 Zr2 O12 141.5(3) 5_656 7_547
O3 Zr2 O5 83.0(4) 5_656 .
O3 Zr2 O5 82.0(4) . .
O3 Zr2 O6 143.0(3) . .
O3 Zr2 O6 83.0(4) 5_656 .
O12 Zr2 Zr2 72.1(3) 7_547 29
O12 Zr2 Zr2 162.1(3) 7_547 5_656
O12 Zr2 Zr1 109.8(2) 7_547 25_656
O12 Zr2 Zr1 108.1(3) 7_547 .
O12 Zr2 O2 76.0(3) 7_547 .
O12 Zr2 O6 75.6(3) 7_547 .
O5 Zr2 Zr2 80.1(3) . 5_656
O5 Zr2 Zr2 170.1(3) . 29
O5 Zr2 Zr1 114.3(2) . 25_656
O5 Zr2 Zr1 113.5(2) . .
O5 Zr2 O2 74.3(3) . .
O5 Zr2 O7 143.2(3) . 25_656
O5 Zr2 O12 117.8(4) . 7_547
O5 Zr2 O6 70.2(3) . .
O4 Zr2 Zr2 34.7(3) . 29
O4 Zr2 Zr2 89.1(4) . 5_656
O4 Zr2 Zr1 89.1(4) . 25_656
O4 Zr2 Zr1 34.5(4) . .
O4 Zr2 O2 76.7(4) . .
O4 Zr2 O7 71.1(4) . 25_656
O4 Zr2 O3 69.8(4) . .
O4 Zr2 O3 107.6(5) . 5_656
O4 Zr2 O12 75.9(5) . 7_547
O4 Zr2 O5 143.0(4) . .
O4 Zr2 O6 144.7(4) . .
O6 Zr2 Zr2 115.2(2) . 29
O6 Zr2 Zr2 114.1(2) . 5_656
O6 Zr2 Zr1 171.3(2) . .
O6 Zr2 Zr1 81.5(2) . 25_656
Zr2 Zr1 Zr2 60.38(3) 29 25_656
Zr2 Zr1 Zr2 90.23(4) 29 5_656
Zr2 Zr1 Zr2 60.39(3) . 5_656
Zr2 Zr1 Zr2 60.22(4) . 29
Zr2 Zr1 Zr2 90.23(4) . 25_656
Zr2 Zr1 Zr2 59.55(4) 5_656 25_656
O1 Zr1 Zr2 109.9(2) 29 .
O1 Zr1 Zr2 164.5(2) . 25_656
O1 Zr1 Zr2 111.0(2) . 5_656
O1 Zr1 Zr2 164.5(2) 29 5_656
O1 Zr1 Zr2 111.0(2) 29 25_656
O1 Zr1 Zr2 74.3(2) . .
O1 Zr1 Zr2 74.3(2) 29 29
O1 Zr1 Zr2 109.9(2) . 29
O1 Zr1 O1 75.1(4) . 29
O7 Zr1 Zr2 91.4(3) . .
O7 Zr1 Zr2 35.7(2) . 25_656
O7 Zr1 Zr2 35.7(2) . 5_656
O7 Zr1 Zr2 91.4(3) . 29
O7 Zr1 O1 142.2(2) . .
O7 Zr1 O1 142.2(2) . 29
O7 Zr1 O8 80.9(4) . 29
O7 Zr1 O8 80.9(4) . .
O3 Zr1 Zr2 89.9(3) 29 .
O3 Zr1 Zr2 35.7(3) . .
O3 Zr1 Zr2 34.3(2) . 5_656
O3 Zr1 Zr2 90.0(3) . 29
O3 Zr1 Zr2 35.7(3) 29 29
O3 Zr1 Zr2 88.7(2) . 25_656
O3 Zr1 Zr2 88.7(2) 29 5_656
O3 Zr1 Zr2 34.3(2) 29 25_656
O3 Zr1 O1 142.5(3) . 29
O3 Zr1 O1 142.5(3) 29 .
O3 Zr1 O1 78.9(3) 29 29
O3 Zr1 O1 78.9(3) . .
O3 Zr1 O7 70.0(3) . .
O3 Zr1 O7 70.0(3) 29 .
O3 Zr1 O3 107.8(5) 29 .
O3 Zr1 O8 82.1(5) . .
O3 Zr1 O8 82.1(5) 29 29
O3 Zr1 O8 142.8(3) 29 .
O3 Zr1 O8 142.8(3) . 29
O4 Zr1 Zr2 89.4(4) . 5_656
O4 Zr1 Zr2 34.8(2) . 29
O4 Zr1 Zr2 89.4(4) . 25_656
O4 Zr1 Zr2 34.8(2) . .
O4 Zr1 O1 77.8(4) . 29
O4 Zr1 O1 77.8(4) . .
O4 Zr1 O7 110.0(6) . .
O4 Zr1 O3 70.5(4) . .
O4 Zr1 O3 70.5(4) . 29
O4 Zr1 O8 143.8(3) . .
O4 Zr1 O8 143.8(3) . 29
O8 Zr1 Zr2 80.2(3) 29 25_656
O8 Zr1 Zr2 80.2(3) . 5_656
O8 Zr1 Zr2 170.4(3) 29 .
O8 Zr1 Zr2 113.7(2) . 25_656
O8 Zr1 Zr2 170.4(3) . 29
O8 Zr1 Zr2 114.0(4) . .
O8 Zr1 Zr2 113.7(2) 29 5_656
O8 Zr1 Zr2 114.0(4) 29 29
O8 Zr1 O1 115.3(4) 29 .
O8 Zr1 O1 74.0(3) 29 29
O8 Zr1 O1 74.0(3) . .
O8 Zr1 O1 115.3(4) . 29
O8 Zr1 O8 70.5(7) 29 .
C1 O2 Zr2 135.1(7) . .
C1 O1 Zr1 131.9(6) . .
Zr2 O7 Zr2 107.2(5) 5_656 25_656
Zr1 O7 Zr2 109.0(4) . 5_656
Zr1 O7 Zr2 109.0(4) . 25_656
Zr2 O3 Zr2 110.7(4) 5_656 .
Zr2 O3 Zr1 111.3(4) 5_656 .
Zr1 O3 Zr2 108.9(4) . .
C15 O12 Zr2 139.7(9) . 7_547
B2 O11 B1 118.0(12) . .
C9 O5 Zr2 115.3(13) . .
C7 C2 C1 121.7(10) . .
C3 C2 C7 118.0(9) . .
C3 C2 C1 120.2(10) . .
C2 C7 C6 120.9(9) . .
C7 C6 C5 121.4(9) . .
O2 C1 O1 125.4(10) . .
O2 C1 C2 117.7(11) . .
O1 C1 C2 116.8(9) . .
O12 C15 O12 115.5(14) 22_655 .
O12 C15 C14 122.2(7) . .
O12 C15 C14 122.2(7) 22_655 .
Zr2 O4 Zr2 110.5(6) . 29
Zr1 O4 Zr2 110.7(5) . 29
Zr1 O4 Zr2 110.7(5) . .
C6 C5 C4 116.2(10) . .
C6 C5 B1 122.3(9) . .
C4 C5 B1 121.4(10) . .
C13 C14 C15 122.0(8) . .
C13 C14 C15 122.0(8) 22_655 .
C13 C14 C13 116.0(17) 22_655 .
C2 C3 C4 122.3(10) . .
C14 C13 C12 123.2(16) . .
C12 C11 C12 122.0(17) . 22_655
C12 C11 B2 118.1(10) 22_655 .
C12 C11 B2 118.1(10) . .
C3 C4 C5 121.0(11) . .
C11 C12 C13 117.2(17) . .
C10 O6 Zr2 127.6(14) . .
C8 O8 Zr1 114.5(12) . .
C8 O8 C10 117.4(14) . 5_656
C10 O8 Zr1 126.7(10) 5_656 .
O11 B2 O11 123.8(17) 22_655 .
O11 B2 C11 118.1(9) . .
O11 B2 C11 118.1(9) 22_655 .
B1 O10 B1 121.1(13) 22_655 .
C8 O9 B1 119.8(14) . 7_546
O8 C8 C8 110.5(11) . 29
O9 C8 O8 111.0(18) . .
O9 C8 C8 121.0(12) . 29
O11 B1 C5 112.3(9) . .
O11 B1 O9 99.0(13) . 7_546
C5 B1 O9 99.1(13) . 7_546
O10 B1 O11 117.3(12) . .
O10 B1 C5 121.4(12) . .
O10 B1 O9 102.0(10) . 7_546
O5 C9 O5 149(2) . 5_656
O6 C10 O8 121.4(18) . 5_656
loop_
_geom_bond_atom_site_label_1
_geom_bond_atom_site_label_2
_geom_bond_distance
_geom_bond_site_symmetry_2
Zr2 Zr2 3.496(2) 29
Zr2 Zr2 3.5231(17) 5_656
Zr2 Zr1 3.4847(15) .
Zr2 Zr1 3.5203(12) 25_656
Zr2 O2 2.198(6) .
Zr2 O7 2.171(7) 25_656
Zr2 O3 2.151(9) .
Zr2 O3 2.131(6) 5_656
Zr2 O12 2.188(8) 7_547
Zr2 O5 2.163(11) .
Zr2 O4 2.127(8) .
Zr2 O6 2.215(8) .
Zr1 O1 2.217(7) 29
Zr1 O1 2.217(7) .
Zr1 O7 2.152(9) .
Zr1 O3 2.132(10) 29
Zr1 O3 2.132(10) .
Zr1 O4 2.109(13) .
Zr1 O8 2.179(10) 29
Zr1 O8 2.179(10) .
O2 C1 1.253(12) .
O1 C1 1.280(13) .
O12 C15 1.270(12) .
O11 B2 1.335(13) .
O11 B1 1.414(14) .
O5 C9 1.441(10) .
C2 C7 1.382(14) .
C2 C1 1.462(14) .
C2 C3 1.355(16) .
C7 C6 1.394(13) .
C6 C5 1.398(13) .
C15 C14 1.41(2) .
C5 C4 1.401(15) .
C5 B1 1.555(16) .
C14 C13 1.359(17) 22_655
C14 C13 1.359(17) .
C3 C4 1.384(16) .
C13 C12 1.376(17) .
C11 C12 1.353(17) .
C11 C12 1.353(17) 22_655
C11 B2 1.71(3) .
O6 C10 1.51(3) .
O8 C8 1.39(2) .
O8 C10 1.72(4) 5_656
O10 B1 1.359(15) 22_655
O10 B1 1.359(15) .
O9 C8 1.28(2) .
O9 B1 1.84(2) 7_546
C8 C8 1.54(5) 29
loop_
_smtbx_masks_void_nr
_smtbx_masks_void_average_x
_smtbx_masks_void_average_y
_smtbx_masks_void_average_z
_smtbx_masks_void_volume
_smtbx_masks_void_count_electrons
1 -0.172 -0.252 -0.700 17865.3 3001.6
