#------------------------------------------------------------------------------
#$Date: 2019-03-01 01:27:00 +0200 (Fri, 01 Mar 2019) $
#$Revision: 213903 $
#$URL: file:///home/coder/svn-repositories/cod/cif/1/55/06/1550673.cif $
#------------------------------------------------------------------------------
#
# This file is available in the Crystallography Open Database (COD),
# http://www.crystallography.net/
#
# All data on this site have been placed in the public domain by the
# contributors.
#
data_1550673
loop_
_publ_author_name
'Kong, Xiang-Jing'
'He, Tao'
'Zhang, Yongzheng'
'Wu, Xue-Qian'
'Wang, Si-Nan'
'Xu, Ming-Ming'
'Si, Guang-Rui'
'Li, Jian-Rong Jeff'
_publ_section_title
;
 Constructing New Metal-Organic Frameworks with Complicated Ligands
 Generated from &#x201C;One-Pot&#x201D; In Situ Reactions
;
_journal_name_full               'Chemical Science'
_journal_paper_doi               10.1039/C9SC00178F
_journal_year                    2019
_chemical_formula_moiety         '0.25(C640 H368 Cd28 N32 O192)'
_chemical_formula_sum            'C160 H96 Cd7 N8 O48'
_chemical_formula_weight         3685.24
_space_group_crystal_system      monoclinic
_space_group_IT_number           15
_space_group_name_Hall           '-C 2yc'
_space_group_name_H-M_alt        'C 1 2/c 1'
_symmetry_space_group_name_Hall  '-C 2yc'
_symmetry_space_group_name_H-M   'C 1 2/c 1'
_atom_sites_solution_hydrogens   mixed
_atom_sites_solution_primary     dual
_audit_creation_date             2018-08-16
_audit_creation_method
;
Olex2 1.2
(compiled 2018.05.29 svn.r3508 for OlexSys, GUI svn.r5506)
;
_audit_update_record
;
2019-01-04 deposited with the CCDC.    2019-02-28 downloaded from the CCDC.
;
_cell_angle_alpha                90
_cell_angle_beta                 105.239(9)
_cell_angle_gamma                90
_cell_formula_units_Z            4
_cell_length_a                   32.872(2)
_cell_length_b                   19.2171(7)
_cell_length_c                   32.400(3)
_cell_measurement_reflns_used    4236
_cell_measurement_temperature    173.00(10)
_cell_measurement_theta_max      54.1240
_cell_measurement_theta_min      3.6010
_cell_volume                     19748(2)
_computing_cell_refinement       'CrysAlisPro 1.171.39.32a (Rigaku OD, 2017)'
_computing_data_collection       'CrysAlisPro 1.171.39.32a (Rigaku OD, 2017)'
_computing_data_reduction        'CrysAlisPro 1.171.39.32a (Rigaku OD, 2017)'
_computing_molecular_graphics    'Olex2 (Dolomanov et al., 2009)'
_computing_publication_material  'Olex2 (Dolomanov et al., 2009)'
_computing_structure_refinement  'ShelXL (Sheldrick, 2015)'
_computing_structure_solution    'ShelXT (Sheldrick, 2015)'
_diffrn_ambient_environment      N~2~
_diffrn_ambient_temperature      173.00(10)
_diffrn_detector                 'CCD plate'
_diffrn_detector_area_resol_mean 10.3376
_diffrn_detector_type            AtlasS2
_diffrn_measured_fraction_theta_full 0.997
_diffrn_measured_fraction_theta_max 0.997
_diffrn_measurement_details
;
List of Runs (angles in degrees, time in seconds):

  # Type    Start    End  Width  t~exp~   \w     \q     \k     \f   Frames
#--------------------------------------------------------------------------
  1  \w   -102.00 -22.00   1.00   15.00    --  -41.81 -38.00-180.00   80
  2  \w   -116.00 -20.00   1.00   15.00    --  -41.81 -38.00 -60.00   96
  3  \w      4.00  45.00   1.00   15.00    --   41.81 -99.00  90.00   41
  4  \w     36.00  66.00   1.00   15.00    --   41.81-125.00-150.00   30
  5  \w     81.00 126.00   1.00   40.00    --  107.13  45.00  90.00   45
  6  \w    148.00 177.00   1.00   40.00    --  107.13  30.00  60.00   29
  7  \w    100.00 126.00   1.00   40.00    --  107.13 -61.00-150.00   26
  8  \w     42.00  69.00   1.00   40.00    --  107.13-125.00  90.00   27
  9  \w     92.00 121.00   1.00   40.00    --  107.13-125.00  90.00   29
 10  \w     39.00 110.00   1.00   40.00    --  107.13-125.00 -30.00   71
 11  \w     36.00  71.00   1.00   40.00    --  107.13 -61.00-150.00   35
 12  \w     78.00 178.00   1.00   40.00    --  107.13  77.00 120.00  100
 13  \w     79.00 122.00   1.00   40.00    --  107.13  30.00  60.00   43
;
_diffrn_measurement_device       'four-circle diffractometer'
_diffrn_measurement_device_type  'SuperNova, Dual, Cu at home/near, AtlasS2'
_diffrn_measurement_method       '\w scans'
_diffrn_orient_matrix_type
'CrysAlisPro convention (1999,Acta A55,543-557)'
_diffrn_orient_matrix_UB_11      0.0361255000
_diffrn_orient_matrix_UB_12      0.0331576000
_diffrn_orient_matrix_UB_13      -0.0153229000
_diffrn_orient_matrix_UB_21      0.0160837000
_diffrn_orient_matrix_UB_22      0.0363854000
_diffrn_orient_matrix_UB_23      0.0436198000
_diffrn_orient_matrix_UB_31      0.0281553000
_diffrn_orient_matrix_UB_32      -0.0633528000
_diffrn_orient_matrix_UB_33      0.0170293000
_diffrn_radiation_monochromator  mirror
_diffrn_radiation_probe          x-ray
_diffrn_radiation_type           CuK\a
_diffrn_radiation_wavelength     1.54178
_diffrn_reflns_av_R_equivalents  0.0667
_diffrn_reflns_av_unetI/netI     0.0931
_diffrn_reflns_Laue_measured_fraction_full 0.997
_diffrn_reflns_Laue_measured_fraction_max 0.997
_diffrn_reflns_limit_h_max       38
_diffrn_reflns_limit_h_min       -38
_diffrn_reflns_limit_k_max       16
_diffrn_reflns_limit_k_min       -22
_diffrn_reflns_limit_l_max       28
_diffrn_reflns_limit_l_min       -38
_diffrn_reflns_number            36069
_diffrn_reflns_point_group_measured_fraction_full 0.997
_diffrn_reflns_point_group_measured_fraction_max 0.997
_diffrn_reflns_theta_full        65.996
_diffrn_reflns_theta_max         65.996
_diffrn_reflns_theta_min         3.409
_diffrn_source                   'micro-focus sealed X-ray tube'
_diffrn_source_type              'SuperNova (Cu) X-ray Source'
_exptl_absorpt_coefficient_mu    6.500
_exptl_absorpt_correction_T_max  1.00000
_exptl_absorpt_correction_T_min  0.64966
_exptl_absorpt_correction_type   multi-scan
_exptl_absorpt_process_details
;
CrysAlisPro 1.171.39.32a (Rigaku Oxford Diffraction, 2017)
Empirical absorption correction using spherical harmonics,
 implemented in SCALE3 ABSPACK scaling algorithm.
;
_exptl_crystal_colour            'light yellow'
_exptl_crystal_density_diffrn    1.240
_exptl_crystal_description       block
_exptl_crystal_F_000             7328
_exptl_crystal_size_max          0.15
_exptl_crystal_size_mid          0.06
_exptl_crystal_size_min          0.025
_refine_diff_density_max         1.912
_refine_diff_density_min         -0.802
_refine_diff_density_rms         0.108
_refine_ls_extinction_method     none
_refine_ls_goodness_of_fit_ref   0.909
_refine_ls_hydrogen_treatment    constr
_refine_ls_matrix_type           full
_refine_ls_number_parameters     1015
_refine_ls_number_reflns         17166
_refine_ls_number_restraints     1059
_refine_ls_restrained_S_all      0.923
_refine_ls_R_factor_all          0.1747
_refine_ls_R_factor_gt           0.1068
_refine_ls_shift/su_max          0.001
_refine_ls_shift/su_mean         0.000
_refine_ls_structure_factor_coef Fsqd
_refine_ls_weighting_details
'w=1/[\s^2^(Fo^2^)+(0.1981P)^2^] where P=(Fo^2^+2Fc^2^)/3'
_refine_ls_weighting_scheme      calc
_refine_ls_wR_factor_gt          0.2963
_refine_ls_wR_factor_ref         0.3422
_reflns_Friedel_coverage         0.000
_reflns_number_gt                7168
_reflns_number_total             17166
_reflns_threshold_expression     'I > 2\s(I)'
_cod_data_source_file            c9sc00178f2.cif
_cod_data_source_block           BUT-106
_cod_original_cell_volume        19748(3)
_cod_database_code               1550673
_shelx_shelxl_version_number     2018/3
_chemical_oxdiff_formula         'C H O N Cd'
_shelx_space_group_comment
;
The symmetry employed for this shelxl refinement is uniquely defined
by the following loop, which should always be used as a source of
symmetry information in preference to the above space-group names.
They are only intended as comments.
;
_shelx_estimated_absorpt_t_max   0.854
_shelx_estimated_absorpt_t_min   0.442
_reflns_odcompleteness_completeness 99.69
_reflns_odcompleteness_iscentric 1
_reflns_odcompleteness_theta     66.97
_olex2_refinement_description
;
1. Fixed Uiso
 At 1.2 times of:
  All C(H) groups
 At 1.5 times of:
  All O(H,H) groups
2. Restrained distances
 C12-N1 = C21-N2
 1.48 with sigma of 0.02
 C61-N4 = C50-N3
 1.48 with sigma of 0.02
 C58-C57
 1.48 with sigma of 0.02
 C58-O13 = C58-O14
 1.25 with sigma of 0.02
 C72-C71
 1.5 with sigma of 0.01
 C40-C37
 1.5 with sigma of 0.01
 C1-C2
 1.48 with sigma of 0.02
 C1-O1 = C1-O2
 1.26 with sigma of 0.02
 C30-C31
 1.48 with sigma of 0.02
 C31-O21 = C31-O22
 1.26 with sigma of 0.02
3. Rigid bond restraints
 All non-hydrogen atoms
 with sigma for 1-2 distances of 0.01 and sigma for 1-3 distances of 0.01
4. Uiso/Uaniso restraints and constraints
All non-hydrogen atoms have similar U: within 2A with sigma of 0.04 and sigma
for terminal atoms of 0.08
Uanis(Cd2) \\sim Ueq, Uanis(Cd3) \\sim Ueq, Uanis(Cd5) \\sim Ueq: with sigma of
0.01 and sigma for terminal atoms of 0.02
5. Others
 Fixed Sof: Cd4(0.66667) Cd5(0.33333)
6.a Rotating group:
 O10(H10A,H10B)
6.b Aromatic/amide H refined with riding coordinates:
 C53(H53), C28(H28), C9(H9), C64(H64), C26(H26), C51(H51), C62(H62), C76(H76),
 C81(H81), C24(H24), C69(H69), C49(H49), C33(H33), C4(H4), C66(H66), C46(H46),
 C13(H13), C47(H47), C22(H22), C29(H29), C55(H55), C44(H44), C38(H38), C7(H7),
 C60(H60), C73(H73), C43(H43), C11(H11), C15(H15), C36(H36), C6(H6), C74(H74),
 C77(H77), C39(H39), C20(H20), C56(H56), C70(H70), C80(H80), C3(H3), C19(H19),
 C35(H35), C59(H59), C32(H32), C16(H16)
;
_shelx_res_file
;
TITL sn15_a.res in C2/c
    sn15.res
    created by SHELXL-2018/3 at 07:37:03 on 16-Aug-2018
REM Old TITL sn15 in C2/c
REM SHELXT solution in C2/c: R1 0.359, Rweak 0.043, Alpha 0.112
REM <I/s> 0.488 for 507 systematic absences, Orientation as input
REM Formula found by SHELXT: C177 N27 O16 Cd7
CELL 1.54178 32.8723 19.2171 32.4 90 105.239 90
ZERR 4 0.0023 0.0007 0.0034 0 0.009 0
LATT 7
SYMM -X,+Y,0.5-Z
SFAC C H Cd N O
UNIT 640 384 28 32 192
DFIX 1.48 C12 N1 C21 N2
DFIX 1.48 C61 N4 C50 N3
DFIX 1.48 C58 C57
DFIX 1.25 C58 O13 C58 O14
DFIX 1.5 0.01 C72 C71
DFIX 1.5 0.01 C40 C37
DFIX 1.48 C1 C2
DFIX 1.26 C1 O1 C1 O2
DFIX 1.48 C30 C31
DFIX 1.26 C31 O21 C31 O22
DELU
SIMU
ISOR 0.01 0.02 Cd2 Cd3 Cd5

L.S. 20
PLAN  1
SIZE 0.025 0.06 0.15
list 4
ABIN
fmap 2
acta
OMIT 0 132
OMIT -2 2 2
OMIT 2 2 7
OMIT -2 4 1
OMIT -1 3 3
OMIT 2 4 2
OMIT 1 1 10
OMIT -11 1 2
OMIT -2 2 6
OMIT -4 4 4
OMIT -5 3 2
OMIT 5 1 7
OMIT -2 2 8
OMIT -1 1 4
OMIT -2 2 10
OMIT -2 2 3
OMIT 6 0 0
OMIT 3 5 6
OMIT -3 1 1
REM <olex2.extras>
REM <HklSrc "%.\\sn15.hkl">
REM </olex2.extras>

WGHT    0.198100
FVAR       0.08188
CD1   3    0.500000    0.440103    0.250000    10.50000    0.09873    0.04732 =
         0.11789    0.00000    0.05325    0.00000
CD2   3    0.661782    1.365356    0.608114    11.00000    0.11617    0.08564 =
         0.25013   -0.02341    0.09198   -0.02189
CD3   3    0.629726    1.426129    0.701654    11.00000    0.13843    0.10912 =
         0.27182   -0.04441    0.10719   -0.02284
CD4   3    0.264794    0.770244    0.645198    10.66667    0.09266    0.06607 =
         0.14443    0.00779    0.03388   -0.01052
CD5   3    0.245535    0.776558    0.584999    10.33333    0.07398    0.06115 =
         0.18771    0.01080    0.02471   -0.01130
O15   5    0.528738    0.831701    0.500264    11.00000    0.10937    0.06611 =
         0.15976   -0.01003    0.06661   -0.02995
O16   5    0.349997    0.293536    0.493950    11.00000    0.13620    0.07095 =
         0.15230    0.00096    0.07957   -0.02769
O18   5    0.448497    0.389921    0.273800    11.00000    0.12848    0.06387 =
         0.14947    0.00894    0.07558   -0.01474
O19   5    0.562905    0.513814    0.295388    11.00000    0.11378    0.08430 =
         0.16859   -0.03086    0.03804   -0.00713
C52   1    0.625628    0.904288    0.418340    11.00000    0.07308    0.05721 =
         0.09545   -0.00747    0.00804   -0.00001
O8    5    0.593080    1.319645    0.700777    11.00000    0.12773    0.10897 =
         0.24141    0.00122    0.07432   -0.01585
O20   5    0.499280    0.527570    0.299298    11.00000    0.11599    0.09231 =
         0.16455   -0.03579    0.04517   -0.03787
C27   1    0.345820   -0.001172    0.408978    11.00000    0.07653    0.08339 =
         0.11467    0.01479    0.02138   -0.01968
N2    4    0.331769    0.230063    0.490145    11.00000    0.10538    0.10450 =
         0.13097    0.04146    0.03570   -0.00414
C63   1    0.529928    1.041951    0.588926    11.00000    0.06194    0.09819 =
         0.09955    0.02623    0.03079    0.00860
C53   1    0.616555    0.842216    0.397679    11.00000    0.07590    0.07268 =
         0.09413   -0.01274    0.02223    0.00020
AFIX  43
H53   2    0.631175    0.829382    0.377890    11.00000   -1.20000
AFIX   0
C28   1    0.346096   -0.044669    0.443354    11.00000    0.06069    0.08382 =
         0.13328    0.02705    0.02499   -0.02329
AFIX  43
H28   2    0.349705   -0.025406    0.470410    11.00000   -1.20000
AFIX   0
C65   1    0.481020    0.946707    0.580089    11.00000    0.06705    0.09389 =
         0.08663   -0.00055    0.00091    0.00469
N3    4    0.549207    0.886325    0.494827    11.00000    0.10495    0.07586 =
         0.13773   -0.01088    0.00946   -0.02052
C68   1    0.442745    0.912764    0.590631    11.00000    0.09410    0.05501 =
         0.09922    0.00075    0.00889   -0.00316
C9    1    0.261277    0.291830    0.596971    11.00000    0.09522    0.07170 =
         0.10637   -0.01039    0.02615    0.01744
AFIX  43
H9    2    0.249934    0.306638    0.618915    11.00000   -1.20000
AFIX   0
C64   1    0.496427    1.007259    0.599821    11.00000    0.07056    0.08762 =
         0.06635    0.00566    0.02725   -0.00357
AFIX  43
H64   2    0.484787    1.025892    0.620633    11.00000   -1.20000
AFIX   0
O17   5    0.507716    0.342756    0.306325    11.00000    0.13204    0.11097 =
         0.20624    0.05480    0.09242    0.00817
C26   1    0.374859    0.112451    0.392437    11.00000    0.09521    0.06781 =
         0.10104    0.01037    0.03654   -0.00501
AFIX  43
H26   2    0.385119    0.089709    0.371912    11.00000   -1.20000
AFIX   0
O5    5    0.302410    0.807091    0.589534    11.00000    0.10192    0.07824 =
         0.24456   -0.00677    0.04468   -0.02151
C75   1    0.547004    1.108618    0.609846    11.00000    0.05575    0.10498 =
         0.12514    0.01874    0.02727   -0.00799
C50   1    0.574393    0.876684    0.458490    11.00000    0.07911    0.08364 =
         0.10294    0.01055    0.00954    0.00290
C23   1    0.352453    0.075573    0.416601    11.00000    0.07361    0.07057 =
         0.10073    0.02085    0.02339   -0.00806
N4    4    0.556846    0.939978    0.504524    11.00000    0.09027    0.07411 =
         0.15091   -0.00445    0.01873   -0.03703
C5    1    0.277902    0.415538    0.585901    11.00000    0.07733    0.08118 =
         0.14627   -0.00406    0.02951   -0.00221
O11   5    0.567536    1.483754    0.671654    11.00000    0.14750    0.09666 =
         0.28635   -0.02147    0.11717   -0.00276
C42   1    0.550284    0.609619    0.334515    11.00000    0.09422    0.09170 =
         0.10078   -0.01536    0.02626   -0.02806
C8    1    0.279288    0.339628    0.575855    11.00000    0.08562    0.09858 =
         0.12648   -0.00328    0.02820    0.01101
O1    5    0.257918    0.673365    0.590075    11.00000    0.09404    0.08093 =
         0.29438   -0.00281    0.07646   -0.01224
C51   1    0.604101    0.922787    0.448153    11.00000    0.09353    0.05995 =
         0.08051   -0.01558   -0.00058    0.00209
AFIX  43
H51   2    0.609141    0.965894    0.461575    11.00000   -1.20000
AFIX   0
C62   1    0.545251    1.011661    0.556799    11.00000    0.06514    0.16377 =
         0.08848    0.01738    0.03046   -0.00001
AFIX  43
H62   2    0.566251    1.034918    0.547872    11.00000   -1.20000
AFIX   0
O7    5    0.612038    1.345185    0.643057    11.00000    0.17164    0.08346 =
         0.31271   -0.02732    0.15166   -0.03182
C54   1    0.659463    0.951375    0.409206    11.00000    0.10661    0.05158 =
         0.11203   -0.00818    0.02912   -0.00526
C25   1    0.381728    0.184587    0.399546    11.00000    0.10018    0.05310 =
         0.12821    0.01322    0.04300    0.00757
C10   1    0.259567    0.220434    0.586105    11.00000    0.11678    0.07819 =
         0.09857   -0.00549    0.00158    0.03494
C76   1    0.551984    1.120943    0.652097    11.00000    0.09374    0.08820 =
         0.12473    0.01130    0.05156   -0.00809
AFIX  43
H76   2    0.545283    1.086555    0.669411    11.00000   -1.20000
AFIX   0
C81   1    0.555539    1.163655    0.583650    11.00000    0.06679    0.13408 =
         0.14318    0.03666    0.03877   -0.01978
AFIX  43
H81   2    0.550844    1.157450    0.554304    11.00000   -1.20000
AFIX   0
C24   1    0.365325    0.217682    0.430281    11.00000    0.10196    0.06054 =
         0.10871    0.00458    0.02745    0.00944
AFIX  43
H24   2    0.368730    0.265478    0.434212    11.00000   -1.20000
AFIX   0
O24   5    0.170416    0.029825    0.699589    11.00000    0.14523    0.09371 =
         0.28215   -0.03580    0.08648   -0.05025
C45   1    0.574021    0.732661    0.380923    11.00000    0.07718    0.06911 =
         0.13033   -0.01160    0.03868   -0.01171
O2    5    0.276141    0.652771    0.650336    11.00000    0.13550    0.07415 =
         0.32081    0.01797    0.09075    0.01296
C69   1    0.438056    0.912872    0.631140    11.00000    0.10008    0.09080 =
         0.11844    0.01229    0.02833   -0.01727
AFIX  43
H69   2    0.458569    0.932807    0.653370    11.00000   -1.20000
AFIX   0
N1    4    0.312011    0.196702    0.501228    11.00000    0.13768    0.05549 =
         0.14051    0.01102    0.02356   -0.03120
C37   1    0.448185    0.305841    0.327168    11.00000    0.13014    0.07032 =
         0.15281    0.02144    0.07305   -0.00593
C48   1    0.586006    0.797342    0.405310    11.00000    0.07373    0.07223 =
         0.09415   -0.00028    0.00681   -0.00864
C30   1    0.334202   -0.144745    0.399414    11.00000    0.05629    0.08588 =
         0.18054    0.00372    0.00262   -0.01730
C49   1    0.565399    0.814691    0.437051    11.00000    0.07439    0.08772 =
         0.09654    0.00429    0.01144   -0.01171
AFIX  43
H49   2    0.545862    0.784291    0.443376    11.00000   -1.20000
AFIX   0
O23   5    0.155209   -0.032633    0.643437    11.00000    0.12986    0.08602 =
         0.31412   -0.05743    0.09373   -0.02369
C33   1    0.339228   -0.028952    0.369290    11.00000    0.14251    0.09396 =
         0.11272   -0.00113    0.00725   -0.02258
AFIX  43
H33   2    0.338634   -0.000975    0.345718    11.00000   -1.20000
AFIX   0
O21   5    0.341945   -0.259833    0.425131    11.00000    0.21065    0.10027 =
         0.27283    0.02631    0.13857   -0.01353
C4    1    0.282280    0.438015    0.627239    11.00000    0.09818    0.07503 =
         0.15481   -0.00578    0.03962   -0.01740
AFIX  43
H4    2    0.287387    0.405957    0.649514    11.00000   -1.20000
AFIX   0
C40   1    0.470840    0.348405    0.300902    11.00000    0.12193    0.06878 =
         0.14254    0.01089    0.07477    0.00766
C66   1    0.498946    0.916694    0.550467    11.00000    0.10282    0.10405 =
         0.07746   -0.01074    0.00433    0.01387
AFIX  43
H66   2    0.489269    0.873607    0.538882    11.00000   -1.20000
AFIX   0
C46   1    0.532746    0.708875    0.368948    11.00000    0.08007    0.08488 =
         0.13474   -0.02239    0.02033   -0.01856
AFIX  43
H46   2    0.512284    0.735325    0.376779    11.00000   -1.20000
AFIX   0
C13   1    0.299666    0.315604    0.545701    11.00000    0.11765    0.12488 =
         0.09567    0.01521    0.02858    0.03196
AFIX  43
H13   2    0.313582    0.347424    0.532615    11.00000   -1.20000
AFIX   0
C47   1    0.520504    0.650385    0.346879    11.00000    0.08863    0.09699 =
         0.14292   -0.02646    0.04042   -0.02852
AFIX  43
H47   2    0.492327    0.637015    0.339836    11.00000   -1.20000
AFIX   0
C22   1    0.336925    0.109610    0.446504    11.00000    0.06832    0.09977 =
         0.09388    0.02355    0.02015   -0.00011
AFIX  43
H22   2    0.321194    0.084680    0.461495    11.00000   -1.20000
AFIX   0
C29   1    0.341324   -0.113142    0.438464    11.00000    0.07918    0.08485 =
         0.16145    0.02263    0.03451   -0.03394
AFIX  43
H29   2    0.342888   -0.140538    0.462493    11.00000   -1.20000
AFIX   0
C14   1    0.235600    0.167506    0.607801    11.00000    0.12428    0.06083 =
         0.13364   -0.02583    0.02001    0.02028
C55   1    0.686966    0.985394    0.442906    11.00000    0.09759    0.04739 =
         0.15015   -0.02196    0.04218   -0.01117
AFIX  43
H55   2    0.683788    0.980432    0.470441    11.00000   -1.20000
AFIX   0
C44   1    0.602483    0.692795    0.369152    11.00000    0.08931    0.07533 =
         0.14646   -0.01984    0.03874   -0.01424
AFIX  43
H44   2    0.630460    0.707259    0.376096    11.00000   -1.20000
AFIX   0
C38   1    0.463506    0.240501    0.343054    11.00000    0.12965    0.07310 =
         0.19679    0.03303    0.09186    0.00816
AFIX  43
H38   2    0.487775    0.222636    0.337393    11.00000   -1.20000
AFIX   0
O6    5    0.331541    0.817408    0.656290    11.00000    0.10241    0.14119 =
         0.25154    0.04245    0.02257   -0.02704
C34   1    0.404312    0.226454    0.373494    11.00000    0.10743    0.05395 =
         0.13147    0.00716    0.05314   -0.00565
C21   1    0.343975    0.180265    0.455101    11.00000    0.08242    0.08902 =
         0.11611    0.02043    0.01551    0.00250
C7    1    0.267013    0.533492    0.561845    11.00000    0.09377    0.10970 =
         0.20816    0.05144    0.04662    0.01105
AFIX  43
H7    2    0.262084    0.564934    0.539250    11.00000   -1.20000
AFIX   0
C72   1    0.330404    0.821782    0.615101    11.00000    0.09380    0.06571 =
         0.26155   -0.00416    0.03559   -0.00678
O22   5    0.310974   -0.249487    0.361390    11.00000    0.14410    0.11707 =
         0.30003   -0.08907   -0.00097    0.01913
C12   1    0.299756    0.245054    0.534604    11.00000    0.13573    0.13931 =
         0.10714    0.00759    0.01443    0.06685
C60   1    0.663969    0.959823    0.367949    11.00000    0.14826    0.09445 =
         0.13103    0.00799    0.04841   -0.00872
AFIX  43
H60   2    0.646675    0.936981    0.344528    11.00000   -1.20000
AFIX   0
C71   1    0.370424    0.855989    0.609630    11.00000    0.09163    0.06186 =
         0.24476    0.02064    0.03499   -0.00356
C73   1    0.374276    0.855119    0.567072    11.00000    0.08406    0.07506 =
         0.20922   -0.00830   -0.01180   -0.00597
AFIX  43
H73   2    0.353025    0.835980    0.545210    11.00000   -1.20000
AFIX   0
C61   1    0.530898    0.949240    0.537687    11.00000    0.09124    0.14369 =
         0.11234    0.00873    0.02089    0.03253
C1    1    0.268412    0.628171    0.612846    11.00000    0.11023    0.07826 =
         0.31846    0.00668    0.07029   -0.00710
C79   1    0.595074    1.305398    0.665182    11.00000    0.10162    0.08978 =
         0.25079    0.01118    0.08366   -0.00220
C43   1    0.591557    0.629046    0.346390    11.00000    0.09194    0.08435 =
         0.13941   -0.02734    0.04235   -0.00761
AFIX  43
H43   2    0.612184    0.601342    0.339801    11.00000   -1.20000
AFIX   0
C41   1    0.537299    0.546647    0.307920    11.00000    0.09915    0.08017 =
         0.12298   -0.01006    0.03455   -0.01728
C11   1    0.278523    0.199815    0.554645    11.00000    0.15338    0.09359 =
         0.09881   -0.01956    0.00704    0.05367
AFIX  43
H11   2    0.276857    0.153209    0.546644    11.00000   -1.20000
AFIX   0
C57   1    0.723445    1.035862    0.398761    11.00000    0.13162    0.05325 =
         0.26445    0.03232    0.09445   -0.00136
C15   1    0.238696    0.174061    0.647850    11.00000    0.10294    0.07463 =
         0.13003   -0.03051    0.02476   -0.01346
AFIX  43
H15   2    0.254437    0.209324    0.664256    11.00000   -1.20000
AFIX   0
C36   1    0.409997    0.328211    0.332791    11.00000    0.12639    0.06800 =
         0.15349    0.02952    0.06957    0.00745
AFIX  43
H36   2    0.397256    0.368334    0.319293    11.00000   -1.20000
AFIX   0
C6    1    0.270697    0.465314    0.555339    11.00000    0.07971    0.11566 =
         0.16270    0.02344    0.02595   -0.00140
AFIX  43
H6    2    0.268075    0.450892    0.527361    11.00000   -1.20000
AFIX   0
C2    1    0.270665    0.555018    0.602057    11.00000    0.06738    0.08396 =
         0.24417    0.01499    0.05242   -0.01108
C74   1    0.411975    0.884592    0.557837    11.00000    0.10317    0.08140 =
         0.13985   -0.00365   -0.01099   -0.01100
AFIX  43
H74   2    0.415025    0.884222    0.530103    11.00000   -1.20000
AFIX   0
C77   1    0.566499    1.182410    0.668832    11.00000    0.09282    0.09977 =
         0.16270   -0.00006    0.05888   -0.01240
AFIX  43
H77   2    0.569347    1.190405    0.697763    11.00000   -1.20000
AFIX   0
C39   1    0.442348    0.202689    0.367207    11.00000    0.12636    0.05782 =
         0.16445    0.02447    0.07945    0.00548
AFIX  43
H39   2    0.453621    0.160812    0.379442    11.00000   -1.20000
AFIX   0
C20   1    0.212008    0.116706    0.583007    11.00000    0.16222    0.04688 =
         0.14859   -0.01642   -0.01952    0.02343
AFIX  43
H20   2    0.209254    0.116001    0.553698    11.00000   -1.20000
AFIX   0
C56   1    0.718611    1.026029    0.436266    11.00000    0.10890    0.05730 =
         0.22806   -0.00386    0.05022   -0.02381
AFIX  43
H56   2    0.737172    1.047159    0.459565    11.00000   -1.20000
AFIX   0
C70   1    0.401802    0.882472    0.639093    11.00000    0.09374    0.10082 =
         0.18828    0.01322    0.05742   -0.01296
AFIX  43
H70   2    0.400044    0.881130    0.667265    11.00000   -1.20000
AFIX   0
C80   1    0.570638    1.225307    0.602222    11.00000    0.07373    0.11324 =
         0.18392    0.04921    0.03822   -0.01502
AFIX  43
H80   2    0.576160    1.261103    0.585150    11.00000   -1.20000
AFIX   0
C78   1    0.577657    1.235672    0.643804    11.00000    0.07023    0.08939 =
         0.18945    0.02958    0.04396    0.00233
O10   5    0.631341    1.456290    0.768465    11.00000    0.16694    0.19904 =
         0.25582   -0.02103    0.10794   -0.06053
AFIX   7
H10A  2    0.647146    1.422472    0.795797    11.00000   -1.50000
H10B  2    0.601799    1.458084    0.779109    11.00000   -1.50000
AFIX   0
C3    1    0.279048    0.509420    0.635895    11.00000    0.12523    0.08405 =
         0.17412   -0.02588    0.05515   -0.01437
AFIX  43
H3    2    0.282497    0.525202    0.663738    11.00000   -1.20000
AFIX   0
C19   1    0.193088    0.068557    0.600563    11.00000    0.15966    0.04701 =
         0.20141   -0.03193    0.00126    0.00585
AFIX  43
H19   2    0.179349    0.031466    0.584288    11.00000   -1.20000
AFIX   0
C17   1    0.193959    0.073963    0.643305    11.00000    0.09245    0.06652 =
         0.22540   -0.03719    0.04270    0.00307
C35   1    0.390834    0.289520    0.359112    11.00000    0.12299    0.06232 =
         0.16628    0.01504    0.08270   -0.00099
AFIX  43
H35   2    0.367874    0.308529    0.366832    11.00000   -1.20000
AFIX   0
C59   1    0.697753    1.007077    0.363772    11.00000    0.14324    0.13606 =
         0.19005    0.07235    0.08327    0.02293
AFIX  43
H59   2    0.701353    1.017067    0.336868    11.00000   -1.20000
AFIX   0
C32   1    0.333242   -0.102202    0.364777    11.00000    0.13370    0.10630 =
         0.14286   -0.00940    0.00774    0.00976
AFIX  43
H32   2    0.328551   -0.122002    0.337740    11.00000   -1.20000
AFIX   0
C16   1    0.216933    0.124896    0.665051    11.00000    0.13394    0.11598 =
         0.18655   -0.04925    0.07758   -0.04374
AFIX  43
H16   2    0.218648    0.128035    0.694103    11.00000   -1.20000
AFIX   0
O3    5    0.271152    0.789141    0.718290    11.00000    0.25096    0.31524 =
         0.21666   -0.03073    0.09430    0.05541
C18   1    0.171636    0.019465    0.661447    11.00000    0.12952    0.09651 =
         0.29077   -0.05389    0.08742   -0.02083
C31   1    0.327534   -0.220879    0.393193    11.00000    0.09207    0.09363 =
         0.23977   -0.01648    0.04052    0.00701
O13   5    0.793132    1.089179    0.428433    11.00000    0.16224    0.13323 =
         0.38780   -0.03462    0.14693   -0.05013
O14   5    0.762197    1.109558    0.365485    11.00000    0.15519    0.16982 =
         0.44976    0.17528    0.20454    0.08400
C58   1    0.760448    1.080241    0.396935    11.00000    0.13268    0.13519 =
         0.34788    0.05866    0.13878    0.01538
O4    5    0.223005    0.771953    0.506463    11.00000    0.45432    0.62477 =
         0.17077    0.15874   -0.09737   -0.36428
O9    5    0.690980    1.359982    0.725747    11.00000    0.09964    0.26205 =
         0.66653   -0.16451    0.03012    0.02795
O12   5    0.608946    1.403359    0.550561    11.00000    0.27245    0.25045 =
         0.31773    0.09334    0.01816   -0.01410
HKLF 4




REM  sn15_a.res in C2/c
REM wR2 = 0.3422, GooF = S = 0.909, Restrained GooF = 0.923 for all data
REM R1 = 0.1068 for 7168 Fo > 4sig(Fo) and 0.1747 for all 17166 data
REM 1015 parameters refined using 1059 restraints

END

WGHT      0.1979      0.0000

REM Highest difference peak  1.912,  deepest hole -0.802,  1-sigma level  0.108
Q1    1   0.6133  1.4332  0.7202  11.00000  0.05    1.91
;
_shelx_res_checksum              9811
_shelx_fab_file
;
-38 0 2 1.8669 0.5622
-38 0 4 -1.1865 -0.7675
-38 0 6 3.8769 0.7546
-38 0 8 0.7223 -0.7373
-38 0 10 -7.3136 0.5186
-38 0 12 0.9083 0.0370
-38 0 14 -6.7327 0.5692
-38 0 16 -3.3274 -0.5469
-38 2 3 3.1935 0.2649
-38 2 4 -5.2491 -0.1455
-38 2 5 -10.8283 -0.8139
-38 2 6 10.4954 0.4381
-38 2 7 10.0006 0.2606
-38 2 8 -6.5873 -0.0304
-38 2 9 -9.3819 0.1177
-38 2 10 0.6561 0.3029
-38 2 11 2.6499 0.6322
-38 2 12 -6.8677 -0.4365
-38 2 13 1.0587 -0.2712
-38 2 14 -1.0581 -0.0584
-38 2 15 0.6902 0.3452
-38 2 16 -5.0273 0.4724
-38 2 17 0.4474 -1.3105
-38 4 5 -10.4245 -0.2930
-38 4 6 5.7033 -0.4878
-38 4 7 0.1544 0.5250
-38 4 8 -4.7224 0.5559
-38 4 9 1.7971 -1.0728
-38 4 10 4.1009 -0.0110
-38 4 11 0.8348 1.1752
-38 4 12 -6.4810 0.5767
-38 4 13 -3.5756 -0.6226
-38 4 14 -3.2016 -0.7334
-37 1 1 4.8552 1.2228
-37 1 2 -3.1586 0.8864
-37 1 3 -3.6157 -0.0212
-37 1 4 4.1986 -0.0953
-37 1 5 5.3160 0.1873
-37 1 6 -1.2477 0.0926
-37 1 7 -6.7460 -0.5447
-37 1 8 -0.6645 0.2041
-37 1 9 3.0852 0.0959
-37 1 10 1.8089 0.3360
-37 1 11 -7.2214 0.4993
-37 1 12 -6.8592 -0.1017
-37 1 13 -2.6702 -0.4415
-37 1 14 0.6978 -0.1670
-37 1 15 0.4666 0.1640
-37 1 16 -7.1488 -0.1673
-37 1 17 -4.3785 -0.0649
-37 1 18 -5.7590 0.6953
-37 1 19 -1.0199 -0.3102
-37 1 20 2.8027 -0.2372
-37 1 21 6.4596 0.8877
-37 3 1 4.0930 -0.2923
-37 3 2 0.4919 -0.0907
-37 3 3 -9.0119 0.0801
-37 3 4 5.8706 -0.3943
-37 3 5 4.4376 -0.2676
-37 3 6 2.2891 -0.0695
-37 3 7 -14.4160 -0.3740
-37 3 8 8.6091 0.3269
-37 3 9 7.8161 0.2700
-37 3 10 -3.1202 -0.1336
-37 3 11 -3.6825 0.2932
-37 3 12 -6.1823 -0.1774
-37 3 13 -2.3333 0.2313
-37 3 14 -2.9435 0.1112
-37 3 15 2.0637 -0.5604
-37 3 16 -3.0043 0.0367
-37 3 17 -0.9772 -0.0678
-37 3 18 1.1459 -0.3600
-37 3 19 2.8523 0.3026
-37 3 20 -4.0578 0.5185
-37 5 2 1.2704 -0.2194
-37 5 3 6.1686 0.0654
-37 5 4 4.0911 0.1096
-37 5 5 -3.6868 -0.0651
-37 5 6 -1.6718 -0.7088
-37 5 7 1.6145 0.6183
-37 5 8 4.0437 0.5022
-37 5 9 -5.3583 -1.0351
-37 5 10 -1.1368 0.2102
-37 5 11 5.4425 0.5132
-37 5 12 0.8789 0.3264
-37 5 13 -0.4063 -0.3727
-37 5 14 5.2954 -0.3981
-37 5 15 1.2674 1.6134
-37 5 16 -6.5591 -0.7110
-37 5 17 2.5055 -0.5597
-37 7 8 7.8326 -0.4535
-37 7 9 -1.3583 -0.2734
-37 7 10 5.4927 -0.3947
-37 7 11 -6.1394 0.2898
-36 0 2 3.6912 2.9029
-36 0 4 -1.0745 -2.9406
-36 0 6 2.4514 3.3994
-36 0 8 -4.1288 -2.7556
-36 0 10 -10.0966 1.8150
-36 0 12 7.4995 -1.2728
-36 0 14 -5.2697 0.5275
-36 0 16 -6.8562 -0.3734
-36 0 18 -3.9310 0.4897
-36 0 20 1.6039 -0.5688
-36 0 22 -0.1455 1.8766
-36 2 1 7.1695 0.2366
-36 2 2 -2.9531 0.1926
-36 2 3 5.4161 -0.3960
-36 2 4 2.0644 0.7555
-36 2 5 -3.7660 0.4036
-36 2 6 2.3404 -0.9893
-36 2 7 4.0748 -0.6325
-36 2 8 3.6703 0.6421
-36 2 9 -3.4478 0.1333
-36 2 10 5.3072 -0.0516
-36 2 11 -5.0442 0.1001
-36 2 12 -2.0659 0.0134
-36 2 13 -4.5118 0.3332
-36 2 14 -5.4462 -0.4275
-36 2 15 -1.8186 -0.3221
-36 2 16 3.1439 0.1865
-36 2 17 -1.4317 0.1386
-36 2 18 -15.6634 0.0751
-36 2 19 -2.4105 -0.1836
-36 2 20 0.5144 0.3252
-36 2 21 1.8174 0.2379
-36 2 22 -6.4303 -0.2670
-36 2 23 3.3876 -0.1830
-36 4 1 -2.4850 -0.1675
-36 4 2 18.0806 -0.2985
-36 4 3 -6.4176 0.0991
-36 4 4 5.5586 -0.1046
-36 4 5 -2.2276 -0.1221
-36 4 6 6.0747 0.4672
-36 4 7 -9.9682 0.1719
-36 4 8 2.9410 -0.6858
-36 4 9 2.7434 -0.0813
-36 4 10 1.8876 0.4140
-36 4 11 0.8162 -0.0441
-36 4 12 2.4186 0.0010
-36 4 13 -3.0954 -0.1139
-36 4 14 -8.3197 -0.3120
-36 4 15 0.3189 -0.2002
-36 4 16 8.7323 0.3066
-36 4 17 -2.5982 0.2582
-36 4 18 -4.2465 -0.5670
-36 4 19 3.9132 -0.0809
-36 4 20 0.3670 0.1287
-36 4 21 -1.4982 0.0134
-36 6 1 5.1678 -0.4199
-36 6 2 -1.8884 -0.7425
-36 6 3 5.3329 0.4647
-36 6 4 -1.9662 0.5232
-36 6 5 3.0969 -0.0637
-36 6 6 2.3142 -1.4745
-36 6 7 1.4868 0.1632
-36 6 8 2.7523 0.5956
-36 6 9 0.5538 -0.7504
-36 6 10 5.4852 -0.1385
-36 6 11 -4.5132 0.2592
-36 6 12 5.4379 0.1159
-36 6 13 5.2422 0.2419
-36 6 14 0.8039 0.2219
-36 6 15 6.2937 0.5949
-36 6 16 5.6849 -0.2345
-36 6 17 6.7824 -0.3090
-36 6 18 0.0621 0.4961
-36 6 19 5.0539 -0.0621
-36 8 4 0.9111 0.5714
-36 8 5 -2.1627 -0.1970
-36 8 6 -1.5894 -1.0080
-36 8 7 -5.8036 -0.0639
-36 8 8 9.9629 0.3091
-36 8 9 -0.9975 0.7650
-36 8 10 0.0083 -0.6558
-36 8 11 -3.5537 -0.4936
-36 8 12 3.7464 0.4103
-36 8 13 -7.3767 0.0143
-36 8 14 -2.9713 0.6021
-35 1 1 -4.5345 -0.2028
-35 1 2 5.8937 1.2827
-35 1 3 1.5156 -0.3315
-35 1 4 -1.1052 -0.6150
-35 1 5 -2.0799 0.1279
-35 1 6 -2.6866 0.6967
-35 1 7 7.5049 -0.3286
-35 1 8 -0.1612 -0.8231
-35 1 9 -5.8145 0.4554
-35 1 10 -5.0490 0.2199
-35 1 11 -1.3595 -0.3041
-35 1 12 -0.8735 0.1180
-35 1 13 -9.7516 -0.0942
-35 1 14 6.1098 -0.1003
-35 1 15 -2.5968 0.1639
-35 1 16 -10.8729 -0.4370
-35 1 17 -5.1479 -0.0842
-35 1 18 -3.6208 0.5014
-35 1 19 -4.3227 0.0887
-35 1 20 -8.7010 -0.2528
-35 1 21 -0.8451 -0.2253
-35 1 22 3.3984 -0.1036
-35 1 23 2.5521 0.3996
-35 1 24 -4.2541 0.1907
-35 1 25 -0.6548 0.1887
-35 3 1 -7.0229 -0.1242
-35 3 2 1.4050 -1.0159
-35 3 3 7.2869 0.1760
-35 3 4 1.1403 0.4933
-35 3 5 -3.3420 -0.1703
-35 3 6 2.3119 -0.0883
-35 3 7 -1.6652 -0.0882
-35 3 8 7.7129 0.1284
-35 3 9 3.7730 0.2215
-35 3 10 -1.6217 -0.2729
-35 3 11 -3.5923 -0.4629
-35 3 12 9.4594 -0.0621
-35 3 13 2.6400 0.5641
-35 3 14 -5.4520 -0.1792
-35 3 15 -5.0240 -0.8128
-35 3 16 -1.9174 0.1896
-35 3 17 1.1980 0.4359
-35 3 18 6.6037 0.0013
-35 3 19 0.5315 -0.0737
-35 3 20 -15.0735 0.2160
-35 3 21 -2.4430 -0.1710
-35 3 22 2.4215 -0.5075
-35 3 23 2.9591 -0.5005
-35 3 24 -1.1483 0.7602
-35 5 1 -3.7250 -0.4730
-35 5 2 7.9245 0.3683
-35 5 3 -5.9527 0.4164
-35 5 4 6.0152 -0.2785
-35 5 5 2.6482 0.0199
-35 5 6 9.2208 0.2694
-35 5 7 -3.6279 0.1891
-35 5 8 -1.0479 -0.1179
-35 5 9 -1.4623 -0.2534
-35 5 10 7.7720 -0.1025
-35 5 11 -0.4883 0.0623
-35 5 12 -0.2592 0.3058
-35 5 13 -0.1627 -0.4450
-35 5 14 10.5077 0.0664
-35 5 15 1.7543 0.4456
-35 5 16 -2.2808 -0.1793
-35 5 17 1.0328 -0.2181
-35 5 18 0.6486 0.2578
-35 5 19 4.1009 0.5626
-35 5 20 -2.7914 -0.3676
-35 5 21 0.0457 -0.4142
-35 5 22 -2.6829 0.2518
-35 5 23 1.0824 1.2601
-35 7 1 -0.5154 0.1780
-35 7 2 -2.2153 -0.4802
-35 7 3 8.2858 0.1455
-35 7 4 -8.9393 0.0878
-35 7 5 -0.4125 -0.3138
-35 7 6 0.7136 -0.7641
-35 7 7 1.9137 0.5168
-35 7 8 2.4752 0.1409
-35 7 9 1.9487 -0.4497
-35 7 10 7.9705 -0.1148
-35 7 11 -5.3951 0.1035
-35 7 12 4.5267 0.0085
-35 7 13 8.5547 0.2489
-35 7 14 -4.7472 -0.0482
-35 7 15 -0.4918 -0.0741
-35 7 16 7.8985 0.6691
-35 7 17 16.5010 -0.4778
-35 7 18 6.2526 -0.0862
-35 7 19 -0.7196 -0.4167
-35 7 20 0.0842 0.5652
-35 9 2 0.8027 0.2772
-35 9 3 0.8728 -0.7639
-35 9 4 8.8745 -0.1493
-35 9 5 -8.3426 0.4269
-35 9 6 -6.2609 -0.0242
-35 9 7 7.9485 -0.4243
-35 9 8 3.9857 -0.2398
-35 9 9 -12.0178 0.7163
-35 9 10 -1.6335 -0.5249
-35 9 11 -0.7751 -0.1561
-35 9 12 3.8792 0.7616
-35 9 13 1.5331 -0.2151
-35 9 14 -13.2255 0.0044
-35 9 15 -11.7397 -0.8577
-35 9 16 0.4398 -0.1038
-34 0 2 1.1539 -0.0728
-34 0 4 3.7415 -0.5088
-34 0 6 -6.3190 1.6451
-34 0 8 -10.1845 -3.6544
-34 0 10 -7.0707 4.2394
-34 0 12 -12.8712 -4.9445
-34 0 14 -0.8400 4.1260
-34 0 16 -1.3373 -3.1121
-34 0 18 -15.6978 1.5732
-34 0 20 -1.5163 -0.7762
-34 0 22 5.1829 0.5319
-34 0 24 -1.7664 -0.8300
-34 0 26 11.7134 0.8429
-34 2 1 3.6138 -0.0387
-34 2 2 -0.9435 0.2295
-34 2 3 -7.2084 -0.2603
-34 2 4 -2.9497 -0.2109
-34 2 5 1.4667 -0.1467
-34 2 6 -1.3036 -0.4054
-34 2 7 0.1395 0.1073
-34 2 8 -3.5776 1.0028
-34 2 9 6.8083 0.3822
-34 2 10 6.5413 -1.2113
-34 2 11 -0.8627 -0.6491
-34 2 12 4.9604 0.9187
-34 2 13 -9.9693 0.3997
-34 2 14 2.0764 -0.3989
-34 2 15 3.5978 -0.1794
-34 2 16 4.6394 0.3318
-34 2 17 0.3273 0.3010
-34 2 18 -5.8568 -0.4093
-34 2 19 -4.5805 0.4331
-34 2 20 -8.6718 0.5364
-34 2 21 0.1734 0.0275
-34 2 22 -3.5678 -0.5300
-34 2 23 0.8077 -0.3590
-34 2 24 -5.1782 -0.1425
-34 2 25 -2.6090 0.4065
-34 2 26 -1.2013 0.0612
-34 4 1 8.1770 0.0219
-34 4 2 -1.7496 -0.5680
-34 4 3 -4.2537 -0.0006
-34 4 4 17.8536 0.4551
-34 4 5 -2.9894 0.1774
-34 4 6 -6.9911 0.0421
-34 4 7 8.8458 0.2140
-34 4 8 4.5866 0.1657
-34 4 9 -10.0211 -0.1623
-34 4 10 1.6855 0.1281
-34 4 11 11.2207 -0.0633
-34 4 12 -1.1795 -0.6696
-34 4 13 -3.7368 0.0208
-34 4 14 6.3817 0.5424
-34 4 15 -5.0596 -0.2907
-34 4 16 -4.2089 -0.0255
-34 4 17 0.8463 -0.1498
-34 4 18 -1.6580 -0.0374
-34 4 19 -4.6449 0.1369
-34 4 20 -2.3315 0.1263
-34 4 21 2.5058 -0.0736
-34 4 22 -3.3629 -0.2516
-34 4 23 -0.1006 -0.4685
-34 4 24 9.8299 0.3865
-34 4 25 -2.9915 0.1539
-34 6 1 -3.3304 -0.3053
-34 6 2 7.1639 0.4061
-34 6 3 0.5345 0.1043
-34 6 4 -10.6769 -0.1432
-34 6 5 -5.7643 -0.0815
-34 6 6 7.5922 0.0559
-34 6 7 5.5298 0.1326
-34 6 8 -4.4215 -0.1400
-34 6 9 -8.2370 -0.4520
-34 6 10 14.1301 -0.0972
-34 6 11 4.7484 0.4284
-34 6 12 2.1807 0.4613
-34 6 13 -4.6795 -0.6366
-34 6 14 2.1457 -0.3218
-34 6 15 15.4446 0.5628
-34 6 16 7.7451 0.1383
-34 6 17 4.2538 -0.4406
-34 6 18 -2.1508 0.1019
-34 6 19 1.3168 0.2325
-34 6 20 1.8337 -0.3584
-34 6 21 4.2229 0.2338
-34 6 22 -7.8112 0.2667
-34 6 23 -3.6518 0.3653
-34 6 24 5.5160 -0.9626
-34 8 1 12.4424 -0.0544
-34 8 2 7.6109 -0.2616
-34 8 3 -1.5334 0.4796
-34 8 4 -2.6513 -0.0428
-34 8 5 13.8374 -0.4009
-34 8 6 7.9028 -0.0815
-34 8 7 -8.1706 0.3383
-34 8 8 -6.5868 -0.0005
-34 8 9 6.9987 0.1802
-34 8 10 8.8915 0.2599
-34 8 11 -5.7741 -0.0539
-34 8 12 -7.8278 -0.4831
-34 8 13 -0.2349 0.1650
-34 8 14 1.6409 0.3433
-34 8 15 2.5249 -0.1426
-34 8 16 -8.9573 0.2338
-34 8 17 -5.8837 -0.2405
-34 8 18 6.7288 -0.1619
-34 8 19 12.3525 0.0682
-34 8 20 6.1412 0.4200
-34 8 21 -2.6890 -0.1072
-34 10 1 -13.3605 0.1284
-34 10 2 3.7552 0.2111
-34 10 3 4.1741 -0.9100
-34 10 4 -5.1930 -0.1522
-34 10 5 -12.0118 0.4021
-34 10 6 3.2464 0.1457
-34 10 7 13.0003 -0.2500
-34 10 8 -3.1523 -0.6072
-34 10 9 -1.3998 0.7111
-34 10 10 2.6755 -0.1663
-34 10 11 -1.7078 -0.5458
-34 10 12 0.1544 0.3787
-34 10 13 -0.1402 -0.3469
-34 10 14 0.0190 0.2088
-34 10 15 9.2049 0.4315
-33 1 1 -7.2697 -0.7357
-33 1 2 -0.0357 -0.2452
-33 1 3 -6.6574 0.6141
-33 1 4 0.3318 -0.5199
-33 1 5 -5.3632 -0.3619
-33 1 6 -6.0542 0.7378
-33 1 7 0.8849 0.2033
-33 1 8 -2.9308 -1.3026
-33 1 9 3.7176 0.1070
-33 1 10 -11.5639 1.0196
-33 1 11 2.7156 0.1358
-33 1 12 0.8310 -0.7589
-33 1 13 -0.3573 -0.2069
-33 1 14 -3.4149 0.4256
-33 1 15 -5.0818 0.1863
-33 1 16 1.4695 0.3624
-33 1 17 10.2675 0.1384
-33 1 18 -6.7025 0.0404
-33 1 19 -1.5001 -0.0475
-33 1 20 -1.1437 -0.4556
-33 1 21 -3.1536 -0.0948
-33 1 22 -6.0670 0.8728
-33 1 23 0.2297 0.2237
-33 1 24 8.7873 -0.3571
-33 1 25 -1.4202 -0.3945
-33 1 26 -4.3989 -0.1947
-33 1 27 -1.8173 0.4027
-33 1 28 7.3151 0.0419
-33 3 1 0.8291 0.6494
-33 3 2 5.0447 -0.2967
-33 3 3 -1.6376 -1.3216
-33 3 4 -5.0354 0.4791
-33 3 5 1.5159 0.8681
-33 3 6 0.9200 -0.8137
-33 3 7 1.2510 -0.3188
-33 3 8 -6.7489 0.9371
-33 3 9 8.0552 0.3195
-33 3 10 5.6248 -0.4700
-33 3 11 1.0657 -0.0858
-33 3 12 -1.1243 0.5553
-33 3 13 -0.2066 -0.1106
-33 3 14 8.1116 -0.6851
-33 3 15 -0.6560 -0.0318
-33 3 16 -5.5682 0.5025
-33 3 17 -4.6733 0.4682
-33 3 18 -2.3394 -0.4692
-33 3 19 7.4941 -0.4409
-33 3 20 -2.3501 0.1410
-33 3 21 -4.3749 0.6343
-33 3 22 -14.5742 -0.3970
-33 3 23 2.9365 -0.7111
-33 3 24 10.3708 0.0723
-33 3 25 5.2690 0.4481
-33 3 26 -5.7475 -0.0108
-33 3 27 -10.1679 -0.1435
-33 5 1 -4.1247 -0.1152
-33 5 2 9.1564 -0.0632
-33 5 3 -6.9686 0.3864
-33 5 4 -2.4983 -0.2271
-33 5 5 2.8925 -0.2513
-33 5 6 0.4614 0.6528
-33 5 7 -7.5827 0.1173
-33 5 8 1.5369 0.0736
-33 5 9 3.7395 -0.1945
-33 5 10 -9.3447 -0.3428
-33 5 11 -8.6372 0.1464
-33 5 12 13.6846 -0.1716
-33 5 13 7.3085 -0.1635
-33 5 14 -7.0309 0.5203
-33 5 15 -1.4485 0.1699
-33 5 16 1.6089 -0.2144
-33 5 17 0.5755 -0.4032
-33 5 18 -2.8186 0.2299
-33 5 19 -2.7642 0.6222
-33 5 20 -13.3552 -0.1692
-33 5 21 -0.2615 -0.5660
-33 5 22 9.1239 0.0542
-33 5 23 -4.4102 0.7914
-33 5 24 1.2812 -0.0008
-33 5 25 2.0756 -0.2838
-33 5 26 17.5985 0.1142
-33 7 1 2.1235 -0.1655
-33 7 2 10.5083 0.3516
-33 7 3 9.0944 0.2423
-33 7 4 -2.1451 -0.0527
-33 7 5 1.4567 -0.0717
-33 7 6 -3.8630 0.0739
-33 7 7 -1.2386 0.2775
-33 7 8 8.5400 -0.0613
-33 7 9 -2.6975 -0.3680
-33 7 10 0.1515 0.3141
-33 7 11 0.7846 0.4127
-33 7 12 5.5919 0.1418
-33 7 13 4.8520 -0.2986
-33 7 14 -3.5709 -0.2704
-33 7 15 -1.8915 0.0847
-33 7 16 0.1437 -0.1404
-33 7 17 9.9613 -0.0320
-33 7 18 10.2571 0.0722
-33 7 19 -2.9544 -0.2575
-33 7 20 0.5162 0.0427
-33 7 21 2.0686 -0.0640
-33 7 22 -1.0399 -0.7363
-33 7 23 0.2264 0.4318
-33 7 24 -3.0982 0.1881
-33 9 1 -1.5614 0.2748
-33 9 2 -8.2246 -0.0871
-33 9 3 -3.1635 -0.0895
-33 9 4 18.9217 -0.5293
-33 9 5 3.5247 -0.1017
-33 9 6 -8.7201 0.5899
-33 9 7 7.9056 0.1040
-33 9 8 5.0994 -0.5638
-33 9 9 -6.0607 -0.1818
-33 9 10 -5.4724 0.2779
-33 9 11 2.2900 0.3592
-33 9 12 3.2033 -0.1909
-33 9 13 -2.9552 -0.3127
-33 9 14 -9.2260 0.1091
-33 9 15 -7.6990 0.0524
-33 9 16 -6.7721 -0.0759
-33 9 17 -1.7868 0.4459
-33 9 18 -9.6681 0.1841
-33 9 19 -10.7156 -0.0337
-33 9 20 -3.0480 -0.4053
-33 9 21 8.1779 0.5725
-33 11 1 -6.2872 0.3742
-33 11 2 -4.3235 -0.0539
-33 11 3 -5.7810 -0.8191
-33 11 4 1.5005 0.4823
-33 11 5 5.5529 0.9303
-33 11 6 -5.6175 -0.2441
-33 11 7 4.1492 -0.5161
-33 11 8 2.1685 -0.3947
-33 11 9 5.8913 1.0664
-33 11 10 5.2395 -0.2706
-33 11 11 1.3161 -0.7665
-33 11 12 1.9661 0.5921
-33 11 13 4.5906 -0.2334
-33 11 14 1.8574 0.2226
-33 11 15 5.0602 -0.1581
-33 11 16 -9.8041 -0.8621
-32 0 2 -6.2028 -0.3661
-32 0 4 -0.0392 -0.3574
-32 0 6 -3.3448 0.0613
-32 0 8 -5.7387 -0.6847
-32 0 10 -4.9910 1.3907
-32 0 12 -15.3539 -2.4684
-32 0 14 -4.6495 4.1455
-32 0 16 1.7778 -5.2387
-32 0 18 -2.8976 5.6138
-32 0 20 -2.9450 -4.5490
-32 0 22 7.4390 2.7352
-32 0 24 4.0429 -1.5246
-32 0 26 3.1193 1.3106
-32 0 28 6.9253 -1.0240
-32 2 1 -15.3605 0.9713
-32 2 2 3.1934 0.4130
-32 2 3 -5.5005 -0.6738
-32 2 4 -1.7787 -1.1474
-32 2 5 -3.6341 0.2622
-32 2 6 5.7070 0.5817
-32 2 7 -5.1142 -0.0995
-32 2 8 -9.0656 0.2267
-32 2 9 6.2357 0.5929
-32 2 10 6.5529 -0.6125
-32 2 11 4.0539 -0.3159
-32 2 12 2.2075 1.2360
-32 2 13 -1.3097 0.1748
-32 2 14 1.6773 -1.1902
-32 2 15 0.0161 -0.2233
-32 2 16 -0.3835 1.2027
-32 2 17 6.2312 0.4339
-32 2 18 4.3944 -1.1750
-32 2 19 6.5726 -0.3788
-32 2 20 -11.5451 0.9771
-32 2 21 3.0615 0.3371
-32 2 22 5.7525 -0.6616
-32 2 23 -0.5270 -0.3041
-32 2 24 -7.9339 0.4960
-32 2 25 1.0615 0.2045
-32 2 26 2.6594 -0.4097
-32 2 27 3.8897 0.1299
-32 2 28 -7.6086 -0.0565
-32 2 29 -3.7480 0.0219
-32 4 1 3.3099 0.2667
-32 4 2 -5.9932 -0.2742
-32 4 3 2.7126 -0.4008
-32 4 4 10.6139 0.4571
-32 4 5 -0.5851 0.5645
-32 4 6 -13.6379 -0.5272
-32 4 7 2.8529 -0.6123
-32 4 8 -4.8129 0.6157
-32 4 9 6.3718 0.2328
-32 4 10 -5.4718 -0.3772
-32 4 11 -1.4951 0.0743
-32 4 12 -5.4304 -0.0693
-32 4 13 1.3356 -0.0343
-32 4 14 1.5589 0.0983
-32 4 15 2.0372 0.1465
-32 4 16 -7.7048 0.0869
-32 4 17 -7.5022 0.2112
-32 4 18 -10.1607 -0.0149
-32 4 19 -2.5591 -0.0499
-32 4 20 -7.6326 -0.2549
-32 4 21 3.3282 -0.0607
-32 4 22 -6.8352 0.2565
-32 4 23 0.8461 -0.0540
-32 4 24 6.5491 -0.0132
-32 4 25 0.3923 -0.0052
-32 4 26 6.7108 0.0772
-32 4 27 -0.1080 0.2867
-32 4 28 4.4908 0.3931
-32 6 1 -16.5271 -0.4469
-32 6 2 2.9454 -0.0944
-32 6 3 1.6605 0.4827
-32 6 4 -1.8031 -0.2871
-32 6 5 0.4259 -0.4949
-32 6 6 -1.4552 0.4348
-32 6 7 -9.0985 0.1255
-32 6 8 0.7102 -0.0897
-32 6 9 -4.6717 0.0423
-32 6 10 5.5836 0.0649
-32 6 11 -3.4492 -0.1106
-32 6 12 -3.3571 -0.0952
-32 6 13 2.9044 0.1513
-32 6 14 2.6978 0.0120
-32 6 15 5.1263 0.1816
-32 6 16 -5.2648 0.0433
-32 6 17 4.0624 -0.5986
-32 6 18 1.4892 -0.4083
-32 6 19 -0.1211 0.5557
-32 6 20 0.1607 0.1771
-32 6 21 -5.3355 -0.3068
-32 6 22 -1.2559 -0.2485
-32 6 23 4.9060 0.2339
-32 6 24 4.3930 -0.2509
-32 6 25 -8.6130 0.2811
-32 6 26 7.7780 0.1052
-32 6 27 4.7086 0.8664
-32 8 1 7.5548 -0.0092
-32 8 2 -7.3421 -0.0129
-32 8 3 -0.4716 0.1450
-32 8 4 9.7648 0.0055
-32 8 5 7.6508 0.2190
-32 8 6 -0.5841 0.2340
-32 8 7 -2.0475 0.2889
-32 8 8 0.1589 -0.2489
-32 8 9 -0.7492 -0.4637
-32 8 10 -5.4396 0.6080
-32 8 11 -7.1530 0.2533
-32 8 12 0.0197 -0.4872
-32 8 13 2.4500 -0.2095
-32 8 14 -3.9949 0.4359
-32 8 15 -4.5072 -0.0162
-32 8 16 -1.6868 -0.5757
-32 8 17 -19.1892 0.3638
-32 8 18 -2.8593 0.1779
-32 8 19 0.8655 -0.2621
-32 8 20 3.7068 0.3152
-32 8 21 -1.4574 -0.0040
-32 8 22 -4.9301 -0.1178
-32 8 23 -2.4764 -0.0822
-32 8 24 -2.3997 -0.3239
-32 10 1 -16.2494 0.3503
-32 10 2 -1.7516 0.2981
-32 10 3 -0.4800 -0.0573
-32 10 4 -6.7192 -0.1888
-32 10 5 -2.9557 -0.2498
-32 10 6 6.4328 -0.1076
-32 10 7 2.8287 0.1896
-32 10 8 -1.1907 0.2453
-32 10 9 17.4467 -0.0225
-32 10 10 -0.7429 -0.3152
-32 10 11 -10.3247 -0.0698
-32 10 12 5.7491 0.1186
-32 10 13 5.9365 -0.0851
-32 10 14 1.3454 0.1456
-32 10 15 -0.4120 0.0624
-32 10 16 -7.5643 0.1214
-32 10 17 0.8462 0.0622
-32 10 18 -12.3176 -0.3203
-32 10 19 -8.5764 0.1857
-32 10 20 -2.7529 -0.4296
-32 10 21 1.9107 0.3606
-32 12 1 2.3120 0.7179
-32 12 2 -5.5453 0.0310
-32 12 3 0.0918 -0.7278
-32 12 4 3.4095 0.5050
-32 12 5 -0.7323 0.5450
-32 12 6 1.7231 -0.7585
-32 12 7 11.3745 -0.3257
-32 12 8 -4.9942 -0.1785
-32 12 9 -2.2280 0.9647
-32 12 10 14.8786 -0.1847
-32 12 12 -4.1699 0.1685
-32 12 13 -1.5579 0.1945
-32 12 14 4.4883 0.4031
-32 12 15 2.0971 -0.8079
-32 12 16 -5.6809 -1.0000
-31 1 1 1.4374 0.6940
-31 1 2 0.1679 2.0708
-31 1 3 -3.4756 0.9136
-31 1 4 4.6210 0.0345
-31 1 5 -8.9663 -0.2948
-31 1 6 -1.1614 -0.6335
-31 1 7 7.3174 0.2976
-31 1 8 4.3306 0.3498
-31 1 9 -3.3078 -0.5049
-31 1 10 -3.8145 0.7412
-31 1 11 1.5345 0.6075
-31 1 12 -0.1519 -0.9852
-31 1 13 6.5080 -0.2821
-31 1 14 -5.2379 0.9390
-31 1 15 -3.3395 -0.1713
-31 1 16 0.7103 -0.5722
-31 1 17 8.6039 0.3054
-31 1 18 3.5567 0.2270
-31 1 19 7.2605 -0.1239
-31 1 20 5.6614 0.0225
-31 1 21 3.4090 -0.4058
-31 1 22 -2.4083 0.4724
-31 1 23 2.4869 0.3453
-31 1 24 12.5750 -0.5626
-31 1 25 1.0289 -0.0170
-31 1 26 -4.6533 0.7813
-31 1 27 -1.3537 -0.4511
-31 1 28 -1.2983 -0.4193
-31 1 29 3.4180 -0.0315
-31 1 30 -2.5107 0.0809
-31 3 1 -6.5662 0.6013
-31 3 2 1.0080 -0.0285
-31 3 3 -3.5158 -0.7551
-31 3 4 5.3470 -0.4080
-31 3 5 -6.6697 0.9171
-31 3 6 5.2153 0.0202
-31 3 7 4.7670 -1.2453
-31 3 8 -4.4150 0.2841
-31 3 9 -4.6105 1.1198
-31 3 10 -1.5203 -0.6742
-31 3 11 8.0378 -0.8496
-31 3 12 5.4432 0.9272
-31 3 13 -5.9691 0.8548
-31 3 14 -2.6787 -1.0287
-31 3 15 -0.8621 -0.7722
-31 3 16 -1.9774 0.9445
-31 3 17 -2.7211 0.5904
-31 3 18 -11.6843 -0.9019
-31 3 19 0.0864 -0.2303
-31 3 20 0.5419 0.3981
-31 3 21 2.0997 -0.0807
-31 3 22 -10.8623 -0.2220
-31 3 23 1.5396 -0.2748
-31 3 24 -2.4117 0.3252
-31 3 25 9.0661 0.5405
-31 3 26 5.9965 -0.6633
-31 3 27 2.1059 -0.4017
-31 3 28 -8.0500 0.4732
-31 3 29 -0.5528 0.3707
-31 5 1 11.7874 -0.3249
-31 5 2 7.8379 -0.4256
-31 5 3 -6.0866 0.4638
-31 5 4 -7.8977 0.4822
-31 5 5 4.2537 -0.3861
-31 5 6 -3.1555 -0.3475
-31 5 7 1.9077 0.2099
-31 5 8 -9.0641 -0.0543
-31 5 9 -5.8378 -0.2892
-31 5 10 -7.4565 0.2321
-31 5 11 2.7981 0.3173
-31 5 12 -5.9866 -0.3360
-31 5 13 -0.0065 -0.1603
-31 5 14 -6.6321 -0.0202
-31 5 15 4.0361 0.3473
-31 5 16 -0.6915 0.1752
-31 5 17 4.4822 -0.1209
-31 5 18 -11.1817 -0.0739
-31 5 19 1.1328 0.0334
-31 5 20 -3.8433 -0.0964
-31 5 21 0.2664 -0.2218
-31 5 22 -0.8312 0.2103
-31 5 23 5.5848 0.3288
-31 5 24 3.5039 -0.1143
-31 5 25 -4.4854 -0.6963
-31 5 26 7.8387 0.4662
-31 5 27 -2.3634 0.6616
-31 5 28 3.1205 0.1193
-31 7 1 -2.3067 -0.2981
-31 7 2 0.9513 0.3243
-31 7 3 4.0631 0.4620
-31 7 4 1.8245 -0.2730
-31 7 5 -2.7615 -0.1975
-31 7 6 1.4041 0.1421
-31 7 7 -2.6785 -0.1592
-31 7 8 3.2337 -0.0841
-31 7 9 -12.2513 0.1477
-31 7 10 -2.3539 0.2001
-31 7 11 1.3764 -0.1426
-31 7 12 3.8029 -0.1978
-31 7 13 -1.2569 0.0436
-31 7 14 -8.3332 0.0814
-31 7 15 -0.6389 -0.0129
-31 7 16 -1.4276 -0.0939
-31 7 17 -8.6414 -0.0385
-31 7 18 3.5180 -0.2893
-31 7 19 -7.2286 0.1162
-31 7 20 -1.9762 0.2044
-31 7 21 0.2981 0.0024
-31 7 22 2.5498 0.0825
-31 7 23 -3.2401 -0.1961
-31 7 24 -2.8287 -0.3098
-31 7 25 2.6497 0.2364
-31 7 26 -2.0724 0.0394
-31 7 27 -4.2060 0.2791
-31 9 1 -16.8274 -0.0331
-31 9 2 -5.3159 -0.1075
-31 9 3 -2.3320 0.1262
-31 9 4 -4.0883 -0.1408
-31 9 5 1.9540 0.0044
-31 9 6 3.8549 0.2065
-31 9 7 1.3508 0.4853
-31 9 8 -4.9746 -0.2778
-31 9 9 0.6234 -0.3896
-31 9 10 -5.4601 0.4480
-31 9 11 -0.8439 -0.1986
-31 9 12 -2.1771 -0.1259
-31 9 13 -0.9661 0.1471
-31 9 14 3.5648 0.1724
-31 9 15 -6.8229 0.0933
-31 9 16 1.3116 -0.4812
-31 9 17 -4.9693 -0.1215
-31 9 18 -11.5552 0.6289
-31 9 19 -5.9137 0.0363
-31 9 20 -2.3969 -0.2829
-31 9 21 -5.2232 0.0486
-31 9 22 -3.8000 0.2524
-31 9 23 7.5965 -0.1902
-31 9 24 0.6255 -0.0823
-31 9 25 -9.3730 0.1637
-31 11 1 11.0870 0.2165
-31 11 2 -6.1723 0.0865
-31 11 3 -13.2428 -0.2281
-31 11 4 -2.1981 0.2483
-31 11 5 1.6595 0.1606
-31 11 6 -0.3055 -0.2359
-31 11 7 9.4273 -0.2791
-31 11 8 -1.5009 0.1185
-31 11 9 1.4579 -0.1140
-31 11 10 2.9100 -0.4174
-31 11 11 9.1053 0.3660
-31 11 12 1.8715 0.4973
-31 11 13 -4.4519 -0.3613
-31 11 14 -0.1134 -0.3020
-31 11 15 2.6570 -0.1295
-31 11 16 -3.9905 0.3804
-31 11 17 1.4253 0.2237
-31 11 18 -2.5914 -0.5453
-31 11 19 1.1608 -0.2389
-31 11 20 0.4940 0.2617
-31 11 21 3.8506 0.6160
-31 13 1 4.7753 -0.0845
-31 13 2 0.4464 -0.2990
-31 13 3 2.6005 -0.2589
-31 13 4 -0.7164 0.2197
-31 13 5 2.2673 0.2252
-31 13 6 4.3132 -0.3527
-31 13 7 3.4533 0.0495
-31 13 12 3.5807 0.6577
-31 13 13 6.4355 0.1326
-31 13 14 -0.9837 -0.0115
-31 13 15 -4.5189 -0.0350
-30 0 2 1.2363 4.1817
-30 0 4 18.9589 -2.5798
-30 0 6 -3.0275 3.1833
-30 0 8 5.7034 -1.6694
-30 0 10 -1.3318 0.4717
-30 0 12 5.6186 0.2045
-30 0 14 -19.1598 0.6381
-30 0 16 9.4983 -2.0366
-30 0 18 2.7463 3.3536
-30 0 20 7.5878 -4.4351
-30 0 22 12.1781 4.8215
-30 0 24 -4.6101 -4.2361
-30 0 26 13.1049 2.9305
-30 0 28 -17.4222 -2.0368
-30 0 30 3.4298 1.6084
-30 2 1 3.5736 0.2784
-30 2 2 1.0043 -0.6929
-30 2 3 -16.0568 0.4922
-30 2 4 0.9473 1.1737
-30 2 5 4.5442 0.2203
-30 2 6 7.9745 -0.8678
-30 2 7 -5.7401 -0.6889
-30 2 8 2.4864 0.3403
-30 2 9 4.7211 0.5937
-30 2 10 7.9287 0.1882
-30 2 11 -5.9608 -0.9409
-30 2 12 -3.4408 -0.0996
-30 2 13 0.8165 1.0406
-30 2 14 8.4130 -0.3673
-30 2 15 -3.7822 -0.7388
-30 2 16 -8.2903 0.2818
-30 2 17 -1.6141 -0.0623
-30 2 18 0.9619 -0.6807
-30 2 19 4.9437 -0.1303
-30 2 20 -1.7072 1.1180
-30 2 21 -1.2515 0.2389
-30 2 22 2.1887 -1.2981
-30 2 23 5.9561 -0.7365
-30 2 24 1.1051 1.3283
-30 2 25 1.6872 0.5178
-30 2 26 -0.5983 -0.9632
-30 2 27 10.6708 -0.1918
-30 2 28 -0.2417 0.4625
-30 2 29 1.2112 -0.1958
-30 2 30 -4.2382 -0.0432
-30 2 31 -5.7880 0.1022
-30 4 1 -1.9365 0.9583
-30 4 2 5.7723 0.4442
-30 4 3 -0.2561 -0.4644
-30 4 4 7.5511 0.0230
-30 4 5 -5.7557 0.0939
-30 4 6 -2.8030 -0.0387
-30 4 7 7.1535 0.0443
-30 4 8 -4.8249 0.1068
-30 4 9 -3.2982 0.2134
-30 4 10 -9.6948 -0.7292
-30 4 11 0.7340 -0.4626
-30 4 12 0.3945 0.6477
-30 4 13 2.1715 0.5060
-30 4 14 -8.6919 -0.4042
-30 4 15 -1.4775 -0.4624
-30 4 16 3.2587 0.0955
-30 4 17 2.1028 0.4418
-30 4 18 -3.1819 0.1434
-30 4 19 -4.6117 -0.1036
-30 4 20 -9.8614 -0.0358
-30 4 21 9.6999 -0.1947
-30 4 22 1.5582 -0.1458
-30 4 23 -3.2028 -0.0170
-30 4 24 -6.2086 0.3123
-30 4 25 7.2095 0.3067
-30 4 26 0.4648 -0.1248
-30 4 27 -0.6925 -0.6147
-30 4 28 2.5639 -0.3748
-30 4 29 -1.2026 0.2463
-30 4 30 1.4079 0.5344
-30 6 1 0.8455 -0.6348
-30 6 2 -7.4435 -0.5119
-30 6 3 5.5576 0.8045
-30 6 4 5.1217 0.0002
-30 6 5 1.0359 -0.8392
-30 6 6 -1.5818 -0.2414
-30 6 7 0.0252 0.5186
-30 6 8 -1.9512 -0.1655
-30 6 9 -0.7097 -0.7181
-30 6 10 5.2056 0.2229
-30 6 11 -8.5181 0.7889
-30 6 12 -9.8943 -0.0962
-30 6 13 10.6326 -0.4286
-30 6 14 -0.7885 -0.0892
-30 6 15 -6.9012 0.2373
-30 6 16 -13.5520 0.1041
-30 6 17 5.9613 -0.1255
-30 6 18 3.0093 -0.1012
-30 6 19 1.6405 0.0701
-30 6 20 -5.3330 -0.0462
-30 6 21 2.0047 -0.3297
-30 6 22 1.6909 0.0981
-30 6 23 2.5815 0.3810
-30 6 24 4.3190 0.2974
-30 6 25 2.3278 -0.4864
-30 6 26 0.4798 -0.2594
-30 6 27 -8.2022 0.1289
-30 6 28 1.3617 0.5667
-30 6 29 -1.4657 -0.3064
-30 8 1 -0.4418 0.0608
-30 8 2 0.3633 0.4016
-30 8 3 -8.2204 -0.2432
-30 8 4 -4.3905 -0.2873
-30 8 5 3.9444 0.3655
-30 8 6 -0.2826 0.2877
-30 8 7 -5.8033 -0.4114
-30 8 8 -4.5223 -0.1437
-30 8 9 -3.4287 0.3529
-30 8 10 -8.1477 0.0686
-30 8 11 -6.1002 -0.4714
-30 8 12 -5.6830 -0.1764
-30 8 13 1.9992 0.0252
-30 8 14 4.3387 0.1424
-30 8 15 -0.6197 -0.0290
-30 8 16 1.4453 -0.5144
-30 8 17 -16.8575 0.1162
-30 8 18 -0.8539 0.5953
-30 8 19 -6.5971 -0.1312
-30 8 20 -1.2375 -0.3885
-30 8 21 -1.3372 0.2120
-30 8 22 -5.5917 0.4130
-30 8 23 1.0829 -0.2714
-30 8 24 -0.3113 -0.1134
-30 8 25 -8.7158 0.2469
-30 8 26 -7.1356 0.1323
-30 8 27 1.4728 -0.1604
-30 10 1 -4.5736 0.0641
-30 10 2 -0.2198 0.0776
-30 10 3 -0.4385 0.3477
-30 10 4 -6.3516 -0.2304
-30 10 5 -5.7570 -0.3446
-30 10 6 -1.9162 0.0336
-30 10 7 3.0384 0.4767
-30 10 8 -0.0442 -0.1551
-30 10 9 7.0069 -0.3108
-30 10 10 0.0718 0.3816
-30 10 11 5.4564 -0.0025
-30 10 12 -4.3885 -0.0677
-30 10 13 -4.7330 0.0177
-30 10 14 -0.1658 0.2148
-30 10 15 5.3651 0.4330
-30 10 16 0.4979 0.0574
-30 10 17 1.0719 -0.2552
-30 10 18 -9.1448 0.0087
-30 10 19 6.0694 0.0331
-30 10 20 -2.1836 0.2210
-30 10 21 0.8453 -0.1244
-30 10 22 0.5505 0.1938
-30 10 23 5.3522 0.4474
-30 10 24 5.5568 -0.5799
-30 12 1 -1.7054 0.1434
-30 12 2 1.6785 0.0832
-30 12 3 5.6830 -0.1966
-30 12 4 -0.7482 0.2793
-30 12 5 -5.5695 0.0336
-30 12 6 4.5791 -0.5056
-30 12 7 7.1482 -0.3113
-30 12 8 -12.5597 0.5978
-30 12 9 3.4040 0.3977
-30 12 10 5.0890 -0.6916
-30 12 11 0.5436 -0.2437
-30 12 12 -3.9040 0.7649
-30 12 13 -2.7419 0.4373
-30 12 14 -0.5035 -0.6642
-30 12 15 2.3863 -0.6542
-30 12 16 -8.7717 0.1112
-30 12 17 -11.0148 0.2505
-30 12 18 6.7282 0.0963
-30 12 19 4.1486 -0.4273
-30 12 20 1.5913 -0.6241
-30 12 21 4.0861 0.1826
-30 14 2 2.2622 0.8278
-30 14 3 -9.1531 0.2444
-30 14 4 0.4834 -0.4598
-30 14 6 -13.9785 0.0222
-30 14 7 -13.7255 0.1616
-30 14 8 12.2961 -0.7582
-30 14 9 -4.2294 0.2271
-30 14 10 -10.7097 0.4328
-30 14 11 -1.2448 -0.3231
-30 14 12 2.5668 0.2236
-30 14 13 -5.0122 -0.6270
-30 14 14 5.1730 0.7090
-29 1 1 -11.9281 -0.7754
-29 1 2 -0.9805 3.4870
-29 1 3 5.1351 -0.5081
-29 1 4 4.7565 -0.1904
-29 1 5 -7.8316 0.8078
-29 1 6 10.5394 -0.2641
-29 1 7 8.1625 -0.4720
-29 1 8 -3.0647 0.4127
-29 1 9 -6.6555 -0.6775
-29 1 10 4.5886 0.1542
-29 1 11 5.0204 0.8002
-29 1 12 -0.4356 -0.8455
-29 1 13 -8.5954 -1.0015
-29 1 14 -0.5715 1.0338
-29 1 15 4.4428 0.8284
-29 1 16 -9.4423 -1.1773
-29 1 17 -7.4279 -0.4688
-29 1 18 9.0434 0.5447
-29 1 19 5.5496 -0.2286
-29 1 20 1.0470 -0.1030
-29 1 21 -1.2550 0.1852
-29 1 22 2.5744 -0.0397
-29 1 23 1.1636 0.1831
-29 1 24 7.0765 -0.2933
-29 1 25 10.1601 -0.3240
-29 1 26 -4.3636 0.2282
-29 1 27 -2.9979 0.4879
-29 1 28 -4.2801 -0.3578
-29 1 29 9.2810 -0.2834
-29 1 30 -3.0724 0.6055
-29 1 31 -4.0444 -0.1435
-29 1 32 0.1791 -0.5800
-29 3 1 -6.0225 -0.2062
-29 3 2 3.3502 -1.1934
-29 3 3 -8.8564 0.8696
-29 3 4 2.7904 0.5607
-29 3 5 0.5266 0.0443
-29 3 6 0.7580 -0.1580
-29 3 7 -4.5285 -0.9591
-29 3 8 7.5956 0.2419
-29 3 9 5.9270 1.3864
-29 3 10 -2.7655 -0.6454
-29 3 11 -5.9642 -1.3548
-29 3 12 6.2741 0.3692
-29 3 13 -2.1445 0.9990
-29 3 14 -2.5385 -0.1907
-29 3 15 -0.1323 -0.9695
-29 3 16 5.8243 0.2819
-29 3 17 -5.1873 0.8769
-29 3 18 -3.6974 -0.7446
-29 3 19 -0.5639 -0.9704
-29 3 20 3.9735 1.2677
-29 3 21 -5.9118 1.0651
-29 3 22 -3.9783 -0.7368
-29 3 23 4.5661 -0.9194
-29 3 24 -0.3132 0.1738
-29 3 25 -0.0330 0.6250
-29 3 26 2.3459 0.0533
-29 3 27 7.9312 -0.2280
-29 3 28 0.2386 0.0238
-29 3 29 6.1291 -0.1041
-29 3 30 3.1084 -0.4871
-29 3 31 -2.5363 0.0692
-29 5 1 1.2153 0.0850
-29 5 2 17.0152 0.4524
-29 5 3 5.4844 -0.0267
-29 5 4 -2.9898 -0.0241
-29 5 5 -0.1756 -0.2532
-29 5 6 5.0652 -0.1419
-29 5 7 6.5098 0.6096
-29 5 8 -3.2949 0.3352
-29 5 9 1.2528 -0.8214
-29 5 10 -3.7760 -0.5618
-29 5 11 4.1439 1.0349
-29 5 12 -8.5979 0.3931
-29 5 13 -4.9646 -0.8987
-29 5 14 -1.7522 0.2231
-29 5 15 0.8509 0.5701
-29 5 16 -3.3827 -0.4520
-29 5 17 3.4349 -0.5403
-29 5 18 3.0219 0.2540
-29 5 19 4.4542 0.4073
-29 5 20 -2.1482 0.0835
-29 5 21 5.5951 -0.3609
-29 5 22 0.2164 -0.2568
-29 5 23 8.9794 0.1319
-29 5 24 -0.5966 0.1241
-29 5 25 -6.7913 -0.1247
-29 5 26 -1.8441 0.1305
-29 5 27 4.9987 0.3527
-29 5 28 -2.3109 -0.1027
-29 5 29 -10.9761 -0.8599
-29 5 30 -0.9786 -0.0512
-29 7 1 1.8697 -0.3310
-29 7 2 3.7995 -0.4395
-29 7 3 3.8549 0.4444
-29 7 4 -0.5017 -0.0027
-29 7 5 2.7125 -0.4335
-29 7 6 0.6231 -0.2105
-29 7 7 -8.0109 0.0163
-29 7 8 -1.5650 -0.1717
-29 7 9 -4.5648 -0.1052
-29 7 10 -0.2950 0.1113
-29 7 11 -0.2936 -0.1073
-29 7 12 -4.0226 -0.0677
-29 7 13 -2.0721 0.0494
-29 7 14 1.4283 -0.1832
-29 7 15 1.9250 0.0978
-29 7 16 -9.1608 -0.0384
-29 7 17 -5.5238 -0.2290
-29 7 18 -1.1492 0.2855
-29 7 19 -5.4506 0.1312
-29 7 20 -0.3271 0.0005
-29 7 21 4.1053 0.0692
-29 7 22 -6.4156 -0.1192
-29 7 23 -4.5754 -0.0241
-29 7 24 -2.7313 0.2927
-29 7 25 1.9959 0.0328
-29 7 26 0.4938 0.0762
-29 7 27 -8.6287 -0.2139
-29 7 28 -5.7493 0.0563
-29 7 29 1.8719 0.1933
-29 9 1 -0.8045 0.3479
-29 9 2 -2.5288 0.5022
-29 9 3 -1.4780 -0.6269
-29 9 4 -0.6504 -0.2313
-29 9 5 2.7623 0.3119
-29 9 6 -2.0585 0.3879
-29 9 7 6.5462 -0.1139
-29 9 8 -5.9080 -0.4180
-29 9 9 1.7327 0.0554
-29 9 10 -2.7713 0.3547
-29 9 11 4.8569 0.0173
-29 9 12 -6.8218 -0.3110
-29 9 13 2.2393 0.0219
-29 9 14 -1.6584 0.4396
-29 9 15 2.9772 0.0153
-29 9 16 8.6760 -0.5045
-29 9 17 -3.1695 0.1495
-29 9 18 -2.4731 0.5589
-29 9 19 5.4501 -0.1066
-29 9 20 -4.6439 -0.4380
-29 9 21 2.4364 -0.0268
-29 9 22 3.5504 0.3861
-29 9 23 3.8191 0.0387
-29 9 24 0.0077 -0.5053
-29 9 25 -1.0732 -0.2093
-29 9 26 1.1066 0.3541
-29 9 27 -8.7497 0.3662
-29 11 1 1.2932 0.1953
-29 11 2 4.1290 -0.4087
-29 11 3 -3.5433 0.0857
-29 11 4 -3.3800 0.1982
-29 11 5 -4.8238 0.0253
-29 11 6 -0.8669 -0.1350
-29 11 7 -7.5617 0.2274
-29 11 8 -5.2422 0.1729
-29 11 9 5.1589 -0.0079
-29 11 10 -4.2559 0.1355
-29 11 11 -2.4302 -0.3597
-29 11 12 -0.0110 0.1952
-29 11 13 4.0383 0.6170
-29 11 14 -16.4810 -0.0889
-29 11 15 -9.6344 0.1162
-29 11 16 -2.7761 -0.0804
-29 11 17 13.1282 -0.3556
-29 11 18 -12.8919 -0.1369
-29 11 19 -6.6939 0.2538
-29 11 20 1.3757 0.8701
-29 11 21 8.3923 0.1410
-29 11 22 1.3171 -0.7162
-29 11 23 2.3205 0.0685
-29 11 24 -6.3733 0.8672
-29 13 1 0.2632 0.8299
-29 13 2 -0.3795 -0.1305
-29 13 3 3.1080 -0.7139
-29 13 4 3.2778 -0.0129
-29 13 5 -3.6141 0.2342
-29 13 6 -5.3689 -0.3143
-29 13 7 8.9568 -0.2825
-29 13 8 -8.1750 0.2569
-29 13 9 -6.2275 0.1085
-29 13 10 1.6525 -0.4750
-29 13 11 -3.7331 0.1321
-29 13 12 -14.1660 0.4911
-29 13 13 3.2292 -0.0120
-29 13 14 3.6376 -0.2596
-29 13 15 -7.4726 -0.2814
-29 13 16 2.1264 0.4748
-29 13 17 2.9051 0.3452
-29 13 18 5.0380 -0.5241
-29 13 19 -7.2203 -1.4013
-29 13 20 0.8287 0.4740
-29 15 5 -11.2672 0.1805
-29 15 6 -10.1139 0.9471
-29 15 7 9.1008 0.2337
-29 15 8 -2.8844 -1.0563
-29 15 9 -19.7948 0.1317
-29 15 10 3.3823 1.3272
-29 15 11 -0.8515 0.8895
-28 0 2 -12.3300 6.3828
-28 0 4 11.3604 -7.1415
-28 0 6 4.7638 8.6208
-28 0 8 0.0425 -9.2357
-28 0 10 -1.8374 7.0573
-28 0 12 -4.0967 -4.2234
-28 0 14 -0.3302 1.5779
-28 0 16 -10.2991 -0.3718
-28 0 18 6.4352 0.4945
-28 0 20 -2.7408 -1.6416
-28 0 22 10.0070 2.6002
-28 0 24 -11.5958 -3.4014
-28 0 26 4.8825 3.5442
-28 0 28 -13.3284 -3.0138
-28 0 30 -0.5835 2.0046
-28 0 32 -0.4057 -1.3546
-28 2 1 1.4546 -0.8505
-28 2 2 -8.1158 -1.2767
-28 2 3 -10.5156 -0.1429
-28 2 4 -4.0680 1.4053
-28 2 5 -2.1571 -0.1413
-28 2 6 1.1668 -1.4576
-28 2 7 10.8278 -0.4249
-28 2 8 -0.1958 1.3425
-28 2 9 -5.6528 0.3840
-28 2 10 3.9821 -1.0143
-28 2 11 2.0737 -0.2364
-28 2 12 2.4054 0.5909
-28 2 13 -4.2903 0.0599
-28 2 14 -2.2569 -0.4808
-28 2 15 -3.1544 -0.4097
-28 2 16 5.9773 0.4207
-28 2 17 0.5667 0.8982
-28 2 18 -3.3651 -0.2032
-28 2 19 -8.4576 -1.0527
-28 2 20 4.1955 0.1376
-28 2 21 7.4222 0.9646
-28 2 22 -0.6468 0.1148
-28 2 23 -9.2517 -0.1906
-28 2 24 5.6869 0.1913
-28 2 25 13.0067 0.1763
-28 2 26 -4.4986 -1.0173
-28 2 27 5.6243 -0.1783
-28 2 28 8.6985 1.4229
-28 2 29 4.5461 0.3819
-28 2 30 -4.8723 -0.9811
-28 2 31 8.9143 -0.2462
-28 2 32 6.0991 0.4470
-28 4 1 -9.2579 0.3385
-28 4 2 2.8358 -0.1619
-28 4 3 -0.8543 0.0902
-28 4 4 8.1292 0.1396
-28 4 5 -3.1509 0.2179
-28 4 6 0.2761 0.1463
-28 4 7 -2.2072 0.1364
-28 4 8 0.9395 -0.4050
-28 4 9 9.2193 0.0956
-28 4 10 -1.3231 0.5270
-28 4 11 -3.4834 -0.1224
-28 4 12 -6.4498 -0.4345
-28 4 13 1.8602 -0.0622
-28 4 14 2.5183 -0.1212
-28 4 15 -2.4609 -0.0806
-28 4 16 -2.7231 0.8018
-28 4 17 -0.2737 0.1758
-28 4 18 16.5496 -0.7981
-28 4 19 2.7439 -0.5072
-28 4 20 -5.1199 0.2017
-28 4 21 -1.6936 0.5531
-28 4 22 7.3582 0.3520
-28 4 23 1.2376 -0.1539
-28 4 24 -3.2346 -0.4450
-28 4 25 -1.6090 -0.2182
-28 4 26 -2.1562 -0.1199
-28 4 27 1.0380 0.2332
-28 4 28 -2.0362 0.3890
-28 4 29 -2.3705 0.2299
-28 4 30 2.6059 -0.5209
-28 4 31 5.9137 -0.3924
-28 4 32 0.5560 0.1002
-28 6 1 6.9393 0.1112
-28 6 2 -5.6534 -0.3890
-28 6 3 -0.6319 -0.1382
-28 6 4 15.3803 0.8054
-28 6 5 9.3614 -0.6217
-28 6 6 -4.1746 -0.8909
-28 6 7 -3.7031 0.5457
-28 6 8 5.9040 0.6782
-28 6 9 2.4175 -0.5132
-28 6 10 2.4666 -0.5086
-28 6 11 0.8744 0.5863
-28 6 12 2.1883 0.5131
-28 6 13 -8.7568 -0.7259
-28 6 14 -8.0159 -0.0689
-28 6 15 1.9004 0.9385
-28 6 16 5.5307 -0.0785
-28 6 17 -9.6293 -0.9700
-28 6 18 -10.1494 0.1926
-28 6 19 10.2810 0.7899
-28 6 20 2.9371 0.0692
-28 6 21 -0.0626 -0.5029
-28 6 22 -6.8530 -0.1524
-28 6 23 0.7458 0.4758
-28 6 24 -1.0079 0.1151
-28 6 25 -0.2936 -0.1227
-28 6 26 -0.8714 0.0236
-28 6 27 -3.9758 0.2016
-28 6 28 -2.3449 -0.2000
-28 6 29 1.7515 -0.3553
-28 6 30 -3.1251 0.0427
-28 6 31 -5.0714 0.6828
-28 8 1 11.9671 -0.1553
-28 8 2 8.9052 0.0583
-28 8 3 2.2321 0.0558
-28 8 4 5.7371 -0.3309
-28 8 5 5.6786 0.1082
-28 8 6 -5.7677 0.4700
-28 8 7 -0.2301 -0.2955
-28 8 8 0.8114 -0.4153
-28 8 9 3.9967 0.2067
-28 8 10 -11.7983 0.4911
-28 8 11 -4.0998 -0.0560
-28 8 12 -0.8867 -0.4983
-28 8 13 5.4307 0.1506
-28 8 14 -5.7391 0.0823
-28 8 15 6.8289 -0.2335
-28 8 16 3.7753 0.0282
-28 8 17 -2.5363 0.2739
-28 8 18 -1.2486 0.1055
-28 8 19 -2.5189 -0.3681
-28 8 20 1.2648 -0.0766
-28 8 21 8.2567 0.3497
-28 8 22 0.4452 0.1622
-28 8 23 -0.6364 -0.1716
-28 8 24 -7.8123 -0.5732
-28 8 25 -4.3340 0.0091
-28 8 26 0.5321 0.8267
-28 8 27 -6.7540 0.1444
-28 8 28 -4.6485 -0.0616
-28 8 29 -1.0489 0.0360
-28 10 1 6.9457 0.4199
-28 10 2 2.1236 0.1253
-28 10 3 -0.8380 -0.3798
-28 10 4 8.2068 -0.0028
-28 10 5 -0.1095 0.2695
-28 10 6 -12.1513 0.1860
-28 10 7 3.3046 -0.3691
-28 10 8 3.6748 -0.5629
-28 10 9 -1.0525 0.4737
-28 10 10 -4.3762 0.3609
-28 10 11 9.1583 -0.2348
-28 10 12 1.5162 -0.2368
-28 10 13 2.1757 -0.0640
-28 10 14 -10.5730 0.1948
-28 10 15 1.6813 0.4090
-28 10 16 -5.4920 -0.1632
-28 10 17 -0.8728 -0.0435
-28 10 18 -3.1262 0.2572
-28 10 19 13.1967 -0.1398
-28 10 20 -9.1161 -0.2499
-28 10 21 0.5893 0.0792
-28 10 22 0.2414 0.2202
-28 10 23 5.4483 0.1632
-28 10 24 6.9668 -0.3150
-28 10 25 -0.4405 -0.3459
-28 10 26 -0.6404 -0.1163
-28 10 27 1.5803 -0.0470
-28 12 1 -6.6083 -0.1881
-28 12 2 3.6449 -0.6426
-28 12 3 -2.4446 0.1226
-28 12 4 1.6376 0.5879
-28 12 5 0.8554 0.2461
-28 12 6 6.4143 -0.4520
-28 12 7 -7.9042 -0.1305
-28 12 8 -3.6164 0.5655
-28 12 9 0.4205 0.3504
-28 12 10 -11.2743 0.2152
-28 12 11 -8.1984 -0.2998
-28 12 12 1.9595 0.1791
-28 12 13 0.2499 0.3915
-28 12 14 -16.9366 -0.4063
-28 12 15 -0.2198 -0.0698
-28 12 16 -5.2698 0.2311
-28 12 17 -0.2984 0.1920
-28 12 18 -1.9987 -0.5981
-28 12 19 0.4397 -0.6176
-28 12 20 2.2363 0.5916
-28 12 21 2.5404 0.3989
-28 12 22 -4.0113 -0.3975
-28 12 23 1.4080 -0.0907
-28 12 24 -7.0695 0.0222
-28 14 1 -12.3176 0.7587
-28 14 2 0.7640 0.2018
-28 14 3 5.2952 -0.3009
-28 14 4 -3.5713 0.0542
-28 14 5 -0.9427 0.0398
-28 14 6 -6.4062 -0.2971
-28 14 7 -1.4377 -0.0112
-28 14 8 -12.4400 0.0595
-28 14 9 -6.2654 -0.1750
-28 14 10 -3.9958 -0.3236
-28 14 11 -8.0616 0.3111
-28 14 12 -4.8281 0.2954
-28 14 13 5.3499 0.0220
-28 14 14 -4.5518 0.3334
-28 14 15 -6.0216 -0.1369
-28 14 16 7.5653 0.1774
-28 14 17 2.0748 -0.2893
-28 14 18 13.0314 0.9687
-28 14 19 0.3125 0.7045
-27 1 1 -7.9040 -1.0863
-27 1 2 -0.4012 0.5036
-27 1 3 -2.4458 0.2153
-27 1 4 -7.7163 -2.1799
-27 1 5 -3.6890 -0.0691
-27 1 6 2.2014 1.5381
-27 1 7 -3.6856 -0.4254
-27 1 8 -2.5092 -1.4047
-27 1 9 9.9314 0.2405
-27 1 10 -0.4146 0.1741
-27 1 11 -11.8061 0.1925
-27 1 12 -1.6362 -0.0508
-27 1 13 8.2541 0.0855
-27 1 14 -3.1169 0.6879
-27 1 15 -4.5643 -0.1498
-27 1 16 0.6912 -1.1760
-27 1 17 0.4760 -0.1526
-27 1 18 0.1277 1.4974
-27 1 19 -0.5094 0.7016
-27 1 20 4.4955 -1.2691
-27 1 21 0.7939 -0.6504
-27 1 22 -6.0206 0.6898
-27 1 23 0.7438 0.4092
-27 1 24 2.8395 -0.3281
-27 1 25 7.1348 -0.0248
-27 1 26 -4.0716 0.0623
-27 1 27 2.7756 -0.0933
-27 1 28 -6.8637 -0.0329
-27 1 29 4.0856 -0.0896
-27 1 30 2.1738 0.1607
-27 1 31 3.3585 0.4285
-27 1 32 1.7350 -0.3129
-27 1 33 4.8691 -0.3530
-27 3 1 -0.9591 -0.1243
-27 3 2 -2.6763 -1.2254
-27 3 3 -4.0771 -0.5481
-27 3 4 -8.3747 0.8768
-27 3 5 -0.7954 -0.1796
-27 3 6 -0.0387 -0.8320
-27 3 7 2.3828 0.2254
-27 3 8 -0.1093 0.2988
-27 3 9 6.2125 -0.1253
-27 3 10 2.1876 -0.1260
-27 3 11 1.1590 -0.1556
-27 3 12 -3.0479 0.6891
-27 3 13 -1.2622 0.7025
-27 3 14 3.0304 -0.9284
-27 3 15 1.6033 -1.3456
-27 3 16 1.5790 0.6700
-27 3 17 0.7154 1.3820
-27 3 18 2.0486 -0.0950
-27 3 19 1.9553 -0.7728
-27 3 20 9.3021 0.1157
-27 3 21 -2.7325 0.4424
-27 3 22 0.3556 -0.4980
-27 3 23 5.7810 -0.3945
-27 3 24 3.1636 0.6747
-27 3 25 -7.1904 0.8823
-27 3 26 6.1433 -0.6404
-27 3 27 11.2976 -1.2321
-27 3 28 -1.2523 0.3992
-27 3 29 2.5104 1.0274
-27 3 30 2.3713 -0.1262
-27 3 31 6.8036 -0.3996
-27 3 32 4.2530 0.2633
-27 3 33 8.2149 -0.1052
-27 5 1 -2.3110 -0.2504
-27 5 2 11.0437 -0.1082
-27 5 3 4.1904 0.2918
-27 5 4 3.2962 0.2901
-27 5 5 -10.5020 0.1078
-27 5 6 5.3954 -0.0214
-27 5 7 8.5301 -0.3314
-27 5 8 3.2827 0.3545
-27 5 9 -1.7481 0.3905
-27 5 10 -1.8979 -0.2779
-27 5 11 6.6844 0.1757
-27 5 12 -1.1400 0.1541
-27 5 13 -4.7465 -0.9440
-27 5 14 -0.4138 0.1262
-27 5 15 -5.7670 1.3399
-27 5 16 -4.8076 0.0898
-27 5 17 -3.1927 -1.1310
-27 5 18 13.7999 -0.1513
-27 5 19 3.1767 0.7666
-27 5 20 -4.6148 0.0362
-27 5 21 -1.3479 -0.5120
-27 5 22 -3.8487 0.0916
-27 5 23 -0.6899 0.6226
-27 5 24 0.8974 -0.1892
-27 5 25 -3.2858 -0.4435
-27 5 26 -3.7843 0.0277
-27 5 27 -3.9416 0.3418
-27 5 28 -2.9151 0.0756
-27 5 29 6.4676 0.0558
-27 5 30 -6.4603 -0.1720
-27 5 31 -4.6947 0.3158
-27 5 32 -2.1999 0.1749
-27 7 1 8.9837 0.1299
-27 7 2 8.1208 -0.2385
-27 7 3 4.8826 -0.0624
-27 7 4 -0.8573 0.3041
-27 7 5 4.2167 -0.3425
-27 7 6 12.4779 -0.3259
-27 7 7 -7.0175 0.5780
-27 7 8 -8.9353 0.3166
-27 7 9 -3.5096 -0.4562
-27 7 10 3.9479 -0.1215
-27 7 11 -3.1030 0.4189
-27 7 12 0.2465 0.3210
-27 7 13 -4.0253 -0.0459
-27 7 14 0.6622 -0.4349
-27 7 15 -6.2588 -0.0420
-27 7 16 -2.4858 0.4519
-27 7 17 8.5855 0.0523
-27 7 18 -3.2477 -0.2730
-27 7 19 -2.8299 0.0330
-27 7 20 3.2603 0.2633
-27 7 21 3.5253 -0.1340
-27 7 22 -5.4652 -0.0789
-27 7 23 -0.6507 0.4374
-27 7 24 0.2914 -0.3616
-27 7 25 -7.0910 -0.2863
-27 7 26 -9.3878 0.3309
-27 7 27 1.0033 0.1721
-27 7 28 4.5587 -0.2132
-27 7 29 -4.1975 0.0917
-27 7 30 -1.8572 -0.3103
-27 7 31 7.4242 -0.0442
-27 9 1 3.9439 -0.0723
-27 9 2 7.7140 0.4625
-27 9 3 15.6568 -0.2110
-27 9 4 7.0689 -0.6751
-27 9 5 0.5707 0.2118
-27 9 6 -1.5873 0.7801
-27 9 7 14.2123 -0.4592
-27 9 8 -2.4727 -0.6317
-27 9 9 5.9681 0.2477
-27 9 10 -4.7456 0.4286
-27 9 11 10.4109 -0.2527
-27 9 12 -0.0621 -0.4636
-27 9 13 5.4338 0.3950
-27 9 14 -11.5487 0.4509
-27 9 15 7.4173 -0.3707
-27 9 16 -1.7531 -0.4665
-27 9 17 2.2057 0.2219
-27 9 18 2.4940 0.6068
-27 9 19 -5.1794 -0.1989
-27 9 20 -3.4971 -0.4659
-27 9 21 13.1104 0.0737
-27 9 22 -0.4255 0.0362
-27 9 23 2.0133 -0.1626
-27 9 24 5.8501 -0.3065
-27 9 25 -2.5423 -0.0407
-27 9 26 -3.1692 0.4407
-27 9 27 -2.2573 -0.0368
-27 9 28 1.0940 -0.1432
-27 9 29 -2.0360 0.1643
-27 11 1 -2.4529 0.3271
-27 11 2 14.9420 -0.0685
-27 11 3 2.2129 -0.2005
-27 11 4 -2.9131 0.2836
-27 11 5 0.8168 0.2974
-27 11 6 7.4730 -0.1547
-27 11 7 -2.8102 0.1955
-27 11 8 -3.0597 0.2128
-27 11 9 -10.4144 0.1945
-27 11 10 4.0332 -0.0721
-27 11 11 0.0336 -0.1837
-27 11 12 -3.9382 0.0999
-27 11 13 -4.9649 0.2604
-27 11 14 0.3304 -0.0911
-27 11 15 1.2913 -0.2820
-27 11 16 -11.7607 -0.1470
-27 11 17 0.9084 0.2512
-27 11 18 -3.7898 -0.1281
-27 11 19 9.8919 -0.1374
-27 11 20 -6.6437 0.1518
-27 11 21 2.0347 -0.1479
-27 11 22 -2.9253 -0.1070
-27 11 23 3.9548 0.2106
-27 11 24 -3.1138 0.0894
-27 11 25 -5.3387 -0.0259
-27 11 26 -0.1267 -0.4983
-27 13 1 -8.9304 -0.0207
-27 13 2 2.0611 -0.2417
-27 13 3 -3.6125 0.1013
-27 13 4 5.9547 0.2127
-27 13 5 0.4294 -0.0732
-27 13 6 -0.0297 -0.5183
-27 13 7 -4.9823 -0.2836
-27 13 8 -1.2478 0.3984
-27 13 9 3.4661 -0.0111
-27 13 10 -0.4585 -0.1729
-27 13 11 -10.2693 -0.2941
-27 13 12 -9.8545 0.0442
-27 13 13 2.7305 -0.1848
-27 13 14 -9.6274 -0.3266
-27 13 15 2.6185 0.1182
-27 13 16 4.3958 0.5243
-27 13 17 1.3398 0.2122
-27 13 18 -2.8696 -0.3869
-27 13 19 -0.6962 -0.4123
-27 13 20 15.9099 0.2271
-27 13 21 3.1020 0.3117
-27 13 22 -5.5918 -0.5210
-27 13 23 6.4033 -0.1397
-27 15 1 -6.8476 0.2229
-27 15 2 -7.9790 0.5556
-27 15 3 5.1417 0.0834
-27 15 4 6.1108 -0.3270
-27 15 5 -0.2452 0.1104
-27 15 6 -6.6941 0.4692
-27 15 7 -3.6169 0.0839
-27 15 8 -9.6465 0.3809
-27 15 9 -4.9647 0.5049
-27 15 10 -2.6130 0.1980
-27 15 11 -3.8547 0.9173
-27 15 12 -4.0561 0.0559
-27 15 13 4.5895 0.1126
-27 15 14 3.5188 0.7491
-27 15 15 -0.3394 0.5364
-27 15 16 7.0200 -0.2652
-27 15 17 -5.0003 -0.9067
-26 0 2 -3.9246 -3.1581
-26 0 4 -9.4973 0.1008
-26 0 6 -3.0036 0.9970
-26 0 8 1.2513 -5.1559
-26 0 10 -3.3850 8.3737
-26 0 12 1.0029 -10.5545
-26 0 14 -5.0216 10.8039
-26 0 16 2.3386 -7.8887
-26 0 18 -0.1067 4.5405
-26 0 20 3.4421 -2.2563
-26 0 22 0.2253 1.0588
-26 0 24 -6.6212 -1.4453
-26 0 26 -4.4722 2.2278
-26 0 28 -1.5534 -2.3705
-26 0 30 -9.9781 2.1722
-26 0 32 5.5908 -1.7096
-26 0 34 1.7919 1.3884
-26 2 1 3.9114 1.3687
-26 2 2 -0.5509 1.5189
-26 2 3 -1.7054 -1.2356
-26 2 4 -4.9055 -1.2377
-26 2 5 0.4633 -0.2593
-26 2 6 -3.9229 -1.1574
-26 2 7 2.5942 0.2968
-26 2 8 4.5751 2.4096
-26 2 9 0.9611 0.5775
-26 2 10 -2.7961 -2.4718
-26 2 11 4.2687 -0.9262
-26 2 12 5.2733 1.9517
-26 2 13 4.1435 1.1930
-26 2 14 -4.8080 -0.8728
-26 2 15 -5.8756 -0.5465
-26 2 16 5.8276 0.4671
-26 2 17 8.6424 -0.0203
-26 2 18 3.7443 -0.4775
-26 2 19 -0.9607 0.1300
-26 2 20 1.1255 0.7648
-26 2 21 7.1289 0.5329
-26 2 22 6.0511 -0.7529
-26 2 23 4.0176 -0.8583
-26 2 24 0.5690 0.2414
-26 2 25 3.6568 0.7950
-26 2 26 2.9548 0.1855
-26 2 27 6.7530 -0.4872
-26 2 28 0.2273 0.0208
-26 2 29 9.2957 0.2469
-26 2 30 0.8888 -0.4207
-26 2 31 2.5998 -0.2274
-26 2 32 -1.3301 0.5034
-26 2 33 10.6196 0.0598
-26 2 34 0.6983 -0.2307
-26 4 1 1.7054 0.2869
-26 4 2 -2.1918 -1.0570
-26 4 3 -3.1105 -0.7706
-26 4 4 -2.2222 0.6189
-26 4 5 -5.7011 0.6610
-26 4 6 -1.2786 -0.1041
-26 4 7 -0.9951 -0.4081
-26 4 8 0.0708 -0.2253
-26 4 9 5.8321 0.0444
-26 4 10 0.8528 0.3904
-26 4 11 2.2854 -0.0089
-26 4 12 -7.2298 -0.2907
-26 4 13 2.7892 -0.1325
-26 4 14 -2.9968 0.2966
-26 4 15 0.1976 -0.0144
-26 4 16 1.6653 -0.3049
-26 4 17 0.7843 0.2204
-26 4 18 -5.0391 0.1363
-26 4 19 3.9387 -0.1180
-26 4 20 7.7619 0.1836
-26 4 21 -5.3177 -0.0198
-26 4 22 -5.3111 -0.5563
-26 4 23 1.1111 -0.1449
-26 4 24 6.2165 0.4444
-26 4 25 -3.2500 0.1491
-26 4 26 -5.2481 -0.0885
-26 4 27 -3.9164 -0.3668
-26 4 28 5.1634 -0.0823
-26 4 29 4.8840 0.2748
-26 4 30 -8.7292 0.4283
-26 4 31 6.9171 0.0894
-26 4 32 0.8078 0.0356
-26 4 33 1.3398 -0.1822
-26 6 1 -2.0639 -0.7720
-26 6 2 9.3806 0.5015
-26 6 3 5.0137 0.5002
-26 6 4 1.8213 -0.1601
-26 6 5 -7.7773 -0.5827
-26 6 6 6.3780 -0.0823
-26 6 7 1.3594 0.3857
-26 6 8 3.0880 0.6460
-26 6 9 -4.9084 -0.3395
-26 6 10 -1.6617 -0.6090
-26 6 11 -3.2179 0.5428
-26 6 12 6.6353 0.8234
-26 6 13 -2.3148 -0.5976
-26 6 14 0.2970 -0.9885
-26 6 15 -12.6700 0.8437
-26 6 16 5.4303 0.9420
-26 6 17 0.1018 -0.8176
-26 6 18 -1.2463 -0.4541
-26 6 19 1.3061 0.8560
-26 6 20 5.6664 -0.0816
-26 6 21 3.9430 -0.8539
-26 6 22 -5.7439 0.1190
-26 6 23 -11.5114 0.9219
-26 6 24 -4.3715 0.0149
-26 6 25 1.6275 -0.6582
-26 6 26 2.9311 -0.2820
-26 6 27 -2.5275 0.2001
-26 6 28 -1.0848 0.1203
-26 6 29 2.4288 -0.0712
-26 6 30 -4.3234 -0.2889
-26 6 31 4.4657 0.2644
-26 6 32 -0.4481 -0.0402
-26 8 1 0.6720 -0.0754
-26 8 2 -0.2451 -0.0166
-26 8 3 13.2392 0.4804
-26 8 4 6.4556 -0.1235
-26 8 5 2.3617 -0.1886
-26 8 6 3.8897 0.3495
-26 8 7 3.9839 0.3579
-26 8 8 -2.5515 -0.2739
-26 8 9 4.1496 0.3310
-26 8 10 1.1132 0.4701
-26 8 11 -0.7496 -0.4785
-26 8 12 -8.3636 -0.3695
-26 8 13 2.3509 0.6469
-26 8 14 1.5225 0.4527
-26 8 15 4.8214 -0.3934
-26 8 16 -15.0268 -0.3548
-26 8 17 3.1195 0.2107
-26 8 18 6.1823 0.2840
-26 8 19 -2.1435 -0.1961
-26 8 20 -3.2167 -0.1321
-26 8 21 5.5057 0.3365
-26 8 22 7.0091 -0.0212
-26 8 23 -0.9686 -0.2742
-26 8 24 -1.9412 -0.0805
-26 8 25 3.4856 0.1700
-26 8 26 -0.8838 -0.0014
-26 8 27 -7.8420 0.0967
-26 8 28 -3.2902 0.0270
-26 8 29 9.8709 -0.0619
-26 8 30 -1.6112 0.3996
-26 8 31 -3.5972 0.0557
-26 10 1 3.7480 0.1238
-26 10 2 -0.4582 0.5870
-26 10 3 11.2738 -0.1955
-26 10 4 10.7807 -0.4473
-26 10 5 2.8756 -0.0641
-26 10 6 -2.4576 0.2733
-26 10 7 5.6700 -0.3529
-26 10 8 -4.9897 -0.3387
-26 10 9 4.8691 0.0096
-26 10 10 3.3733 0.1978
-26 10 11 -1.9628 -0.2148
-26 10 12 0.3895 -0.2955
-26 10 13 10.6796 0.1012
-26 10 14 -0.4404 0.1222
-26 10 15 2.4131 -0.2219
-26 10 16 -4.9892 -0.1940
-26 10 17 -6.8905 -0.0954
-26 10 18 6.8352 0.2761
-26 10 19 9.5330 -0.0627
-26 10 20 -9.3641 -0.3001
-26 10 21 -0.0743 0.0161
-26 10 22 -2.4718 0.0977
-26 10 23 3.7451 -0.3191
-26 10 24 -4.9055 -0.1485
-26 10 25 -2.0482 0.1377
-26 10 26 7.9338 0.1508
-26 10 27 -5.9685 -0.0469
-26 10 28 -0.4437 0.0560
-26 10 29 2.6750 0.2336
-26 12 1 5.0045 0.1441
-26 12 2 -1.3478 -0.4681
-26 12 3 -8.4351 -0.0314
-26 12 4 14.4802 0.4906
-26 12 5 12.3512 0.1718
-26 12 6 -2.0002 -0.1270
-26 12 7 0.3362 0.2040
-26 12 8 19.6141 0.2669
-26 12 9 -5.7225 0.0541
-26 12 10 -4.3316 -0.2471
-26 12 11 -4.4269 -0.1941
-26 12 12 10.6683 0.3262
-26 12 13 -14.6087 0.1730
-26 12 14 -6.7616 -0.3577
-26 12 15 4.6745 -0.4711
-26 12 16 -3.3571 0.0066
-26 12 17 -3.1802 0.3384
-26 12 18 2.1125 -0.1320
-26 12 19 16.5559 -0.1203
-26 12 20 -0.5560 0.1565
-26 12 21 0.9137 0.0332
-26 12 22 7.9034 -0.5508
-26 12 23 8.8653 -0.2556
-26 12 24 -4.1705 0.3651
-26 12 25 3.3791 0.2892
-26 12 26 1.0824 -0.9711
-26 14 1 -9.8900 -0.1296
-26 14 2 2.9997 -0.0827
-26 14 3 0.4068 -0.0874
-26 14 4 2.0229 0.1889
-26 14 5 -1.6446 0.2383
-26 14 6 5.4033 -0.2769
-26 14 7 -6.1927 -0.2417
-26 14 8 -8.8115 0.0949
-26 14 9 -4.4181 -0.3179
-26 14 10 -0.1663 -0.1199
-26 14 11 5.6860 0.3631
-26 14 12 -8.3393 0.0578
-26 14 13 2.4020 -0.5509
-26 14 14 2.6029 -0.4202
-26 14 15 5.3527 0.2764
-26 14 16 -6.7053 0.6122
-26 14 17 -1.4019 -0.0101
-26 14 18 13.2918 -0.1579
-26 14 19 -4.4397 0.2118
-26 14 20 -3.3053 -0.0353
-26 14 21 -1.0615 0.4980
-26 14 22 7.0481 -0.0078
-26 16 1 8.1339 -0.4832
-26 16 2 7.4146 0.1297
-26 16 3 -10.4995 0.6403
-26 16 4 -8.0601 -0.6846
-26 16 5 0.2868 -0.5767
-26 16 6 -0.9150 0.7795
-26 16 7 -3.3051 -0.2493
-26 16 8 -8.3965 -0.1395
-26 16 9 -2.5485 0.4045
-26 16 10 -1.2944 0.7540
-26 16 11 -7.3761 0.9315
-26 16 12 -4.7578 -0.3389
-26 16 13 2.6455 0.7933
-26 16 14 3.7496 0.4411
-26 16 15 -1.9666 -0.0865
-25 1 1 2.1587 -0.3640
-25 1 2 -5.4563 2.1088
-25 1 3 3.0485 2.5664
-25 1 4 1.6222 -0.4832
-25 1 5 -0.9748 -1.1049
-25 1 6 -4.1337 0.4830
-25 1 7 0.4144 0.3240
-25 1 8 2.0006 -1.6604
-25 1 9 -3.9837 0.5142
-25 1 10 3.5920 2.4735
-25 1 11 5.0493 0.0593
-25 1 12 0.0953 -1.4533
-25 1 13 -1.7966 -0.2895
-25 1 14 3.0428 0.6076
-25 1 15 12.2722 0.2259
-25 1 16 -6.3456 0.0814
-25 1 17 -10.1688 0.0046
-25 1 18 13.0011 0.4974
-25 1 19 8.8149 -0.2147
-25 1 20 0.9438 -1.5696
-25 1 21 0.3525 0.0317
-25 1 22 -0.7857 1.8580
-25 1 23 0.9074 0.2211
-25 1 24 9.1431 -1.3592
-25 1 25 0.8837 -0.5054
-25 1 26 -4.3720 0.8132
-25 1 27 1.4876 0.3454
-25 1 28 -4.0461 -0.0120
-25 1 29 7.1322 -0.2788
-25 1 30 1.3807 -0.0478
-25 1 31 -1.3320 -0.0463
-25 1 32 -5.4963 -0.3569
-25 1 33 5.4646 0.1202
-25 1 34 2.0129 0.7402
-25 3 1 -1.6757 1.8545
-25 3 2 0.4222 -0.0731
-25 3 3 2.6621 -2.6040
-25 3 4 -7.9103 0.0179
-25 3 5 -0.7457 1.9220
-25 3 6 3.1259 -0.5903
-25 3 7 0.8626 -1.9004
-25 3 8 -5.2825 1.1392
-25 3 9 1.2238 1.3328
-25 3 10 2.4224 -1.1106
-25 3 11 4.4589 -0.5989
-25 3 12 1.3318 1.0080
-25 3 13 0.9679 0.2704
-25 3 14 -6.8361 -0.9231
-25 3 15 2.6324 -0.2584
-25 3 16 3.1151 0.6777
-25 3 17 -3.4185 0.5734
-25 3 18 -6.6986 -0.7952
-25 3 19 9.0554 -0.9031
-25 3 20 1.9563 0.7178
-25 3 21 3.6114 1.0566
-25 3 22 4.8974 -0.6338
-25 3 23 -0.5133 -1.0930
-25 3 24 -0.8219 0.2686
-25 3 25 6.1092 0.5181
-25 3 26 7.6936 -0.1758
-25 3 27 -2.2995 -0.3313
-25 3 28 -4.1158 0.2964
-25 3 29 7.6040 0.3665
-25 3 30 0.1367 -0.4242
-25 3 31 9.9452 -0.4549
-25 3 32 -0.0528 0.3654
-25 3 33 0.3614 0.3568
-25 3 34 -2.9010 0.0913
-25 5 1 0.8375 -0.5466
-25 5 2 3.6216 0.1064
-25 5 3 -4.5776 0.4052
-25 5 4 2.6587 -0.3384
-25 5 5 1.5281 -0.5017
-25 5 6 3.0274 0.2587
-25 5 7 -7.5300 1.0380
-25 5 8 -2.1493 0.0392
-25 5 9 3.7312 -1.0160
-25 5 10 5.2113 -0.1355
-25 5 11 4.5160 0.3818
-25 5 12 -9.4949 0.1579
-25 5 13 -3.9711 -0.1108
-25 5 14 4.7386 -0.1447
-25 5 15 3.6065 0.2639
-25 5 16 -4.1024 -0.0854
-25 5 17 0.1417 -0.3845
-25 5 18 4.3183 0.2359
-25 5 19 -1.0086 0.6432
-25 5 20 0.5843 -0.0815
-25 5 21 1.3973 -0.8526
-25 5 22 -2.7620 -0.2191
-25 5 23 -6.1722 0.7932
-25 5 24 -2.6707 0.4522
-25 5 25 -2.7996 -0.7123
-25 5 26 5.2954 -0.0988
-25 5 27 -0.5808 0.3470
-25 5 28 -7.8185 0.0505
-25 5 29 5.5811 -0.4219
-25 5 30 6.0017 0.3604
-25 5 31 -4.7976 0.3160
-25 5 32 -10.7523 -0.1521
-25 5 33 3.5126 -0.1919
-25 7 1 -8.2064 -0.6393
-25 7 2 1.4828 0.0323
-25 7 3 0.7024 0.4609
-25 7 4 1.2357 0.3116
-25 7 5 -0.8095 -0.1206
-25 7 6 2.3120 0.0123
-25 7 7 1.9559 0.0260
-25 7 8 1.6122 0.0924
-25 7 9 -7.9696 0.0444
-25 7 10 -0.2110 -0.0255
-25 7 11 -1.3640 0.4496
-25 7 12 3.7513 0.1438
-25 7 13 -4.8968 -0.5131
-25 7 14 -2.3298 -0.2899
-25 7 15 -5.1491 0.4039
-25 7 16 6.2708 0.3154
-25 7 17 0.1089 -0.1135
-25 7 18 -8.3958 -0.3044
-25 7 19 -1.5117 -0.0275
-25 7 20 7.9077 0.1456
-25 7 21 3.7657 -0.0275
-25 7 22 4.3846 -0.3676
-25 7 23 -3.6686 0.2497
-25 7 24 -3.0221 0.6055
-25 7 25 -5.9434 -0.4067
-25 7 26 12.1733 -0.5620
-25 7 27 4.0769 0.0649
-25 7 28 -7.2160 -0.0364
-25 7 29 -0.4108 -0.0594
-25 7 30 7.3880 0.1838
-25 7 31 3.9855 0.1492
-25 7 32 -6.6511 -0.2420
-25 9 1 7.0649 -0.0394
-25 9 2 -6.9162 0.5224
-25 9 3 6.6765 0.0662
-25 9 4 9.2260 -0.8255
-25 9 5 7.8960 -0.1143
-25 9 6 -2.6354 0.6598
-25 9 7 4.0748 0.1675
-25 9 8 -2.5818 -0.7486
-25 9 9 7.3106 -0.0254
-25 9 10 1.3321 0.6986
-25 9 11 9.2093 -0.3423
-25 9 12 -3.4384 -0.5781
-25 9 13 2.2331 0.2078
-25 9 14 -5.0593 0.5436
-25 9 15 7.3941 -0.1875
-25 9 16 -6.5068 -0.5591
-25 9 17 6.0391 0.2018
-25 9 18 -2.1720 0.5846
-25 9 19 -9.4414 -0.3959
-25 9 20 4.5830 -0.7024
-25 9 21 -1.4916 0.4548
-25 9 22 -5.2386 0.4556
-25 9 23 10.8996 -0.3305
-25 9 24 -0.9241 -0.3885
-25 9 25 -9.6621 0.2272
-25 9 26 -1.6177 0.3309
-25 9 27 12.5339 -0.0695
-25 9 28 0.6823 -0.1907
-25 9 29 -6.3892 0.2796
-25 9 30 -3.3616 0.2096
-25 11 1 9.3979 0.1729
-25 11 2 2.2548 0.1180
-25 11 3 3.1419 -0.2347
-25 11 4 7.8045 0.2072
-25 11 5 8.8439 0.2554
-25 11 6 3.1129 -0.1325
-25 11 7 8.7260 -0.3481
-25 11 8 5.3438 0.3803
-25 11 9 0.4187 0.2454
-25 11 10 6.3251 -0.2823
-25 11 11 -6.9669 -0.0920
-25 11 12 0.9624 0.1815
-25 11 13 -6.0944 0.0640
-25 11 14 5.4477 -0.2846
-25 11 15 -5.2900 -0.1372
-25 11 16 9.2005 0.2423
-25 11 17 4.7710 -0.0817
-25 11 18 0.8222 -0.2045
-25 11 19 -0.7812 -0.1612
-25 11 20 2.8664 0.2258
-25 11 21 27.5558 0.2588
-25 11 22 0.1837 -0.0264
-25 11 23 -7.4985 -0.4069
-25 11 24 -1.9440 0.1364
-25 11 25 5.4670 0.2393
-25 11 26 6.1590 0.0224
-25 11 27 -4.9554 -0.0513
-25 11 28 4.4145 0.1295
-25 13 1 -5.9755 0.1169
-25 13 2 -1.9737 -0.5029
-25 13 3 4.1920 -0.1674
-25 13 4 1.1141 0.3128
-25 13 5 -2.9011 -0.0279
-25 13 6 4.5821 -0.0262
-25 13 7 1.8671 0.0723
-25 13 8 -0.3981 -0.1025
-25 13 9 1.1920 -0.3750
-25 13 10 14.0804 -0.2801
-25 13 11 -5.3927 -0.1198
-25 13 12 -3.5038 0.0005
-25 13 13 3.6206 -0.2081
-25 13 14 -0.7410 -0.1534
-25 13 15 -9.5764 -0.2211
-25 13 16 -4.5379 0.1106
-25 13 17 1.5096 0.2048
-25 13 18 -3.1524 -0.1523
-25 13 19 1.3715 0.1817
-25 13 20 1.1762 0.1938
-25 13 21 -4.5601 0.0331
-25 13 22 7.1172 -0.4370
-25 13 23 6.3818 0.1331
-25 13 24 7.8508 0.1158
-25 13 25 6.3390 0.1369
-25 15 1 9.8092 -0.2310
-25 15 2 6.7848 -0.0025
-25 15 3 -13.9888 0.2056
-25 15 4 1.2642 -0.0757
-25 15 5 8.5474 -0.1353
-25 15 6 2.5834 -0.1968
-25 15 7 -14.0811 0.1071
-25 15 8 -0.9295 0.4608
-25 15 9 5.4162 -0.0643
-25 15 10 -14.9069 -0.4300
-25 15 11 -2.3988 0.4155
-25 15 12 7.4125 0.5038
-25 15 13 5.8835 -0.0134
-25 15 14 -7.4845 -0.5312
-25 15 15 5.6533 0.1721
-25 15 16 13.2239 0.1646
-25 15 17 -5.8691 -0.1190
-25 15 18 -5.2112 0.0082
-25 15 19 4.3038 0.1443
-25 15 20 4.5885 -0.8128
-25 15 21 -5.6030 -0.4506
-25 17 1 1.2225 0.1581
-25 17 2 -9.7782 0.4693
-25 17 3 -2.0242 0.6738
-25 17 4 4.3719 -0.8842
-25 17 5 -1.7390 -1.0415
-25 17 6 -9.8863 0.6780
-25 17 7 -3.9567 0.1785
-25 17 8 -8.2264 -0.4274
-25 17 9 -4.5878 -1.0194
-25 17 10 7.8544 1.0139
-25 17 11 0.7990 0.9115
-25 17 12 -6.2864 -0.9867
-24 0 2 2.3602 -0.0170
-24 0 4 1.5725 2.3535
-24 0 6 -7.4044 0.2131
-24 0 8 0.6795 -0.0555
-24 0 10 5.8533 0.9405
-24 0 12 8.4223 -2.6364
-24 0 14 -3.8447 6.4912
-24 0 16 2.7317 -9.0087
-24 0 18 -0.0057 9.5195
-24 0 20 3.7421 -8.2892
-24 0 22 5.2182 5.9221
-24 0 24 -1.0569 -3.5564
-24 0 26 11.9008 2.5879
-24 0 28 -4.6141 -2.1398
-24 0 30 -10.7213 1.8352
-24 0 32 1.7611 -1.1506
-24 0 34 -5.9390 0.7950
-24 2 1 4.2928 0.7868
-24 2 2 6.3324 1.1925
-24 2 3 -2.4518 0.2318
-24 2 4 2.4417 -1.1925
-24 2 5 8.5650 1.3100
-24 2 6 -0.5556 1.0143
-24 2 7 -3.1349 -1.5202
-24 2 8 3.5080 -0.2438
-24 2 9 0.1408 1.2776
-24 2 10 0.3119 -0.0739
-24 2 11 -3.7330 -0.6679
-24 2 12 -2.0048 1.1514
-24 2 13 10.1550 0.5324
-24 2 14 1.7624 -2.1853
-24 2 15 -6.3607 -0.5909
-24 2 16 -3.2398 2.1039
-24 2 17 4.2605 0.5682
-24 2 18 1.8907 -1.9114
-24 2 19 -3.3200 -0.6768
-24 2 20 0.7210 1.5527
-24 2 21 7.4451 0.5643
-24 2 22 9.2824 -1.1847
-24 2 23 -1.7748 -0.3472
-24 2 24 3.8466 0.6523
-24 2 25 -2.0742 0.0383
-24 2 26 0.7871 -0.1437
-24 2 27 0.7240 -0.0659
-24 2 28 -0.6202 0.0752
-24 2 29 5.7122 0.4057
-24 2 30 -1.9896 -0.3367
-24 2 31 6.8066 -0.5241
-24 2 32 -1.0876 0.2371
-24 2 33 -0.6290 0.1963
-24 2 34 4.5389 -0.0490
-24 2 35 -5.6384 -0.0096
-24 4 1 7.3318 0.8418
-24 4 2 0.4278 0.1855
-24 4 3 -4.8613 -0.7812
-24 4 4 4.2383 0.7770
-24 4 5 3.2551 0.4023
-24 4 6 -8.6175 -0.8385
-24 4 7 -1.2947 -0.2531
-24 4 8 10.4508 0.8612
-24 4 9 -4.4951 0.6586
-24 4 10 -13.9270 -0.3650
-24 4 11 7.5838 -0.8022
-24 4 12 8.0344 -0.2303
-24 4 13 -2.4760 0.4629
-24 4 14 -8.3365 0.2323
-24 4 15 2.4418 -0.0362
-24 4 16 -1.1569 -0.1608
-24 4 17 2.7786 0.1496
-24 4 18 -1.0779 0.0306
-24 4 19 1.5596 -0.3376
-24 4 20 -6.4337 0.0165
-24 4 21 3.8959 0.4313
-24 4 22 6.5507 0.1902
-24 4 23 -8.6980 -0.3223
-24 4 24 3.1953 -0.1387
-24 4 25 3.8944 0.0049
-24 4 26 -2.1223 0.2150
-24 4 27 -0.8794 0.2857
-24 4 28 2.9299 0.1275
-24 4 29 -1.1069 -0.1396
-24 4 30 -5.8524 -0.3760
-24 4 31 6.7699 0.0159
-24 4 32 5.0944 0.2845
-24 4 33 -0.6031 -0.0125
-24 4 34 -2.4000 0.0909
-24 6 1 0.9188 -0.9419
-24 6 2 3.0223 -0.3682
-24 6 3 -6.8580 0.9233
-24 6 4 -1.1529 -0.6103
-24 6 5 0.7792 -0.7957
-24 6 6 0.3200 0.4997
-24 6 7 -1.0380 0.7117
-24 6 8 4.0945 -0.5303
-24 6 9 4.8691 -0.7734
-24 6 10 -4.2265 -0.0467
-24 6 11 -6.8625 0.5623
-24 6 12 1.9507 0.0462
-24 6 13 4.9771 -0.5836
-24 6 14 2.9142 -0.1909
-24 6 15 -3.2428 0.7303
-24 6 16 0.0006 0.1633
-24 6 17 -1.2535 -0.9472
-24 6 18 3.5989 -0.5307
-24 6 19 -2.2001 0.6854
-24 6 20 1.5224 0.6830
-24 6 21 -0.6150 -0.4880
-24 6 22 5.2664 -0.8354
-24 6 23 0.5742 0.1742
-24 6 24 -3.6764 0.5786
-24 6 25 -3.0177 -0.4217
-24 6 26 6.0160 0.0329
-24 6 27 5.0239 0.4244
-24 6 28 6.5685 -0.2594
-24 6 29 -4.5631 -0.9121
-24 6 30 -1.0935 0.2366
-24 6 31 2.9944 0.7303
-24 6 32 0.9176 0.3380
-24 6 33 -11.3963 -0.3182
-24 8 1 -3.3839 0.3234
-24 8 2 1.8220 0.4469
-24 8 3 -2.9418 -0.3830
-24 8 4 -7.0212 0.2285
-24 8 5 7.2702 0.4352
-24 8 6 -0.4647 0.2163
-24 8 7 -0.7961 0.3319
-24 8 8 8.0094 -0.0419
-24 8 9 8.9369 -0.3895
-24 8 10 -6.0497 0.1543
-24 8 11 -3.1372 0.4103
-24 8 12 1.3928 -0.2799
-24 8 13 3.5829 -0.1490
-24 8 14 0.7540 0.5004
-24 8 15 -0.8578 -0.2477
-24 8 16 -9.5043 -0.6710
-24 8 17 4.1960 0.4491
-24 8 18 -2.8689 0.6557
-24 8 19 -5.3950 -0.3444
-24 8 20 1.1260 -0.5631
-24 8 21 -3.5702 0.3222
-24 8 22 2.2091 0.3641
-24 8 23 0.1138 -0.1605
-24 8 24 9.3578 0.0187
-24 8 25 1.5367 0.0562
-24 8 26 -4.3607 0.0394
-24 8 27 -5.1228 -0.1412
-24 8 28 11.5753 -0.0811
-24 8 29 9.8762 0.0834
-24 8 30 -9.3516 -0.0736
-24 8 31 -1.2237 -0.1157
-24 8 32 -2.5322 0.3992
-24 10 1 -1.5235 -0.3056
-24 10 2 2.6074 0.3427
-24 10 3 9.9299 0.0472
-24 10 4 -1.3669 -0.5635
-24 10 5 6.0644 -0.2531
-24 10 6 4.5078 0.2285
-24 10 7 5.2267 -0.1553
-24 10 8 -0.7771 -0.4712
-24 10 9 3.6806 0.0166
-24 10 10 -0.7740 0.4447
-24 10 11 -1.5477 -0.2721
-24 10 12 0.6786 -0.2989
-24 10 13 4.0728 0.2262
-24 10 14 3.4796 0.2151
-24 10 15 -0.0931 -0.0729
-24 10 16 -6.3365 -0.1354
-24 10 17 -0.6618 -0.0011
-24 10 18 18.5394 0.0540
-24 10 19 6.5375 0.0158
-24 10 20 -3.8802 -0.1128
-24 10 21 -0.2987 0.1992
-24 10 22 -3.4099 0.2212
-24 10 23 9.4879 -0.1532
-24 10 24 1.5789 -0.4027
-24 10 25 0.1940 0.3670
-24 10 26 -4.4417 0.5510
-24 10 27 -2.0187 0.0548
-24 10 28 6.8728 -0.3594
-24 10 29 4.3060 0.3095
-24 10 30 2.0870 0.1833
-24 12 1 1.5436 0.4139
-24 12 2 -4.4576 -0.1721
-24 12 3 -2.1617 -0.3822
-24 12 4 2.7136 0.4109
-24 12 5 6.5771 0.4096
-24 12 6 -1.4851 -0.3889
-24 12 7 9.2453 -0.2301
-24 12 8 4.8077 0.5382
-24 12 9 1.4397 0.1716
-24 12 10 4.5938 -0.4583
-24 12 11 4.6242 -0.0780
-24 12 12 4.0257 0.1180
-24 12 13 -19.5156 0.2622
-24 12 14 -4.9191 -0.2728
-24 12 15 -3.1478 -0.2616
-24 12 16 5.1525 0.3040
-24 12 17 -8.7666 0.0742
-24 12 18 -6.4407 -0.3084
-24 12 19 5.5628 -0.1499
-24 12 20 2.5229 0.3514
-24 12 21 13.8206 0.2196
-24 12 22 2.2469 -0.1865
-24 12 23 0.9164 -0.1768
-24 12 24 9.1839 0.3617
-24 12 25 8.6766 -0.3388
-24 12 26 6.4277 -0.1657
-24 12 27 3.6809 0.2415
-24 14 1 2.5716 -0.1295
-24 14 2 4.1880 -0.2688
-24 14 3 -9.8340 0.2915
-24 14 4 -5.6316 0.3818
-24 14 5 7.9783 -0.3623
-24 14 6 5.0280 -0.1108
-24 14 7 -6.2386 0.2571
-24 14 8 -1.6970 0.1118
-24 14 9 -0.1753 -0.2916
-24 14 10 -3.2074 -0.4389
-24 14 11 10.7588 -0.1560
-24 14 12 3.0400 0.0990
-24 14 13 -0.9508 -0.0659
-24 14 14 4.3815 0.1011
-24 14 15 5.9027 0.1268
-24 14 16 -10.3806 -0.0613
-24 14 17 -5.6975 -0.3446
-24 14 18 5.6037 -0.2218
-24 14 19 -5.0650 0.5786
-24 14 20 -8.6767 0.1946
-24 14 21 -4.0970 -0.1502
-24 14 22 3.2023 -0.0468
-24 14 23 -5.3778 -0.0005
-24 14 24 6.2205 0.1916
-24 16 1 -11.5572 -0.1065
-24 16 2 4.0930 -0.2759
-24 16 3 19.9296 -0.1968
-24 16 4 -6.4055 0.1770
-24 16 5 -26.3198 0.2208
-24 16 6 -4.5667 -0.4859
-24 16 7 11.4046 -0.2140
-24 16 8 -2.6293 0.2684
-24 16 9 -5.3918 -0.2408
-24 16 10 -9.8211 -0.0913
-24 16 11 3.8911 0.2339
-24 16 12 6.2586 0.2189
-24 16 13 -3.6272 -0.1700
-24 16 14 -1.3012 -0.0338
-24 16 15 -2.5487 0.5285
-24 16 16 5.4364 0.2227
-24 16 17 7.0443 -0.3301
-24 16 18 -0.5048 0.0032
-24 16 19 1.4344 0.2298
-23 1 1 -2.6001 0.0152
-23 1 2 5.0637 5.3407
-23 1 3 7.7099 -0.4317
-23 1 4 2.0384 0.8427
-23 1 5 -2.2327 0.7916
-23 1 6 4.2772 -0.7772
-23 1 7 2.5285 0.5844
-23 1 8 -7.1038 0.3593
-23 1 9 -6.0819 -1.8552
-23 1 10 6.1739 1.2494
-23 1 11 -1.0179 1.4759
-23 1 12 1.3458 -2.0307
-23 1 13 -1.0178 -0.8114
-23 1 14 3.1739 1.4678
-23 1 15 6.2688 -0.0672
-23 1 16 -3.0198 -0.6319
-23 1 17 -3.2585 0.2691
-23 1 18 -2.7569 -0.2286
-23 1 19 -0.2636 -0.0126
-23 1 20 5.4143 0.2160
-23 1 21 0.8005 -0.5315
-23 1 22 -0.8407 0.6288
-23 1 23 -11.2449 0.5381
-23 1 24 10.2773 -1.1796
-23 1 25 -6.9286 -0.2317
-23 1 26 4.2535 1.5067
-23 1 27 -3.1026 0.0546
-23 1 28 -4.3068 -1.0926
-23 1 29 -0.5727 0.2128
-23 1 30 -2.6853 0.3597
-23 1 31 6.2220 0.0419
-23 1 32 -6.5706 -0.0407
-23 1 33 -0.6052 -0.4075
-23 1 34 2.0529 0.3290
-23 1 35 -3.1298 0.3625
-23 3 1 -8.0094 0.7194
-23 3 2 1.3793 -0.9668
-23 3 3 6.7232 0.0283
-23 3 4 1.0568 0.3336
-23 3 5 -0.5538 1.2407
-23 3 6 0.4520 -0.3184
-23 3 7 -0.2685 -1.7518
-23 3 8 -4.8968 0.4324
-23 3 9 4.3753 2.0406
-23 3 10 0.7039 -0.5208
-23 3 11 -8.8525 -1.5870
-23 3 12 -5.6804 0.7176
-23 3 13 1.9511 1.6482
-23 3 14 -0.6004 -1.3462
-23 3 15 1.3110 -1.7151
-23 3 16 -2.4584 1.2889
-23 3 17 -7.0916 1.4950
-23 3 18 -3.4040 -1.0827
-23 3 19 2.5120 -0.9491
-23 3 20 -0.1580 0.8406
-23 3 21 4.2691 0.5254
-23 3 22 3.2397 -0.5209
-23 3 23 -1.5516 -0.1908
-23 3 24 10.4147 0.5816
-23 3 25 -6.4547 0.4209
-23 3 26 -3.2923 -0.7503
-23 3 27 4.6737 -0.4809
-23 3 28 -1.9717 0.7300
-23 3 29 0.2487 0.6617
-23 3 30 -2.4782 -0.7462
-23 3 31 2.8757 -0.4378
-23 3 32 7.6974 0.0804
-23 3 33 1.0491 0.2657
-23 3 34 3.0962 0.2524
-23 3 35 -3.8725 0.2222
-23 5 1 -4.2394 -0.0567
-23 5 2 -4.9461 0.1562
-23 5 3 3.8305 0.7307
-23 5 4 9.5542 0.2265
-23 5 5 -1.7252 -0.8351
-23 5 6 3.1023 -0.3705
-23 5 7 1.9672 0.8357
-23 5 8 -5.3360 0.0017
-23 5 9 2.4415 -0.6744
-23 5 10 2.6586 0.2944
-23 5 11 -3.3519 0.7105
-23 5 12 -5.8804 -0.7435
-23 5 13 5.2176 -1.0226
-23 5 14 3.9267 0.4130
-23 5 15 -0.6689 0.8534
-23 5 16 -3.3361 0.2118
-23 5 17 1.6285 -0.3969
-23 5 18 -0.8843 -0.3722
-23 5 19 1.9277 -0.1549
-23 5 20 7.3292 0.0939
-23 5 21 -8.6107 0.0284
-23 5 22 3.7652 0.2484
-23 5 23 3.4289 0.3184
-23 5 24 1.5642 -0.3106
-23 5 25 -6.6365 -0.6855
-23 5 26 7.3732 0.1948
-23 5 27 7.1416 0.7568
-23 5 28 -2.9220 0.1439
-23 5 29 -3.6035 -0.1887
-23 5 30 0.5094 -0.3529
-23 5 31 -4.3589 -0.0644
-23 5 32 2.5560 0.1175
-23 5 33 -5.9296 -0.2315
-23 5 34 0.4069 -0.2536
-23 7 1 -13.4842 -0.4650
-23 7 2 -0.5179 0.0922
-23 7 3 1.2780 0.4592
-23 7 4 -4.8139 -0.0530
-23 7 5 -3.0309 -0.3357
-23 7 6 -5.9413 -0.1611
-23 7 7 8.4834 0.3348
-23 7 8 3.6164 -0.0328
-23 7 9 3.7402 -0.1653
-23 7 10 0.0900 0.0208
-23 7 11 0.1806 -0.2232
-23 7 12 -1.1006 -0.3593
-23 7 13 1.4711 0.0438
-23 7 14 1.3802 0.2472
-23 7 15 5.8050 0.2608
-23 7 16 3.0320 -0.0437
-23 7 17 -8.5203 -0.5400
-23 7 18 -3.4758 -0.2543
-23 7 19 2.1438 0.3285
-23 7 20 -3.4529 0.2261
-23 7 21 -9.4824 -0.1765
-23 7 22 7.0832 0.0596
-23 7 23 6.9550 0.2141
-23 7 24 0.4043 0.0169
-23 7 25 -3.0005 -0.2659
-23 7 26 6.9010 0.0831
-23 7 27 5.0606 -0.0594
-23 7 28 9.2669 0.0543
-23 7 29 -6.6223 0.0303
-23 7 30 4.6379 -0.2064
-23 7 31 -1.1533 0.0138
-23 7 32 2.8095 0.6912
-23 7 33 -0.0238 0.0275
-23 9 1 -5.0000 0.2355
-23 9 2 2.9687 0.1042
-23 9 3 1.3609 -0.3768
-23 9 4 -8.9199 0.2056
-23 9 5 3.8281 0.0855
-23 9 6 5.7620 0.0598
-23 9 7 2.1434 0.0516
-23 9 8 -7.6600 -0.3110
-23 9 9 6.0717 -0.0373
-23 9 10 13.3978 0.3438
-23 9 11 1.6307 0.0251
-23 9 12 -10.6599 -0.4410
-23 9 13 -2.5204 -0.0234
-23 9 14 1.5543 0.5520
-23 9 15 6.8865 0.0871
-23 9 16 1.8239 -0.6746
-23 9 17 -0.9042 -0.0192
-23 9 18 -11.9250 0.7436
-23 9 19 2.8437 0.0442
-23 9 20 12.5201 -0.8352
-23 9 21 -2.8698 0.2384
-23 9 22 -5.3344 0.6848
-23 9 23 1.2523 -0.4404
-23 9 24 5.3949 -0.4208
-23 9 25 1.9039 0.3254
-23 9 26 -0.5129 0.3708
-23 9 27 -0.2122 -0.1610
-23 9 28 -3.0694 -0.4634
-23 9 29 2.8851 0.0381
-23 9 30 1.7507 0.4233
-23 9 31 1.8812 -0.2165
-23 9 32 -10.4593 0.1989
-23 11 1 -3.1945 -0.1346
-23 11 2 -0.0916 0.0625
-23 11 3 3.5812 -0.1069
-23 11 4 1.7261 -0.0911
-23 11 5 3.4611 0.0897
-23 11 6 1.5420 -0.0745
-23 11 7 6.2593 -0.1561
-23 11 8 -1.5599 -0.0034
-23 11 9 4.0352 0.1801
-23 11 10 4.1977 0.1106
-23 11 11 -5.0746 -0.1708
-23 11 12 -8.2860 0.1053
-23 11 13 -4.7357 0.2903
-23 11 14 -1.8009 -0.3101
-23 11 15 -11.6983 -0.0850
-23 11 16 0.7184 0.4138
-23 11 17 3.6276 0.1210
-23 11 18 7.6668 -0.3485
-23 11 19 -3.4020 -0.1648
-23 11 20 -2.2311 0.3863
-23 11 21 11.3462 0.2679
-23 11 22 4.4473 -0.3693
-23 11 23 11.4130 0.1024
-23 11 24 1.2970 0.3684
-23 11 25 -1.8723 -0.0063
-23 11 26 12.9193 -0.1967
-23 11 27 4.2816 0.1691
-23 11 28 6.3578 0.1364
-23 11 29 1.0022 0.1939
-23 13 1 -5.9060 0.4295
-23 13 2 2.7811 -0.2976
-23 13 3 -1.0487 -0.0995
-23 13 4 -1.9205 0.3818
-23 13 5 -5.5020 0.1620
-23 13 6 -8.1664 -0.3004
-23 13 7 9.0307 -0.2990
-23 13 8 -3.6139 0.0716
-23 13 9 3.6803 0.2924
-23 13 10 -0.8142 -0.1673
-23 13 11 9.4420 -0.1886
-23 13 12 -2.5756 0.0017
-23 13 13 1.1502 0.1615
-23 13 14 1.9976 -0.0697
-23 13 15 -5.2427 0.0996
-23 13 16 -9.4069 0.2252
-23 13 17 -8.5406 0.1181
-23 13 18 -3.9607 -0.0722
-23 13 19 1.2112 -0.1313
-23 13 20 -5.1585 -0.0990
-23 13 21 -4.5904 0.0877
-23 13 22 -4.0363 0.3295
-23 13 23 -3.5712 0.0054
-23 13 24 12.0548 0.2490
-23 13 25 3.5939 -0.1004
-23 13 26 -3.4897 0.0428
-23 13 27 6.5128 -0.3715
-23 15 1 2.7246 -0.0395
-23 15 2 5.3999 -0.2567
-23 15 3 -3.8738 0.1821
-23 15 4 0.6423 0.4753
-23 15 5 -0.5188 -0.3517
-23 15 6 -6.6731 -0.3013
-23 15 7 2.7271 0.3798
-23 15 8 1.2394 0.2554
-23 15 9 1.5312 -0.2285
-23 15 10 -3.6718 -0.4330
-23 15 11 8.7140 0.1601
-23 15 12 0.6232 0.3820
-23 15 13 4.2531 -0.5256
-23 15 14 5.2222 -0.2973
-23 15 15 -5.0138 0.5107
-23 15 16 8.7610 0.3356
-23 15 17 0.7709 -0.1566
-23 15 18 -15.8916 -0.5777
-23 15 19 5.7994 -0.3209
-23 15 20 5.6585 0.4648
-23 15 21 0.2659 -0.1423
-23 15 22 -0.4498 -0.2651
-23 15 23 1.8879 -0.1004
-23 17 1 8.6176 -0.1119
-23 17 2 9.6992 0.2430
-23 17 3 -3.9637 0.0368
-23 17 4 -8.5164 0.0989
-23 17 5 10.9003 0.1261
-23 17 6 -0.4238 -0.0693
-23 17 7 -1.7835 0.1442
-23 17 8 -12.6788 -0.2505
-23 17 9 3.6079 -0.2799
-23 17 10 -1.4087 0.5262
-23 17 11 -0.5883 -0.3303
-23 17 12 11.3407 0.0914
-23 17 13 5.9300 -0.0997
-23 17 14 -6.3391 0.9412
-23 17 15 -6.6125 0.1954
-23 17 16 4.3317 -0.3263
-23 17 17 10.6208 0.6118
-22 0 2 -2.6855 16.1381
-22 0 4 5.7026 -12.6893
-22 0 6 -0.6751 10.0685
-22 0 8 -2.6979 -6.0186
-22 0 10 -1.7227 1.0932
-22 0 12 3.5608 1.2409
-22 0 14 7.8362 -1.3814
-22 0 16 0.7709 -1.0772
-22 0 18 -8.1433 3.9696
-22 0 20 -3.0419 -6.2186
-22 0 22 -2.5895 6.9448
-22 0 24 0.1920 -5.9422
-22 0 26 6.0111 4.6751
-22 0 28 -4.5948 -3.3591
-22 0 30 -8.6173 2.3766
-22 0 32 -0.7778 -1.9209
-22 0 34 -8.2640 1.4831
-22 0 36 1.9853 -0.8284
-22 2 1 -0.6148 -0.2545
-22 2 2 7.1934 -2.5778
-22 2 3 -1.3185 0.3343
-22 2 4 2.1049 1.5702
-22 2 5 0.6932 -0.5449
-22 2 6 -6.1255 -1.3108
-22 2 7 6.8889 -0.2303
-22 2 8 5.2038 1.0901
-22 2 9 -6.9129 0.7435
-22 2 10 -9.3075 -0.7333
-22 2 11 -4.8721 -1.5931
-22 2 12 3.0502 0.1823
-22 2 13 1.2993 1.8615
-22 2 14 -6.9444 -0.0147
-22 2 15 -6.0158 -1.6120
-22 2 16 2.2324 -0.1248
-22 2 17 4.2319 0.8185
-22 2 18 -7.4503 -0.1886
-22 2 19 -4.1272 -0.2534
-22 2 20 1.7590 1.1253
-22 2 21 -0.0770 0.3431
-22 2 22 3.8641 -1.7920
-22 2 23 -2.0939 -0.4269
-22 2 24 6.7948 2.2336
-22 2 25 -15.9333 0.5987
-22 2 26 3.3044 -1.9509
-22 2 27 -0.4586 -0.3030
-22 2 28 -11.2271 0.8359
-22 2 29 1.8818 0.1553
-22 2 30 -1.2172 -0.0366
-22 2 31 3.1205 -0.3138
-22 2 32 2.4829 -0.3025
-22 2 33 -1.2594 0.2110
-22 2 34 2.6761 0.3267
-22 2 35 -2.3152 0.1629
-22 2 36 5.3744 -0.0666
-22 4 1 2.6042 1.2084
-22 4 2 7.2844 0.4392
-22 4 3 -3.3392 -0.4191
-22 4 4 -1.5276 -0.5291
-22 4 5 5.8038 1.0819
-22 4 6 4.8223 0.4430
-22 4 7 2.7202 -0.2243
-22 4 8 -3.0320 -0.0349
-22 4 9 -2.4850 0.0631
-22 4 10 -4.3401 -0.5625
-22 4 11 -2.0940 -0.0181
-22 4 12 -5.8472 0.8500
-22 4 13 2.6684 0.4635
-22 4 14 4.0721 -0.9081
-22 4 15 -7.8007 -0.9243
-22 4 16 -5.0259 0.5570
-22 4 17 3.8734 1.0265
-22 4 18 3.3104 0.3364
-22 4 19 2.6153 -0.7098
-22 4 20 -4.1345 -0.4746
-22 4 21 -5.4723 0.3826
-22 4 22 14.1823 -0.0451
-22 4 23 -2.1856 -0.1335
-22 4 24 3.1088 0.4802
-22 4 25 -0.5134 0.2735
-22 4 26 0.5794 -0.4432
-22 4 27 -6.2364 -0.3638
-22 4 28 3.5585 -0.1082
-22 4 29 2.4411 0.6786
-22 4 30 -4.0911 0.1329
-22 4 31 -5.2231 -0.3367
-22 4 32 6.7740 -0.3385
-22 4 33 -0.8849 -0.3014
-22 4 34 1.5051 -0.2560
-22 4 35 0.6060 1.0326
-22 6 1 0.8838 -0.8728
-22 6 2 -0.7175 -1.2197
-22 6 3 -8.4117 0.9557
-22 6 4 -6.4534 0.8817
-22 6 5 3.0026 -1.3849
-22 6 6 5.6826 -0.8559
-22 6 7 5.2983 0.9764
-22 6 8 -6.8207 -0.2169
-22 6 9 2.2798 -0.9323
-22 6 10 -1.0527 0.1907
-22 6 11 2.0829 0.7931
-22 6 12 1.8242 -0.1580
-22 6 13 0.0399 -0.9366
-22 6 14 -2.5209 0.1225
-22 6 15 9.6968 0.8988
-22 6 16 6.7302 0.0092
-22 6 17 -5.9205 -0.9521
-22 6 18 -7.6943 0.0431
-22 6 19 -1.9875 0.7276
-22 6 20 1.0868 -0.1047
-22 6 21 -7.3557 -0.7668
-22 6 22 6.8490 -0.0200
-22 6 23 0.9943 0.6650
-22 6 24 1.0830 0.3410
-22 6 25 2.2023 -0.2827
-22 6 26 -3.3832 -0.6071
-22 6 27 5.7213 0.1221
-22 6 28 13.0145 0.4014
-22 6 29 0.3258 0.0815
-22 6 30 -1.7930 -0.1639
-22 6 31 -12.2507 0.2610
-22 6 32 2.3538 -0.0384
-22 6 33 -2.0501 -0.4166
-22 6 34 4.6015 -0.2921
-22 8 1 -1.9162 0.0781
-22 8 2 1.3876 0.5048
-22 8 3 -5.6281 -0.0811
-22 8 4 -4.9062 -0.3182
-22 8 5 3.7191 0.4385
-22 8 6 -2.8388 0.5141
-22 8 7 3.4928 -0.4279
-22 8 8 0.0452 -0.1509
-22 8 9 7.5545 0.3638
-22 8 10 1.4047 0.1340
-22 8 11 1.7383 -0.4794
-22 8 12 2.2310 -0.1681
-22 8 13 3.9158 0.3097
-22 8 14 -2.5645 0.1327
-22 8 15 -1.1998 -0.2009
-22 8 16 -0.1591 -0.2716
-22 8 17 6.8505 0.0317
-22 8 18 0.3254 0.4770
-22 8 19 -4.8515 -0.1666
-22 8 20 -1.4250 -0.6514
-22 8 21 1.5074 0.1812
-22 8 22 1.1965 0.9333
-22 8 23 -0.8588 -0.1834
-22 8 24 7.7637 -0.7260
-22 8 25 2.5676 -0.2279
-22 8 26 1.1802 0.5144
-22 8 27 -11.5643 0.0371
-22 8 28 4.7693 -0.4055
-22 8 29 3.4825 0.0589
-22 8 30 3.0318 0.4100
-22 8 31 -8.3499 -0.3709
-22 8 32 -6.0561 0.0729
-22 8 33 2.1497 0.3193
-22 10 1 -12.0382 -0.0077
-22 10 2 3.9479 0.0050
-22 10 3 8.4171 -0.0969
-22 10 4 -0.7598 -0.1811
-22 10 5 -6.2338 -0.1246
-22 10 6 -4.1945 0.1087
-22 10 7 9.7582 0.1350
-22 10 8 6.2643 -0.3510
-22 10 9 -5.9445 -0.1220
-22 10 10 -7.6012 0.0098
-22 10 11 1.2688 0.2100
-22 10 12 10.1169 -0.0595
-22 10 13 -11.8593 -0.0739
-22 10 14 -12.8022 0.1914
-22 10 15 2.6297 0.2544
-22 10 16 3.9456 -0.1874
-22 10 17 -2.7549 -0.0978
-22 10 18 -2.8604 0.1724
-22 10 19 2.9795 0.2091
-22 10 20 6.2839 -0.0404
-22 10 21 0.4853 -0.0161
-22 10 22 -3.0516 -0.0615
-22 10 23 3.5638 0.0993
-22 10 24 6.7382 0.0307
-22 10 25 6.6785 0.0773
-22 10 26 2.8162 -0.0344
-22 10 27 4.1114 -0.1916
-22 10 28 5.4225 0.0347
-22 10 29 -1.5856 0.4162
-22 10 30 -1.4550 -0.2028
-22 10 31 4.9046 -0.5373
-22 12 1 7.0842 0.1574
-22 12 2 -10.2507 -0.1515
-22 12 3 -12.7133 -0.2697
-22 12 4 5.0174 -0.0259
-22 12 5 3.8173 0.3880
-22 12 6 -2.6591 -0.1178
-22 12 7 -1.2856 -0.4190
-22 12 8 -10.6007 0.1092
-22 12 9 5.4869 0.5772
-22 12 10 0.0659 -0.1248
-22 12 11 4.4255 -0.5153
-22 12 12 -9.0406 0.4623
-22 12 13 -0.0642 0.6636
-22 12 14 -14.0905 -0.4682
-22 12 15 -15.0309 -0.4924
-22 12 16 3.7892 0.3475
-22 12 17 8.1331 0.3675
-22 12 18 -6.4143 -0.1695
-22 12 19 -10.8840 -0.3078
-22 12 20 -0.4848 0.1600
-22 12 21 8.4132 0.1035
-22 12 22 -2.7750 -0.2543
-22 12 23 -5.3616 -0.1719
-22 12 24 5.0768 0.0916
-22 12 25 -1.2170 0.1116
-22 12 26 10.0022 0.0713
-22 12 27 3.0648 -0.3486
-22 12 28 6.8290 -0.0381
-22 12 29 0.9136 0.0626
-22 14 1 6.2598 0.2331
-22 14 2 10.6711 -0.0213
-22 14 3 -10.8643 0.1880
-22 14 4 2.7694 0.2000
-22 14 5 -0.4079 -0.1040
-22 14 6 -5.1485 -0.1295
-22 14 7 6.8598 0.0784
-22 14 8 -7.2095 0.0555
-22 14 9 6.8654 -0.2817
-22 14 10 0.4361 -0.0606
-22 14 11 14.1422 0.3690
-22 14 12 -2.9955 -0.0208
-22 14 13 3.4784 -0.3727
-22 14 14 7.8980 0.1573
-22 14 15 -1.4049 0.3840
-22 14 16 -3.4986 0.0171
-22 14 17 -3.3803 0.0616
-22 14 18 -1.4172 -0.1469
-22 14 19 1.2641 -0.0607
-22 14 20 -4.1424 0.1156
-22 14 21 -0.3216 -0.2461
-22 14 22 3.8314 0.2370
-22 14 23 -1.2807 0.6062
-22 14 24 0.7065 0.1296
-22 14 25 -3.3532 -0.4293
-22 14 26 1.5676 0.6277
-22 16 1 -12.8611 -0.2200
-22 16 2 11.2386 -0.2399
-22 16 3 6.9964 0.1998
-22 16 4 5.9348 0.3851
-22 16 5 5.9193 -0.4012
-22 16 6 -13.4406 -0.3355
-22 16 7 -3.5920 0.4294
-22 16 8 -0.3011 0.3589
-22 16 9 13.0766 0.2256
-22 16 10 0.5000 -0.4234
-22 16 11 4.1270 -0.3566
-22 16 12 -1.0090 0.4534
-22 16 13 -2.6222 0.0312
-22 16 14 19.9661 -0.0926
-22 16 15 4.0718 0.1974
-22 16 16 -9.5178 0.2603
-22 16 17 -3.9603 -0.0920
-22 16 18 3.0102 -0.0142
-22 16 19 9.4264 0.3574
-22 16 20 -13.1907 0.1028
-22 16 21 8.8851 -1.4534
-22 18 1 4.1193 -0.4224
-22 18 2 1.9401 1.1063
-22 18 3 0.5346 0.4783
-22 18 4 -2.6621 -0.8279
-22 18 5 12.6152 -0.1505
-22 18 6 0.2739 0.7056
-22 18 7 2.2927 0.4558
-22 18 8 -10.5244 -1.1507
-22 18 9 1.6139 -0.3919
-22 18 10 1.9357 1.0079
-22 18 11 2.6403 -0.0814
-22 18 12 -4.1121 -0.6772
-22 18 13 2.6418 -0.8125
-22 18 14 0.0656 1.5119
-21 1 1 -1.8298 -2.2512
-21 1 2 -7.7513 3.6818
-21 1 3 -3.7766 1.2616
-21 1 4 5.6814 -1.7853
-21 1 5 3.1961 -0.6300
-21 1 6 -0.1927 -1.1496
-21 1 7 2.1467 -0.8635
-21 1 8 0.0935 0.5551
-21 1 9 -1.8329 0.2151
-21 1 10 -4.1763 0.4068
-21 1 11 -0.6401 0.4444
-21 1 12 -1.7397 -2.2915
-21 1 13 -7.4534 -1.0236
-21 1 14 5.9334 2.7109
-21 1 15 2.9646 1.3209
-21 1 16 -4.0178 -1.9290
-21 1 17 -0.6635 -0.9829
-21 1 18 2.3933 0.8082
-21 1 19 0.5811 0.6555
-21 1 20 -14.3733 0.1314
-21 1 21 -0.6162 -0.1125
-21 1 22 3.0919 -0.3261
-21 1 23 -3.9662 -0.0366
-21 1 24 -0.7418 0.1713
-21 1 25 -10.4795 -0.2448
-21 1 26 -2.9296 0.2276
-21 1 27 -6.1860 0.5339
-21 1 28 -5.7207 -0.7218
-21 1 29 -0.1278 -0.5756
-21 1 30 -8.3540 0.7682
-21 1 31 5.8196 0.1806
-21 1 32 -4.2256 -0.6036
-21 1 33 -0.6248 -0.0062
-21 1 34 2.6479 0.4157
-21 1 35 5.5322 -0.1720
-21 1 36 -5.8262 -0.6272
-21 3 1 1.0778 -0.0443
-21 3 2 -0.2352 -1.3831
-21 3 3 -0.7583 0.3443
-21 3 4 1.9796 -0.1938
-21 3 5 8.8483 -0.0068
-21 3 6 -2.8616 -0.7026
-21 3 7 -1.5021 -1.0578
-21 3 8 -2.8232 1.0957
-21 3 9 2.2261 1.9549
-21 3 10 -1.1118 -1.1216
-21 3 11 3.6945 -2.2055
-21 3 12 -4.4103 0.7998
-21 3 13 -12.3046 1.9096
-21 3 14 0.5429 -0.3648
-21 3 15 8.2241 -1.6913
-21 3 16 -2.4574 0.5760
-21 3 17 -4.5100 1.3213
-21 3 18 -6.2785 -0.7065
-21 3 19 7.2345 -1.3047
-21 3 20 -0.2509 1.1412
-21 3 21 -0.3652 1.5635
-21 3 22 0.1877 -1.2264
-21 3 23 -0.6654 -1.6456
-21 3 24 4.4459 0.5167
-21 3 25 -2.3522 1.3906
-21 3 26 -1.3136 -0.0735
-21 3 27 1.9945 -0.9278
-21 3 28 -6.3524 0.0619
-21 3 29 1.1702 0.2105
-21 3 30 5.4856 -0.7285
-21 3 31 -2.7234 -0.1172
-21 3 32 0.7341 1.1581
-21 3 33 6.0304 -0.0850
-21 3 34 10.9791 -0.5792
-21 3 35 -6.0046 0.2251
-21 3 36 -0.1495 0.0399
-21 5 1 -7.5979 -0.0528
-21 5 2 -0.4792 0.0260
-21 5 3 -2.9496 -0.0555
-21 5 4 4.3388 -0.0094
-21 5 5 1.1591 0.0058
-21 5 6 2.1895 0.1500
-21 5 7 2.8064 0.2975
-21 5 8 -2.6337 0.5460
-21 5 9 0.6494 -0.8948
-21 5 10 -6.5632 -0.7166
-21 5 11 -1.0674 1.3125
-21 5 12 -0.9226 0.4567
-21 5 13 -0.2785 -1.5688
-21 5 14 0.8698 0.2586
-21 5 15 0.7545 1.3752
-21 5 16 0.4201 -0.2675
-21 5 17 1.3989 -0.8508
-21 5 18 -2.2733 0.2136
-21 5 19 -7.2491 0.4904
-21 5 20 10.0305 -0.0018
-21 5 21 2.7788 -0.3024
-21 5 22 -4.2350 -0.2785
-21 5 23 -14.4511 0.1718
-21 5 24 20.9879 0.1658
-21 5 25 3.5348 -0.1086
-21 5 26 -4.4577 -0.1740
-21 5 27 -10.2420 0.2731
-21 5 28 3.2007 -0.1423
-21 5 29 1.5380 -0.2844
-21 5 30 4.3071 0.0366
-21 5 31 -8.7854 0.3436
-21 5 32 -6.1973 -0.1046
-21 5 33 -10.1393 -0.1800
-21 5 34 3.5154 -0.2788
-21 5 35 7.9051 0.1612
-21 7 1 8.2436 -0.4604
-21 7 2 -6.6146 -0.8932
-21 7 3 -0.8553 0.6243
-21 7 4 5.7933 0.4354
-21 7 5 -1.2016 -0.6897
-21 7 6 -12.8335 -0.6834
-21 7 7 10.2860 0.4025
-21 7 8 1.5474 0.1485
-21 7 9 -0.7326 -0.3287
-21 7 10 1.0391 -0.1602
-21 7 11 8.2035 0.1086
-21 7 12 -3.0166 0.3873
-21 7 13 -6.0168 0.0000
-21 7 14 8.4241 -0.3264
-21 7 15 13.8879 0.0305
-21 7 16 -6.2548 0.0699
-21 7 17 5.8151 -0.1237
-21 7 18 5.8007 0.3355
-21 7 19 -9.8544 0.0429
-21 7 20 -9.8057 -0.5269
-21 7 21 7.7802 -0.2161
-21 7 22 8.3942 0.4549
-21 7 23 -3.0137 0.5312
-21 7 24 -8.9997 -0.0307
-21 7 25 5.4975 -0.4216
-21 7 26 5.3081 -0.3163
-21 7 27 -2.2793 0.2964
-21 7 28 1.1057 0.0453
-21 7 29 1.8890 0.2223
-21 7 30 7.1934 0.0477
-21 7 31 -6.7239 -0.1270
-21 7 32 6.0859 -0.0231
-21 7 33 -2.7285 0.1195
-21 7 34 -4.5042 -0.3169
-21 9 1 -3.3459 0.5553
-21 9 2 0.0403 1.0773
-21 9 3 -10.5677 -0.4104
-21 9 4 5.0370 -0.7982
-21 9 5 3.7230 0.3321
-21 9 6 -6.9969 0.6653
-21 9 7 -2.6308 -0.2694
-21 9 8 0.6159 -0.4346
-21 9 9 4.1280 0.0999
-21 9 10 4.3153 0.4488
-21 9 11 3.3083 -0.0688
-21 9 12 -0.5433 -0.5585
-21 9 13 -6.6634 0.0600
-21 9 14 -1.5964 0.5345
-21 9 15 2.3750 0.0304
-21 9 16 4.1162 -0.4930
-21 9 17 -1.7579 -0.1456
-21 9 18 -9.5472 0.4638
-21 9 19 4.7261 0.0908
-21 9 20 5.2213 -0.2979
-21 9 21 -6.0944 -0.1217
-21 9 22 7.9289 0.3411
-21 9 23 6.6802 -0.1343
-21 9 24 0.3793 -0.3451
-21 9 25 -6.5086 -0.1553
-21 9 26 6.8250 0.4469
-21 9 27 -0.4676 -0.2747
-21 9 28 -6.5262 -0.5149
-21 9 29 -6.5511 0.1561
-21 9 30 2.5306 0.6298
-21 9 31 -2.5190 -0.3592
-21 9 32 -12.1169 -0.0086
-21 11 1 -9.2770 0.0322
-21 11 2 5.9050 -0.2325
-21 11 3 1.9696 0.0158
-21 11 4 -3.4287 0.0764
-21 11 5 1.9522 0.0124
-21 11 6 -3.5623 -0.0995
-21 11 7 -4.8576 -0.0444
-21 11 8 -1.9266 0.1564
-21 11 9 5.8799 0.4222
-21 11 10 -1.6397 -0.2821
-21 11 11 -16.8317 -0.5237
-21 11 12 -5.3909 0.3129
-21 11 13 0.8352 0.4432
-21 11 14 -7.5759 -0.3006
-21 11 15 -11.7154 -0.3591
-21 11 16 -2.5558 0.3033
-21 11 17 0.8042 0.1209
-21 11 18 3.9311 -0.2320
-21 11 19 4.2481 -0.0383
-21 11 20 -3.1102 0.2212
-21 11 21 -11.0114 0.1429
-21 11 22 1.8033 -0.4628
-21 11 23 6.3937 -0.1578
-21 11 24 -3.6793 0.3157
-21 11 25 -6.4504 0.2284
-21 11 26 11.8728 -0.4039
-21 11 27 9.4982 -0.0242
-21 11 28 3.8253 0.0790
-21 11 29 -3.4193 0.1696
-21 11 30 10.4496 -0.0005
-21 11 31 1.9730 -0.1924
-21 13 1 -5.0829 0.4829
-21 13 2 0.8528 0.0028
-21 13 3 -2.2182 -0.5213
-21 13 4 6.3523 -0.2166
-21 13 5 -6.8805 0.4268
-21 13 6 -2.2559 -0.0461
-21 13 7 0.2419 -0.3796
-21 13 8 -1.3987 -0.0835
-21 13 9 11.3996 0.2173
-21 13 10 -11.9245 0.0233
-21 13 11 5.5842 -0.0808
-21 13 12 1.5478 0.2840
-21 13 13 8.8536 0.2668
-21 13 14 -8.1624 -0.0428
-21 13 15 -2.5854 -0.1672
-21 13 16 2.1925 0.0292
-21 13 17 0.3443 0.4232
-21 13 18 -1.4247 0.0405
-21 13 19 4.9888 -0.3189
-21 13 20 7.4162 0.2134
-21 13 21 5.1020 0.0186
-21 13 22 -5.1957 -0.0386
-21 13 23 -8.1262 0.0168
-21 13 24 9.7051 -0.0778
-21 13 25 -3.5773 -0.0682
-21 13 26 -2.3651 0.1847
-21 13 27 -4.6170 -0.0753
-21 13 28 3.2227 0.2184
-21 15 1 4.5400 -0.2640
-21 15 2 14.5353 -0.3583
-21 15 3 -10.2533 0.6187
-21 15 4 8.0470 0.4821
-21 15 5 4.8223 -0.6763
-21 15 6 -5.4105 -0.2004
-21 15 7 2.9971 0.5418
-21 15 8 -6.0363 0.0400
-21 15 9 4.7702 -0.4012
-21 15 10 0.4733 0.1598
-21 15 11 4.2378 0.4931
-21 15 12 9.0836 0.0951
-21 15 13 7.0018 -0.6320
-21 15 14 3.0281 -0.2638
-21 15 15 -18.6237 0.4526
-21 15 16 7.0715 0.0242
-21 15 17 3.6242 -0.3999
-21 15 18 -1.8779 -0.3448
-21 15 19 -3.1805 0.2066
-21 15 20 -14.5780 0.2293
-21 15 21 9.5107 -0.3386
-21 15 22 12.0243 -0.5405
-21 15 23 -4.8631 0.2060
-21 15 24 -1.5050 0.7170
-21 17 1 -14.7799 -0.2012
-21 17 2 9.0317 0.1762
-21 17 3 8.7399 -0.0521
-21 17 4 6.1594 0.0035
-21 17 5 3.8519 0.1840
-21 17 6 1.7139 0.1545
-21 17 7 15.0224 -0.1164
-21 17 8 -1.2235 -0.3761
-21 17 9 -0.6817 0.2430
-21 17 10 -6.7252 0.0445
-21 17 11 5.3329 -0.1252
-21 17 12 7.2212 0.1390
-21 17 13 6.4851 0.0782
-21 17 14 0.9412 0.1680
-21 17 15 -2.2660 0.0609
-21 17 16 3.5424 0.0811
-21 17 17 5.2280 0.5111
-21 17 18 -5.5657 0.3367
-21 17 19 7.9985 -0.3593
-21 19 2 -1.5894 0.3575
-21 19 3 5.3418 0.9741
-21 19 4 4.8815 0.0806
-21 19 5 5.1708 -0.4543
-21 19 6 -6.8664 0.6280
-21 19 7 6.8990 1.2118
-21 19 8 -3.3117 -1.6443
-21 19 9 -13.6891 -1.2441
-20 0 2 5.1047 0.1604
-20 0 4 -3.3323 -8.5918
-20 0 6 16.0641 13.5941
-20 0 8 -10.9050 -18.4920
-20 0 10 9.2665 17.1814
-20 0 12 -13.8128 -12.0801
-20 0 14 5.2612 5.9643
-20 0 16 3.5231 -1.2163
-20 0 18 -11.0421 -0.0662
-20 0 20 3.5721 -1.0030
-20 0 22 -16.7989 2.7576
-20 0 24 -0.3344 -4.1384
-20 0 26 -10.1149 4.4273
-20 0 28 -7.2517 -3.9081
-20 0 30 -4.2102 2.9882
-20 0 32 -5.4339 -2.0298
-20 0 34 6.0398 1.3365
-20 0 36 -11.6168 -1.2405
-20 2 1 2.7475 -0.3952
-20 2 2 4.0707 -2.1793
-20 2 3 -4.3682 -0.4489
-20 2 4 -4.5002 2.5393
-20 2 5 8.4662 0.1762
-20 2 6 2.8864 -3.6346
-20 2 7 0.2613 -1.3985
-20 2 8 -2.5267 2.9826
-20 2 9 8.3131 0.9976
-20 2 10 -0.6488 -1.6439
-20 2 11 -2.1830 -0.0318
-20 2 12 7.6362 1.1888
-20 2 13 3.4262 -0.3728
-20 2 14 -6.5983 -1.0261
-20 2 15 -6.6337 -0.0029
-20 2 16 6.2248 1.2163
-20 2 17 5.6596 0.9314
-20 2 18 -2.3107 -0.6911
-20 2 19 2.3966 -1.7646
-20 2 20 -17.0838 -0.1508
-20 2 21 1.9306 1.8407
-20 2 22 8.1028 0.3378
-20 2 23 -0.4327 -1.0708
-20 2 24 -3.4678 -0.1701
-20 2 25 -2.4782 0.1105
-20 2 26 -0.3567 -0.8384
-20 2 27 2.6340 -0.0083
-20 2 28 -4.9639 1.5433
-20 2 29 6.0305 0.1360
-20 2 30 -5.0496 -1.6021
-20 2 31 1.9766 -0.6619
-20 2 32 7.9618 1.1665
-20 2 33 8.4963 0.5077
-20 2 34 -10.1418 -0.2865
-20 2 35 -0.1552 0.0435
-20 2 36 5.7843 -0.4259
-20 4 1 -13.2851 0.5584
-20 4 2 4.0001 -0.3234
-20 4 3 3.1343 0.0614
-20 4 4 -0.0554 0.3082
-20 4 5 2.8117 -0.1365
-20 4 6 0.4252 0.2128
-20 4 7 4.1028 0.0757
-20 4 8 -3.7018 -0.5556
-20 4 9 -0.0630 0.2859
-20 4 10 1.0521 0.9103
-20 4 11 -2.0328 -0.4407
-20 4 12 -6.4598 -0.7234
-20 4 13 2.7674 0.0150
-20 4 14 -0.4058 0.0122
-20 4 15 2.0522 -0.1065
-20 4 16 2.9799 1.0576
-20 4 17 2.8294 0.3600
-20 4 18 -6.5542 -1.2527
-20 4 19 5.3371 -0.4624
-20 4 20 2.1730 0.6581
-20 4 21 6.2600 0.6526
-20 4 22 0.4444 0.0399
-20 4 23 -6.6412 -0.7708
-20 4 24 2.4758 -0.5811
-20 4 25 -1.3954 0.2099
-20 4 26 -0.4612 0.3430
-20 4 27 0.8031 0.0492
-20 4 28 0.9195 0.0780
-20 4 29 -12.5495 -0.0944
-20 4 30 3.1309 -0.2293
-20 4 31 2.0592 -0.5739
-20 4 32 5.5949 0.3611
-20 4 33 -6.5979 0.6503
-20 4 34 1.9125 0.1771
-20 4 35 6.7630 -0.2586
-20 4 36 -1.1738 0.0171
-20 6 1 2.8493 -0.4448
-20 6 2 -1.3754 -0.6815
-20 6 3 2.3473 -0.1340
-20 6 4 3.0600 0.9583
-20 6 5 1.9336 -0.6837
-20 6 6 -3.4295 -1.2459
-20 6 7 1.3887 0.5376
-20 6 8 -0.4694 1.3761
-20 6 9 3.1671 -0.8044
-20 6 10 -6.2558 -0.8743
-20 6 11 2.1998 0.7272
-20 6 12 4.6500 0.8217
-20 6 13 -4.2838 -0.5898
-20 6 14 3.7176 -0.3037
-20 6 15 5.3005 1.1481
-20 6 16 3.3464 0.0484
-20 6 17 0.6657 -1.2646
-20 6 18 -2.6461 0.1931
-20 6 19 4.0385 1.1739
-20 6 20 -0.2359 -0.2911
-20 6 21 -10.8699 -0.9135
-20 6 22 8.5132 -0.0987
-20 6 23 5.4536 0.7967
-20 6 24 -1.7649 0.3485
-20 6 25 -6.6152 -0.4403
-20 6 26 9.5958 -0.2318
-20 6 27 4.7284 0.4078
-20 6 28 3.0915 -0.1221
-20 6 29 -4.6391 -0.2331
-20 6 30 5.1046 0.1264
-20 6 31 1.3871 0.1283
-20 6 32 0.9751 -0.0172
-20 6 33 -3.3820 -0.2453
-20 6 34 -0.6347 -0.3794
-20 6 35 -5.2103 0.4807
-20 8 1 -1.1317 -0.0308
-20 8 2 2.1995 0.2211
-20 8 3 4.3882 0.2469
-20 8 4 -3.8220 -0.4167
-20 8 5 -5.2365 0.1553
-20 8 6 1.5054 0.4316
-20 8 7 6.0783 -0.2038
-20 8 8 -5.9052 -0.5355
-20 8 9 -1.5693 0.2119
-20 8 10 4.8182 0.6499
-20 8 11 -1.1556 -0.1397
-20 8 12 -0.1137 -0.4788
-20 8 13 6.8511 0.0669
-20 8 14 -0.4892 0.3173
-20 8 15 -4.6621 -0.1916
-20 8 16 0.7670 -0.2329
-20 8 17 9.3781 0.1389
-20 8 18 -5.9089 -0.0692
-20 8 19 2.1141 -0.3652
-20 8 20 6.9318 0.1540
-20 8 21 -1.2181 0.4049
-20 8 22 -1.4732 0.0462
-20 8 23 0.4372 -0.2635
-20 8 24 3.8235 -0.3390
-20 8 25 -0.8627 0.0084
-20 8 26 -4.7557 0.2126
-20 8 27 -17.0175 0.1784
-20 8 28 -5.9287 -0.5863
-20 8 29 -3.6430 0.0605
-20 8 30 5.4290 0.6754
-20 8 31 -5.4258 0.1986
-20 8 32 -3.6944 -0.4204
-20 8 33 -6.2527 0.1544
-20 8 34 -2.6429 -0.1055
-20 10 1 -5.6141 0.2438
-20 10 2 2.6516 0.3944
-20 10 3 -5.6239 0.0200
-20 10 4 4.3885 -0.3122
-20 10 5 -0.3249 0.2210
-20 10 6 -4.4222 0.2200
-20 10 7 0.2573 -0.3061
-20 10 8 -2.3056 -0.4103
-20 10 9 0.4991 0.3062
-20 10 10 -0.5581 0.3797
-20 10 11 -4.7802 -0.1303
-20 10 12 1.9220 -0.4697
-20 10 13 -7.8961 -0.0957
-20 10 14 0.5308 0.2575
-20 10 15 -0.3609 0.2499
-20 10 16 -6.3231 -0.0925
-20 10 17 -0.7130 -0.2805
-20 10 18 6.9030 0.1887
-20 10 19 -2.3810 0.1531
-20 10 20 -8.3618 -0.1327
-20 10 21 0.7126 0.0154
-20 10 22 4.3560 0.1767
-20 10 23 -11.4422 -0.1398
-20 10 24 1.0921 -0.0291
-20 10 25 6.8291 -0.1495
-20 10 26 -0.0889 0.2381
-20 10 27 1.3397 0.1720
-20 10 28 -2.6725 0.0745
-20 10 29 5.4471 -0.3908
-20 10 30 -2.3553 0.0176
-20 10 31 -5.1739 0.1243
-20 10 32 3.3982 0.2035
-20 12 1 1.2573 0.2303
-20 12 2 0.0889 -0.3132
-20 12 3 -1.2430 -0.3848
-20 12 4 -6.5776 0.1987
-20 12 5 3.2114 0.2153
-20 12 6 6.7065 0.0003
-20 12 7 -1.3880 -0.3431
-20 12 8 -4.9739 0.3266
-20 12 9 -4.5142 0.4564
-20 12 10 -1.4686 -0.1987
-20 12 11 3.5618 -0.5406
-20 12 12 0.3879 0.3910
-20 12 13 -9.0990 0.5168
-20 12 14 -9.5045 -0.3019
-20 12 15 -1.1005 -0.7460
-20 12 16 2.4284 0.4182
-20 12 17 0.7086 0.7159
-20 12 18 11.3938 -0.5364
-20 12 19 7.2653 -0.7333
-20 12 20 2.0223 0.6352
-20 12 21 0.7251 0.6134
-20 12 22 5.4030 -0.5968
-20 12 23 -3.8538 -0.4865
-20 12 24 -3.3713 0.0737
-20 12 25 -5.2967 0.2542
-20 12 26 4.3535 -0.2152
-20 12 27 -7.8346 -0.0483
-20 12 28 2.6564 0.0756
-20 12 29 -0.5677 0.0893
-20 12 30 5.0593 -0.3898
-20 14 1 6.5697 0.1472
-20 14 2 8.9916 0.0364
-20 14 3 1.7216 -0.1679
-20 14 4 12.2447 -0.2765
-20 14 5 -18.6024 -0.1732
-20 14 6 1.3118 -0.0113
-20 14 7 7.7320 0.2419
-20 14 8 -5.3830 -0.0652
-20 14 9 1.6611 -0.1883
-20 14 10 -1.3328 0.0839
-20 14 11 2.6826 0.1372
-20 14 12 -0.6715 0.1093
-20 14 13 -2.4039 -0.1751
-20 14 14 2.8286 -0.0238
-20 14 15 -0.5841 0.4045
-20 14 16 0.8223 -0.2439
-20 14 17 -13.1201 -0.4640
-20 14 18 -1.7750 0.3683
-20 14 19 14.9453 0.3175
-20 14 20 3.4430 -0.2342
-20 14 21 0.8152 -0.3014
-20 14 22 1.3746 0.1272
-20 14 23 1.3922 0.3177
-20 14 24 4.3052 0.1894
-20 14 25 -6.5411 0.2241
-20 14 26 -1.7973 -0.5001
-20 14 27 -6.3865 -0.2719
-20 16 1 -6.2848 -0.2447
-20 16 2 14.0213 -0.4150
-20 16 3 -1.7553 0.4235
-20 16 4 8.9310 0.2537
-20 16 5 5.9171 -0.3883
-20 16 6 3.9109 -0.2283
-20 16 7 1.6183 0.3515
-20 16 8 -5.2463 0.3296
-20 16 9 2.8050 -0.2985
-20 16 10 2.7044 -0.1934
-20 16 11 -0.8310 0.4606
-20 16 12 4.5798 0.0714
-20 16 13 -4.1866 -0.4112
-20 16 14 9.6242 -0.3645
-20 16 15 -4.1027 0.1832
-20 16 16 3.2993 0.0932
-20 16 17 -2.5913 -0.0637
-20 16 18 -0.5468 -0.4919
-20 16 19 -1.4978 -0.1691
-20 16 20 -3.7313 -0.0470
-20 16 21 3.5090 0.0617
-20 16 22 -1.0099 -0.0590
-20 16 23 -2.4836 0.0620
-20 18 1 -5.0495 -0.3248
-20 18 2 13.5576 0.7964
-20 18 3 -1.5378 0.2214
-20 18 4 -0.5896 -0.3711
-20 18 5 11.6219 0.1537
-20 18 6 7.6025 0.4745
-20 18 7 0.4199 -0.3051
-20 18 8 -0.8478 -0.4711
-20 18 9 8.2438 0.0578
-20 18 10 0.5276 0.2390
-20 18 11 -4.0300 -0.1032
-20 18 12 -2.3666 -0.7099
-20 18 13 11.6479 0.4325
-20 18 14 -4.3879 1.2203
-20 18 15 2.0680 0.3158
-20 18 16 -2.3562 -0.9633
-20 18 17 -2.8390 0.2743
-19 1 1 0.4850 -0.0828
-19 1 2 5.6535 3.6715
-19 1 3 3.1686 0.9574
-19 1 4 6.6687 -4.1183
-19 1 5 -0.0902 0.2371
-19 1 6 -2.6400 3.6928
-19 1 7 5.0530 -0.1988
-19 1 8 7.3244 -2.2821
-19 1 9 6.3632 -0.0928
-19 1 10 2.8922 1.0261
-19 1 11 7.5113 0.6067
-19 1 12 -5.4155 0.2144
-19 1 13 3.0087 -0.0959
-19 1 14 2.2375 0.7435
-19 1 15 6.5329 -0.4541
-19 1 16 -0.5169 -2.0827
-19 1 17 -7.8501 0.4106
-19 1 18 0.7130 2.9780
-19 1 19 7.8706 0.4336
-19 1 20 -7.4281 -2.8488
-19 1 21 -4.5490 -1.2327
-19 1 22 -0.1585 1.4292
-19 1 23 6.8264 1.0673
-19 1 24 -1.4162 -0.4749
-19 1 25 -6.3488 -0.3131
-19 1 26 -5.6309 -0.0321
-19 1 27 5.9700 -0.4183
-19 1 28 1.5530 0.0174
-19 1 29 1.2928 0.2177
-19 1 30 -4.8075 0.2090
-19 1 31 4.8258 0.0375
-19 1 32 7.2826 -0.0835
-19 1 33 4.1360 -0.2865
-19 1 34 -9.1888 -0.1605
-19 1 35 7.5798 0.4595
-19 1 36 -3.1654 -0.2853
-19 1 37 1.1080 -0.1579
-19 3 1 -5.3005 1.2440
-19 3 2 -0.1184 -2.2333
-19 3 3 6.2827 -1.9109
-19 3 4 3.3158 1.9472
-19 3 5 0.0711 0.3579
-19 3 6 -6.4073 -1.1957
-19 3 7 7.1912 -0.4324
-19 3 8 -0.8717 0.9345
-19 3 9 -3.4605 -0.2290
-19 3 10 1.7128 -0.9043
-19 3 11 6.0740 0.3718
-19 3 12 6.5957 1.3038
-19 3 13 0.8607 0.2492
-19 3 14 2.5927 -1.7315
-19 3 15 0.5827 -1.6327
-19 3 16 4.2136 1.6473
-19 3 17 10.0204 1.9045
-19 3 18 -7.5005 -1.1288
-19 3 19 5.7595 -1.3102
-19 3 20 -1.3907 0.3378
-19 3 21 6.9503 0.4725
-19 3 22 -12.1388 -0.2615
-19 3 23 -1.5002 -0.3997
-19 3 24 1.9174 0.5172
-19 3 25 5.6172 0.6549
-19 3 26 -4.8724 -0.6663
-19 3 27 2.6301 -1.3729
-19 3 28 -0.7656 0.5144
-19 3 29 7.7815 1.5326
-19 3 30 5.0634 -0.0007
-19 3 31 2.0972 -1.1315
-19 3 32 4.8648 0.1555
-19 3 33 4.6050 0.3746
-19 3 34 4.8286 -0.1353
-19 3 35 2.1229 0.3362
-19 3 36 -4.1582 0.2792
-19 5 1 -2.2538 -0.6000
-19 5 2 0.8735 0.6248
-19 5 3 -0.5255 0.5637
-19 5 4 -3.5138 0.2268
-19 5 5 2.8119 -0.2596
-19 5 6 2.1387 -0.1714
-19 5 7 0.5648 0.1582
-19 5 8 5.1963 0.5686
-19 5 9 5.4426 0.2604
-19 5 10 -11.4352 -0.0405
-19 5 11 0.3621 -0.2390
-19 5 12 2.9986 -0.2014
-19 5 13 -0.1634 -0.5222
-19 5 14 1.8383 0.2412
-19 5 15 2.1418 1.5671
-19 5 16 -0.1496 -0.2714
-19 5 17 5.0413 -1.3842
-19 5 18 2.3717 0.0037
-19 5 19 -0.3336 1.0076
-19 5 20 1.4715 0.0780
-19 5 21 4.3115 -0.6880
-19 5 22 10.2667 -0.2650
-19 5 23 -0.5914 0.6652
-19 5 24 4.1421 0.1189
-19 5 25 -1.1325 -0.7549
-19 5 26 10.6808 0.2189
-19 5 27 -6.1121 0.5959
-19 5 28 7.0889 -0.1606
-19 5 29 -6.6357 -0.3891
-19 5 30 4.7816 0.1660
-19 5 31 -2.8836 0.0252
-19 5 32 -4.9944 0.1159
-19 5 33 -3.1954 -0.2536
-19 5 34 6.6067 0.1761
-19 5 35 0.1021 0.4338
-19 5 36 -5.9862 0.1638
-19 7 1 -7.1634 -0.0918
-19 7 2 0.8581 -0.6211
-19 7 3 25.2208 -0.0045
-19 7 4 1.5689 0.2968
-19 7 5 -4.2341 -0.2526
-19 7 6 -3.1564 -0.3556
-19 7 7 4.0004 0.3115
-19 7 8 -4.3340 0.2765
-19 7 9 -0.3673 -0.5157
-19 7 10 -0.6556 -0.2349
-19 7 11 -7.7270 0.6908
-19 7 12 6.6972 0.4108
-19 7 13 -1.3594 -0.2962
-19 7 14 0.2757 -0.5683
-19 7 15 -2.2627 0.0618
-19 7 16 -0.0539 0.7047
-19 7 17 4.9452 0.1132
-19 7 18 0.6305 -0.8273
-19 7 19 2.1405 -0.0177
-19 7 20 -6.2019 0.5473
-19 7 21 5.8861 -0.1031
-19 7 22 2.8019 -0.1585
-19 7 23 -4.0392 0.3916
-19 7 24 1.1722 -0.1842
-19 7 25 0.4395 -0.2035
-19 7 26 -13.5575 0.3932
-19 7 27 -8.0177 0.2136
-19 7 28 11.6560 -0.3599
-19 7 29 0.8802 -0.0728
-19 7 30 -6.4659 0.2038
-19 7 31 1.5757 0.1287
-19 7 32 12.2736 0.0431
-19 7 33 -3.4837 -0.1418
-19 7 34 0.6386 -0.4395
-19 7 35 1.5191 0.1163
-19 9 1 6.5649 -0.2994
-19 9 2 -0.3948 0.7046
-19 9 3 -7.9514 -0.1450
-19 9 4 3.5202 -0.8987
-19 9 5 2.2774 0.3402
-19 9 6 4.2857 0.9516
-19 9 7 -5.9782 -0.4171
-19 9 8 -5.5116 -0.9762
-19 9 9 5.6837 0.3601
-19 9 10 5.9464 0.9862
-19 9 11 0.0408 -0.3223
-19 9 12 -1.1746 -0.7349
-19 9 13 -3.6128 0.2096
-19 9 14 1.5655 0.6657
-19 9 15 8.7625 -0.2186
-19 9 16 -5.2661 -0.7068
-19 9 17 -3.8144 0.0407
-19 9 18 4.4242 0.7010
-19 9 19 3.2774 -0.0702
-19 9 20 -5.6494 -0.6030
-19 9 21 -7.3777 0.1683
-19 9 22 8.0593 0.4044
-19 9 23 -0.4542 -0.0470
-19 9 24 3.0226 -0.1492
-19 9 25 -12.1603 -0.0632
-19 9 26 -2.7526 0.0224
-19 9 27 -4.3271 0.2618
-19 9 28 -5.0198 -0.1716
-19 9 29 -10.0381 -0.0861
-19 9 30 -7.1932 0.1413
-19 9 31 4.1655 0.3827
-19 9 32 5.0016 0.0128
-19 9 33 -11.7200 -0.2642
-19 11 1 -1.1780 0.2388
-19 11 2 6.8144 -0.1330
-19 11 3 -4.2150 -0.1142
-19 11 4 -4.2183 0.5293
-19 11 5 8.6527 0.4776
-19 11 6 -4.6723 -0.2837
-19 11 7 -1.8045 -0.1776
-19 11 8 2.5913 0.3045
-19 11 9 0.8880 -0.0874
-19 11 10 -4.1810 -0.1650
-19 11 11 -7.5659 0.2081
-19 11 12 1.6452 0.1834
-19 11 13 -9.4267 -0.0948
-19 11 14 0.0668 -0.4098
-19 11 15 -4.3961 -0.3143
-19 11 16 -1.7095 0.4610
-19 11 17 5.2922 0.4124
-19 11 18 5.9752 -0.3596
-19 11 19 -0.2799 -0.3689
-19 11 20 2.5219 0.3359
-19 11 21 3.8755 0.3375
-19 11 22 -0.4895 -0.2256
-19 11 23 -7.2417 -0.2326
-19 11 24 -7.8605 0.2093
-19 11 25 5.8988 0.0656
-19 11 26 -6.2980 -0.1297
-19 11 27 -5.4487 -0.0991
-19 11 28 -6.0174 0.4919
-19 11 29 13.7109 0.2431
-19 11 30 -1.4878 -0.4096
-19 11 31 -10.4574 -0.3831
-19 13 1 2.1011 0.0467
-19 13 2 -4.3861 -0.2443
-19 13 3 5.9206 -0.1859
-19 13 4 10.5205 0.2107
-19 13 5 -3.9538 -0.1312
-19 13 6 3.2835 -0.0542
-19 13 7 -0.4772 -0.3177
-19 13 8 -1.0941 -0.0869
-19 13 9 -5.5061 0.5165
-19 13 10 6.5446 0.1904
-19 13 11 2.9787 -0.6267
-19 13 12 -8.0504 -0.1492
-19 13 13 -7.5013 0.6266
-19 13 14 4.8073 0.1039
-19 13 15 -8.7741 -0.3580
-19 13 16 -2.0917 -0.0328
-19 13 17 1.8062 0.2521
-19 13 18 9.2729 -0.0115
-19 13 19 8.0092 -0.2012
-19 13 20 7.6087 0.2234
-19 13 21 3.7208 0.3412
-19 13 22 4.3660 -0.0995
-19 13 23 9.4092 -0.4604
-19 13 24 7.5394 -0.0915
-19 13 25 -9.2334 0.3983
-19 13 26 1.5039 0.0592
-19 13 27 -4.9401 -0.2081
-19 13 28 1.0848 -0.0119
-19 13 29 -5.0819 0.0799
-19 15 1 5.4812 -0.3262
-19 15 2 -1.4361 -0.1306
-19 15 3 -12.6539 0.2455
-19 15 4 13.2954 0.0893
-19 15 5 1.9242 -0.2916
-19 15 6 0.3130 -0.2047
-19 15 7 -6.2192 0.3457
-19 15 8 -5.7518 0.4167
-19 15 9 -1.7588 -0.3145
-19 15 10 1.5144 -0.1259
-19 15 11 -3.0659 0.5986
-19 15 12 1.5684 0.2772
-19 15 13 -10.8633 -0.8063
-19 15 14 6.5286 -0.3370
-19 15 15 -5.5345 0.6404
-19 15 16 -4.1094 0.0432
-19 15 17 -7.3536 -0.7653
-19 15 18 -0.3079 -0.1642
-19 15 19 0.8248 0.3588
-19 15 20 -1.6948 0.1568
-19 15 21 4.6989 -0.4165
-19 15 22 -9.0592 -0.2637
-19 15 23 -5.1850 0.7174
-19 15 24 6.1606 -0.2633
-19 15 25 -8.8516 -0.2191
-19 15 26 -9.8425 0.0917
-19 17 1 -9.9138 -0.0639
-19 17 2 -1.4884 -0.0995
-19 17 3 2.0827 0.2533
-19 17 4 15.7678 -0.0499
-19 17 5 2.2932 0.0587
-19 17 6 -1.1938 0.0158
-19 17 7 6.5559 -0.3295
-19 17 8 7.1580 -0.1094
-19 17 9 -5.4251 0.0118
-19 17 10 -3.7189 0.0249
-19 17 11 4.0113 -0.0757
-19 17 12 1.4318 -0.2888
-19 17 13 -4.9944 0.3276
-19 17 14 -5.8764 -0.0686
-19 17 15 1.9749 -0.2010
-19 17 16 9.1420 -0.2814
-19 17 17 -2.3341 0.1341
-19 17 18 -4.7016 0.3355
-19 17 19 2.7968 -0.0362
-19 17 20 8.0850 -0.5562
-19 17 21 -5.1073 -0.1851
-19 19 1 -2.9658 -0.8502
-19 19 2 7.3237 0.4822
-19 19 3 7.2123 0.8209
-19 19 4 3.6291 -0.1898
-19 19 5 4.9091 -0.1192
-19 19 6 1.3677 0.9598
-19 19 7 2.0669 0.4057
-19 19 8 1.4276 -0.2875
-19 19 9 -8.1305 -0.9423
-19 19 10 4.2225 0.0083
-19 19 11 1.0992 0.8599
-19 19 12 4.4875 -0.1481
-19 19 13 11.9767 -0.1160
-19 19 14 -5.8404 0.2426
-18 0 2 -1.4325 1.7024
-18 0 4 6.8590 2.6778
-18 0 6 8.5105 1.1685
-18 0 8 7.9112 -4.2988
-18 0 10 -0.5227 10.1642
-18 0 12 13.1827 -14.9876
-18 0 14 -22.3457 17.3417
-18 0 16 12.5821 -14.7457
-18 0 18 -13.7115 9.1530
-18 0 20 15.7595 -4.6648
-18 0 22 -9.4969 2.3218
-18 0 24 4.7248 -2.0109
-18 0 26 -3.3791 2.4435
-18 0 28 -1.3073 -2.4519
-18 0 30 14.2464 2.3503
-18 0 32 3.9106 -2.0966
-18 0 34 -0.4912 1.7098
-18 0 36 0.1203 -1.1983
-18 2 1 6.1500 1.8710
-18 2 2 7.9496 5.2355
-18 2 3 2.5466 -0.7906
-18 2 4 0.8646 -3.0872
-18 2 5 -1.4471 -0.0323
-18 2 6 -7.7158 -0.3017
-18 2 7 7.9208 0.1354
-18 2 8 1.9871 3.3593
-18 2 9 3.4579 0.6323
-18 2 10 -2.4810 -3.9204
-18 2 11 3.4940 -1.3115
-18 2 12 4.4806 3.4985
-18 2 13 20.1536 1.7595
-18 2 14 13.1450 -2.5763
-18 2 15 -3.5460 -1.1100
-18 2 16 -5.6643 1.1970
-18 2 17 7.1680 -0.4559
-18 2 18 12.7895 -0.9472
-18 2 19 -1.8222 0.8795
-18 2 20 -8.2987 0.7285
-18 2 21 -1.9487 -0.2211
-18 2 22 -2.2373 -0.7182
-18 2 23 3.0959 -0.8808
-18 2 24 3.2595 0.3026
-18 2 25 -1.0987 1.2716
-18 2 26 3.5547 0.1515
-18 2 27 -1.2771 -0.7909
-18 2 28 0.0362 -0.1722
-18 2 29 17.9599 0.3395
-18 2 30 11.2951 -0.1554
-18 2 31 4.0202 -0.0685
-18 2 32 -2.1735 0.6062
-18 2 33 5.6963 0.4782
-18 2 34 -5.1105 -0.7624
-18 2 35 4.1690 -0.4227
-18 2 36 -7.5621 0.1128
-18 2 37 0.4558 0.2206
-18 4 1 -14.7575 1.6185
-18 4 2 5.7905 -1.4296
-18 4 3 -4.3426 -2.2574
-18 4 4 -6.8386 1.6256
-18 4 5 3.6681 1.5120
-18 4 6 6.2325 -0.3195
-18 4 7 1.5681 -0.5125
-18 4 8 -10.7677 -0.2942
-18 4 9 -3.8135 0.3533
-18 4 10 10.5442 0.4021
-18 4 11 -2.4356 -0.2084
-18 4 12 -3.9819 -0.5430
-18 4 13 3.7668 -0.2162
-18 4 14 4.3405 0.1731
-18 4 15 3.7977 0.0858
-18 4 16 1.1275 -0.3133
-18 4 17 2.2523 0.4123
-18 4 18 0.9605 0.1579
-18 4 19 17.9889 -0.4470
-18 4 20 -8.4384 0.2166
-18 4 21 3.2954 0.0258
-18 4 22 9.0628 -0.4644
-18 4 23 5.4325 0.1872
-18 4 24 -6.0199 0.8127
-18 4 25 4.4045 -0.2253
-18 4 26 5.5890 -0.2735
-18 4 27 2.9098 -0.0522
-18 4 28 -3.1733 -0.0469
-18 4 29 -4.1703 0.4178
-18 4 30 9.1038 0.5192
-18 4 31 -4.0180 -0.2875
-18 4 32 1.4238 -0.2488
-18 4 33 4.0889 0.1492
-18 4 34 -0.5936 0.1909
-18 4 35 -0.2444 0.1741
-18 4 36 7.8802 0.1312
-18 6 1 14.8402 -1.2496
-18 6 2 6.2659 0.8845
-18 6 3 -0.4161 1.2197
-18 6 4 2.9289 -0.6285
-18 6 5 10.0718 -0.8736
-18 6 6 -4.8175 0.0369
-18 6 7 3.7525 0.6592
-18 6 8 0.4859 0.6363
-18 6 9 -1.7665 -0.7467
-18 6 10 -1.7939 -1.0309
-18 6 11 -3.0324 0.8241
-18 6 12 -1.5055 1.0369
-18 6 13 2.9611 -0.6195
-18 6 14 3.7629 -1.1609
-18 6 15 -10.8452 0.8202
-18 6 16 2.6834 1.1419
-18 6 17 -2.3906 -0.7199
-18 6 18 -0.4244 -0.9591
-18 6 19 5.0769 0.7410
-18 6 20 3.4165 0.2695
-18 6 21 -1.4628 -0.7820
-18 6 22 -1.3058 0.0882
-18 6 23 3.1250 0.8936
-18 6 24 16.6101 -0.0509
-18 6 25 0.3363 -0.8052
-18 6 26 -2.9903 -0.0900
-18 6 27 -1.5545 0.7381
-18 6 28 10.8647 0.4766
-18 6 29 3.4744 -0.6362
-18 6 30 4.9014 -0.2522
-18 6 31 2.8531 0.0650
-18 6 32 -4.8048 0.0058
-18 6 33 3.0686 -0.0984
-18 6 34 4.6545 0.1920
-18 6 35 -1.6361 0.1524
-18 6 36 3.0015 -0.1031
-18 8 1 13.7057 -0.0709
-18 8 2 -1.4348 -0.3832
-18 8 3 7.1172 0.0475
-18 8 4 -0.2206 -0.1198
-18 8 5 4.1098 -0.1607
-18 8 6 6.5128 0.5887
-18 8 7 2.2654 0.3453
-18 8 8 -4.7968 -0.6830
-18 8 9 -3.9680 0.2162
-18 8 10 -2.5070 0.8046
-18 8 11 -6.6095 -0.4606
-18 8 12 12.1703 -0.7234
-18 8 13 0.4043 0.6681
-18 8 14 -7.7941 0.6116
-18 8 15 -5.9056 -0.6052
-18 8 16 0.0428 -0.6653
-18 8 17 6.8240 0.2654
-18 8 18 -6.8540 0.5748
-18 8 19 -4.3595 -0.1395
-18 8 20 3.1186 -0.4541
-18 8 21 9.6001 0.3957
-18 8 22 -2.0630 0.2921
-18 8 23 -7.1642 -0.1627
-18 8 24 -4.6268 0.0445
-18 8 25 -0.8036 0.0913
-18 8 26 -5.0760 -0.2785
-18 8 27 -14.0595 0.1516
-18 8 28 -6.5671 0.0958
-18 8 29 -10.7465 0.0934
-18 8 30 -2.5278 0.1630
-18 8 31 2.5356 -0.0838
-18 8 32 5.3564 -0.3850
-18 8 33 -3.1198 0.1781
-18 8 34 4.4680 0.1627
-18 10 1 2.3073 -0.1336
-18 10 2 -3.5522 0.9395
-18 10 3 -3.3482 -0.1193
-18 10 4 14.0712 -0.5718
-18 10 5 -0.2325 -0.1105
-18 10 6 -6.2692 0.2777
-18 10 7 3.2739 0.0498
-18 10 8 -1.1914 -0.3439
-18 10 9 -4.3162 -0.1838
-18 10 10 5.5568 0.2063
-18 10 11 5.1645 0.0558
-18 10 12 -7.5313 -0.1351
-18 10 13 -1.8903 0.0061
-18 10 14 5.8998 0.2793
-18 10 15 -3.4867 -0.0669
-18 10 16 -4.9252 -0.2430
-18 10 17 11.3460 0.0870
-18 10 18 2.0443 0.3007
-18 10 19 -1.6595 0.1697
-18 10 20 3.6880 -0.2642
-18 10 21 -2.5041 -0.1593
-18 10 22 -5.9557 0.2960
-18 10 23 -2.3554 0.0612
-18 10 24 3.9331 -0.1002
-18 10 25 -9.0532 0.1116
-18 10 26 -7.4827 0.1100
-18 10 27 6.8525 -0.0815
-18 10 28 -6.4917 0.0424
-18 10 29 0.5837 0.2151
-18 10 30 -7.9067 -0.0067
-18 10 31 4.4143 -0.2194
-18 10 32 5.7302 0.0141
-18 10 33 0.9532 -0.0117
-18 12 1 3.0227 0.4073
-18 12 2 5.6929 -0.4374
-18 12 3 8.4966 -0.4193
-18 12 4 -5.2900 0.6718
-18 12 5 6.0966 0.5370
-18 12 6 -1.1165 -0.1729
-18 12 7 0.5609 -0.4438
-18 12 8 7.5276 0.4755
-18 12 9 4.0197 0.3314
-18 12 10 0.8913 -0.4197
-18 12 11 -15.4304 -0.3591
-18 12 12 0.5053 0.4356
-18 12 13 1.4753 0.3661
-18 12 14 -2.1356 -0.5150
-18 12 15 -13.8940 -0.3615
-18 12 16 2.3630 0.2582
-18 12 17 -1.3887 0.3226
-18 12 18 2.5343 -0.0280
-18 12 19 6.9505 -0.5457
-18 12 20 5.0336 0.0339
-18 12 21 4.5698 0.7351
-18 12 22 4.7551 -0.3786
-18 12 23 8.2701 -0.5723
-18 12 24 -2.0524 0.5142
-18 12 25 -0.6716 0.3773
-18 12 26 -2.4766 -0.3560
-18 12 27 10.9244 -0.3940
-18 12 28 -6.3193 0.0628
-18 12 29 -13.1355 0.4776
-18 12 30 -0.4848 -0.0574
-18 12 31 5.8850 -0.4237
-18 14 1 -6.0324 -0.1752
-18 14 2 4.3482 0.0054
-18 14 3 3.3126 0.0799
-18 14 4 -1.4283 -0.0946
-18 14 5 -7.2961 -0.1822
-18 14 6 8.6716 -0.0512
-18 14 7 -4.7101 0.2644
-18 14 8 -5.4234 0.0050
-18 14 9 -0.7441 -0.0728
-18 14 10 1.8624 -0.0235
-18 14 11 -3.3174 0.3292
-18 14 12 -2.6094 -0.1126
-18 14 13 -13.3709 -0.1588
-18 14 14 -1.0810 0.1112
-18 14 15 -4.9566 0.2641
-18 14 16 -1.5518 -0.0891
-18 14 17 -5.1658 -0.0081
-18 14 18 -3.5206 0.1612
-18 14 19 1.1051 -0.0009
-18 14 20 5.7081 -0.0354
-18 14 21 6.6833 -0.2317
-18 14 22 -4.3798 0.2101
-18 14 23 -1.5231 0.5519
-18 14 24 0.3916 -0.3496
-18 14 25 -4.7129 -0.7830
-18 14 26 0.1463 0.2651
-18 14 27 -6.0860 0.4750
-18 14 28 -1.1424 0.1828
-18 16 1 -8.0268 -0.4144
-18 16 2 -2.3373 -0.3717
-18 16 3 5.5974 0.0660
-18 16 4 -3.0164 0.2828
-18 16 5 -5.2454 -0.2259
-18 16 6 4.0038 -0.3177
-18 16 7 6.2501 0.3073
-18 16 8 2.0678 0.4983
-18 16 9 -6.3190 -0.3587
-18 16 10 -5.5872 -0.1638
-18 16 11 -4.1449 0.1412
-18 16 12 4.5982 -0.0231
-18 16 13 -2.1148 -0.3092
-18 16 14 -3.9936 -0.4825
-18 16 15 -5.0470 0.1405
-18 16 16 3.8269 0.5428
-18 16 17 3.3819 -0.5203
-18 16 18 -2.5169 -0.4830
-18 16 19 2.1956 0.3841
-18 16 20 0.2397 0.3760
-18 16 21 -4.1568 -0.3691
-18 16 22 3.5642 -0.1469
-18 16 23 1.4766 0.4876
-18 16 24 -6.2220 0.1363
-18 18 1 -1.4227 0.2196
-18 18 2 3.3130 0.1165
-18 18 3 -2.4587 -0.2151
-18 18 4 7.2243 0.0270
-18 18 5 15.3068 0.6343
-18 18 6 -3.0541 0.2933
-18 18 7 -10.1643 -0.5970
-18 18 8 2.8063 -0.2940
-18 18 9 8.2765 -0.0852
-18 18 10 0.9805 0.6203
-18 18 11 -10.6315 -0.0657
-18 18 12 -1.4176 -0.6837
-18 18 13 7.0261 0.5032
-18 18 14 -1.3512 0.8498
-18 18 15 5.6253 -0.0672
-18 18 16 -8.0851 -0.5628
-18 18 17 -2.3867 -0.3271
-18 18 18 9.5612 0.4921
-18 18 19 -2.6691 0.1508
-18 20 1 -4.0566 -1.8194
-18 20 2 4.0835 -0.4341
-18 20 3 6.0485 1.5000
-18 20 4 -9.0587 -0.2994
-18 20 5 4.5451 -0.8820
-18 20 6 10.7668 1.1327
-18 20 7 1.9778 1.2954
-18 20 8 -6.7442 -0.2585
-18 20 9 -13.3095 -1.1842
-17 1 1 4.8829 -2.7931
-17 1 2 4.0785 4.6463
-17 1 3 9.8781 3.0302
-17 1 4 1.3021 1.9580
-17 1 5 -2.1328 -1.6753
-17 1 6 4.3058 -0.3890
-17 1 7 -4.6459 1.6486
-17 1 8 -5.7421 -1.6462
-17 1 9 11.1516 -0.7597
-17 1 10 13.1497 3.1410
-17 1 11 1.5660 0.2159
-17 1 12 -4.2354 -2.4984
-17 1 13 18.4666 -0.5498
-17 1 14 5.8549 0.3607
-17 1 15 8.6974 0.6888
-17 1 16 -6.0236 0.2925
-17 1 17 1.1933 -0.4795
-17 1 18 11.0480 0.2105
-17 1 19 0.8929 -0.1610
-17 1 20 0.9884 -2.0905
-17 1 21 -5.5107 0.3364
-17 1 22 5.4409 3.0818
-17 1 23 -0.7670 0.0860
-17 1 24 2.2711 -2.3482
-17 1 25 0.6092 -0.6048
-17 1 26 0.4530 1.1303
-17 1 27 -0.6980 0.7486
-17 1 28 8.4521 -0.2555
-17 1 29 -4.9105 -0.2704
-17 1 30 13.9424 0.2164
-17 1 31 17.9783 -0.0483
-17 1 32 -2.8478 -0.3677
-17 1 33 -7.4285 0.3578
-17 1 34 5.6529 0.4267
-17 1 35 2.4236 0.0233
-17 1 36 -14.3195 -0.2792
-17 1 37 4.0642 -0.2558
-17 3 1 1.6671 2.5305
-17 3 2 -4.7869 -0.2706
-17 3 3 -9.7076 -3.4639
-17 3 4 7.5635 -0.6045
-17 3 5 1.3456 3.3062
-17 3 6 -12.8217 -0.0936
-17 3 7 1.0303 -3.7343
-17 3 8 0.5284 0.7737
-17 3 9 -10.2215 3.4137
-17 3 10 -8.6177 -1.5235
-17 3 11 1.6600 -2.0140
-17 3 12 11.1496 1.4025
-17 3 13 -1.1652 0.9293
-17 3 14 -0.1099 -1.1568
-17 3 15 6.9669 -0.5107
-17 3 16 14.3182 0.6518
-17 3 17 -2.0455 0.6152
-17 3 18 -3.9580 -0.9213
-17 3 19 1.6888 -0.7801
-17 3 20 2.0406 1.4714
-17 3 21 5.1504 0.9474
-17 3 22 -6.7485 -1.1325
-17 3 23 -4.1898 -0.8038
-17 3 24 10.7941 0.8853
-17 3 25 -2.5905 0.6874
-17 3 26 -7.8403 -0.3741
-17 3 27 5.0817 -0.1432
-17 3 28 8.8254 0.2324
-17 3 29 2.5218 0.3268
-17 3 30 -1.5162 -0.1649
-17 3 31 6.0111 -0.2741
-17 3 32 9.6785 -0.0318
-17 3 33 -0.0913 0.6785
-17 3 34 -9.7417 -0.0656
-17 3 35 0.0913 -0.5898
-17 3 36 0.9267 -0.2774
-17 3 37 -10.0507 0.0562
-17 5 1 -2.2366 -0.2188
-17 5 2 7.8546 -0.2104
-17 5 3 -5.8804 0.9703
-17 5 4 2.4059 -0.0510
-17 5 5 7.0675 -0.6775
-17 5 6 -11.1491 0.1684
-17 5 7 -1.8150 1.4989
-17 5 8 6.4377 -0.0101
-17 5 9 2.2548 -1.4557
-17 5 10 -1.4904 -0.3836
-17 5 11 -1.7537 1.0492
-17 5 12 -1.9204 0.1044
-17 5 13 -1.7112 -0.6571
-17 5 14 -1.2076 -0.4350
-17 5 15 1.2337 0.2190
-17 5 16 1.4989 0.4397
-17 5 17 2.3372 -0.1043
-17 5 18 -4.2572 -0.1012
-17 5 19 -2.0975 0.2450
-17 5 20 3.0288 -0.2219
-17 5 21 11.6968 -0.7981
-17 5 22 4.8987 0.2500
-17 5 23 7.6619 0.7848
-17 5 24 1.0166 0.2027
-17 5 25 1.9576 -0.6151
-17 5 26 18.8740 -0.4277
-17 5 27 7.1676 0.4725
-17 5 28 -8.1941 0.4553
-17 5 29 0.7746 -0.4166
-17 5 30 10.4044 -0.1082
-17 5 31 -2.4837 0.4676
-17 5 32 -12.2068 -0.2294
-17 5 33 6.0492 -0.4237
-17 5 34 4.4053 0.2678
-17 5 35 -5.2761 0.6185
-17 5 36 -1.3954 -0.0196
-17 7 1 -4.3774 -0.9971
-17 7 2 -0.5709 0.1158
-17 7 3 23.2620 0.7278
-17 7 4 4.9549 0.2300
-17 7 5 1.7230 -0.1855
-17 7 6 1.0150 -0.1452
-17 7 7 0.5874 0.1341
-17 7 8 -7.5344 0.0103
-17 7 9 -3.1673 0.1540
-17 7 10 4.7638 -0.1192
-17 7 11 -1.7616 -0.0727
-17 7 12 -7.0775 0.1250
-17 7 13 -18.5682 -0.1057
-17 7 14 3.8195 -0.1549
-17 7 15 0.9197 0.3852
-17 7 16 -1.9188 0.2583
-17 7 17 -11.3737 -0.3408
-17 7 18 -10.8451 -0.1945
-17 7 19 1.5997 0.1540
-17 7 20 7.6379 0.3699
-17 7 21 0.0851 0.0053
-17 7 22 -11.4243 -0.5069
-17 7 23 13.2069 0.3556
-17 7 24 5.8343 0.8709
-17 7 25 -6.4152 -0.4375
-17 7 26 -14.7107 -0.6106
-17 7 27 1.4256 0.0049
-17 7 28 -1.4570 0.2773
-17 7 29 0.3495 0.1662
-17 7 30 -4.3950 0.2509
-17 7 31 5.2415 -0.3674
-17 7 32 -0.5943 -0.1185
-17 7 33 1.3402 -0.3044
-17 7 34 2.6996 -0.1795
-17 7 35 -2.3298 0.4293
-17 9 1 5.8453 -0.2679
-17 9 2 3.3531 0.5295
-17 9 3 8.1156 0.0184
-17 9 4 -0.1634 -0.6992
-17 9 5 2.6540 -0.6646
-17 9 6 1.8511 0.7366
-17 9 7 1.9839 0.3176
-17 9 8 1.6784 -0.7468
-17 9 9 1.2638 -0.2366
-17 9 10 0.0865 0.8105
-17 9 11 -2.9846 0.1081
-17 9 12 3.4993 -0.8909
-17 9 13 8.4885 0.0363
-17 9 14 -2.4318 1.1003
-17 9 15 -3.9556 -0.1880
-17 9 16 2.8690 -1.0602
-17 9 17 9.3279 0.2881
-17 9 18 -0.3488 0.9930
-17 9 19 -1.0045 -0.2334
-17 9 20 -1.0967 -0.9568
-17 9 21 -0.2618 0.4180
-17 9 22 9.0209 0.8004
-17 9 23 2.7383 -0.4003
-17 9 24 -11.9231 -0.6932
-17 9 25 -8.9000 0.3450
-17 9 26 9.0176 0.3578
-17 9 27 -1.8432 0.0007
-17 9 28 -2.7282 -0.4506
-17 9 29 -8.5284 0.0681
-17 9 30 1.8097 0.1411
-17 9 31 8.2710 0.0574
-17 9 32 4.1782 -0.0996
-17 9 33 -6.6138 -0.0776
-17 9 34 9.8192 -0.5387
-17 11 1 -9.8547 0.0324
-17 11 2 -5.7069 0.2836
-17 11 3 2.8028 0.0904
-17 11 4 7.4465 0.0248
-17 11 5 7.6519 0.2340
-17 11 6 -3.6991 -0.1142
-17 11 7 0.7272 -0.0607
-17 11 8 1.0656 0.1591
-17 11 9 -3.4075 0.2390
-17 11 10 3.6114 -0.3076
-17 11 11 1.4710 -0.2341
-17 11 12 -0.7919 0.4532
-17 11 13 -12.0103 0.2464
-17 11 14 -5.3121 -0.4622
-17 11 15 1.7244 -0.0068
-17 11 16 -4.5356 0.2948
-17 11 17 -3.3680 -0.0958
-17 11 18 1.8173 -0.2226
-17 11 19 3.2701 0.0334
-17 11 20 -8.2293 0.2738
-17 11 21 1.9433 0.1063
-17 11 22 4.3640 -0.3148
-17 11 23 1.8815 -0.2321
-17 11 24 -4.0445 0.2409
-17 11 25 7.2835 0.1626
-17 11 26 -10.3910 0.0798
-17 11 27 -5.2909 -0.3322
-17 11 28 -7.9782 -0.1764
-17 11 29 16.7469 0.2615
-17 11 30 -9.5506 -0.0116
-17 11 31 -6.4669 -0.4521
-17 11 32 -1.8434 0.2585
-17 13 1 9.1614 0.5390
-17 13 2 -0.3450 -0.2900
-17 13 3 4.0994 -0.5550
-17 13 4 -4.1335 0.3664
-17 13 5 5.2083 0.5252
-17 13 6 4.7883 -0.2708
-17 13 7 -1.8273 -0.5008
-17 13 8 3.4382 0.2999
-17 13 9 1.0325 0.1960
-17 13 10 -1.2129 -0.4795
-17 13 11 -3.6640 -0.1675
-17 13 12 6.3315 0.1551
-17 13 13 -7.8860 0.3123
-17 13 14 -13.7747 -0.0644
-17 13 15 -5.4284 -0.3720
-17 13 16 4.8261 0.0235
-17 13 17 -9.5945 0.3334
-17 13 18 -5.8050 0.1250
-17 13 19 6.2472 -0.1535
-17 13 20 5.9126 -0.2226
-17 13 21 -2.9978 0.0975
-17 13 22 -2.8123 0.0307
-17 13 23 2.7396 -0.1321
-17 13 24 1.5147 -0.1598
-17 13 25 9.5672 0.0868
-17 13 26 6.2806 0.0504
-17 13 27 -6.1270 -0.0684
-17 13 28 0.1472 0.2971
-17 13 29 3.1441 0.0811
-17 13 30 1.0133 -0.5410
-17 15 1 -10.0757 -0.8881
-17 15 2 -3.2383 0.0502
-17 15 3 -2.8052 0.6713
-17 15 4 -4.0327 -0.0236
-17 15 5 1.7113 -0.5274
-17 15 6 -3.9237 0.0588
-17 15 7 0.2175 0.6725
-17 15 8 3.3355 0.1452
-17 15 9 3.4899 -0.3331
-17 15 10 -4.6309 -0.0614
-17 15 11 -2.6497 0.5071
-17 15 12 3.3848 0.1990
-17 15 13 0.1530 -0.5590
-17 15 14 -5.2114 -0.3409
-17 15 15 -4.3049 0.6614
-17 15 16 2.8493 0.4094
-17 15 17 4.2515 -0.6561
-17 15 18 -6.4646 -0.0568
-17 15 19 0.5916 0.6466
-17 15 20 2.5562 0.1209
-17 15 21 3.1462 -0.6556
-17 15 22 2.8433 -0.1867
-17 15 23 -5.1411 0.6789
-17 15 24 -12.9202 0.5490
-17 15 25 0.4275 -0.4937
-17 15 26 0.0524 -0.3863
-17 15 27 -3.8584 -0.0884
-17 17 1 4.2530 0.3015
-17 17 2 -10.7447 -0.5037
-17 17 3 10.5771 -0.3040
-17 17 4 1.1782 0.4864
-17 17 5 1.6282 0.0367
-17 17 6 -0.2352 -0.3153
-17 17 7 7.8201 -0.0562
-17 17 8 -5.4428 0.0136
-17 17 9 -7.5637 -0.0125
-17 17 10 4.0216 0.0261
-17 17 11 6.6711 -0.0894
-17 17 12 -9.5076 -0.2031
-17 17 13 -9.3545 0.0029
-17 17 14 0.4556 -0.1459
-17 17 15 7.1498 -0.3527
-17 17 16 -9.5622 0.1038
-17 17 17 2.4850 0.3620
-17 17 18 9.7424 0.0533
-17 17 19 1.1008 -0.7002
-17 17 20 -5.0526 0.1315
-17 17 21 -5.5717 0.4299
-17 17 22 2.8635 0.1194
-17 17 23 -0.0773 -0.6049
-17 19 1 -2.3181 -0.2764
-17 19 2 -3.0081 0.6021
-17 19 3 6.1379 -0.0256
-17 19 4 1.0051 -0.7386
-17 19 5 8.8149 0.4255
-17 19 6 -4.2435 0.9814
-17 19 7 0.5106 -0.2503
-17 19 8 1.2935 -0.3926
-17 19 9 -4.5463 -0.1184
-17 19 10 0.5734 0.3208
-17 19 11 -9.0535 0.0246
-17 19 12 7.5156 -0.0344
-17 19 13 3.3061 -0.2157
-17 19 14 -7.6872 0.2163
-17 19 15 3.2628 0.5137
-17 19 16 6.5484 0.6798
-16 0 2 19.3180 2.1122
-16 0 4 -31.5678 0.6595
-16 0 6 37.7837 0.8869
-16 0 8 -11.5169 -1.1638
-16 0 10 4.0076 -0.3368
-16 0 12 16.5123 -1.6288
-16 0 14 -9.8305 5.2045
-16 0 16 9.0504 -10.0061
-16 0 18 -2.8267 12.2406
-16 0 20 8.6991 -11.2172
-16 0 22 12.1109 8.2400
-16 0 24 -10.9672 -5.0898
-16 0 26 -2.9384 3.7304
-16 0 28 12.1060 -2.8469
-16 0 30 6.1494 2.1961
-16 0 32 13.8708 -1.4923
-16 0 34 -7.3782 1.1453
-16 0 36 14.4328 -0.9160
-16 2 1 -0.4232 0.1966
-16 2 2 -2.3267 -2.2858
-16 2 3 13.4521 -0.1413
-16 2 4 4.1451 -0.7753
-16 2 5 -3.3260 1.0014
-16 2 6 -0.5416 0.7731
-16 2 7 -2.2800 -2.3102
-16 2 8 -14.1974 -1.2137
-16 2 9 -6.4041 2.6175
-16 2 10 5.0051 0.4651
-16 2 11 4.9013 -1.7868
-16 2 12 -9.3154 0.3529
-16 2 13 5.7560 1.1594
-16 2 14 12.4454 -1.5390
-16 2 15 11.8293 -0.9221
-16 2 16 -7.6796 2.5228
-16 2 17 -1.5586 1.1601
-16 2 18 12.3102 -3.0281
-16 2 19 -9.9529 -0.9837
-16 2 20 3.1025 3.0206
-16 2 21 -1.1888 0.5196
-16 2 22 -1.7248 -1.7738
-16 2 23 -7.6663 0.1321
-16 2 24 2.6761 0.7986
-16 2 25 -11.8140 0.0850
-16 2 26 12.9988 -0.1141
-16 2 27 1.5725 -0.1471
-16 2 28 -6.6808 -0.2594
-16 2 29 -2.6399 0.4079
-16 2 30 9.9677 0.0122
-16 2 31 7.6143 -0.3166
-16 2 32 -5.9334 0.2596
-16 2 33 4.0203 0.2695
-16 2 34 -6.7568 -0.4440
-16 2 35 -12.1985 -0.2626
-16 2 36 -10.2042 0.1650
-16 2 37 -1.6499 -0.1174
-16 4 1 9.7798 1.3156
-16 4 2 -12.1186 0.3312
-16 4 3 -32.6367 -0.9145
-16 4 4 8.2835 0.0995
-16 4 5 8.7123 1.1854
-16 4 6 -12.2021 -1.0039
-16 4 7 -5.2412 -0.5503
-16 4 8 6.8417 1.3906
-16 4 9 -8.3115 0.7547
-16 4 10 -7.9853 -0.8451
-16 4 11 -4.5322 -1.0543
-16 4 12 11.1175 0.0478
-16 4 13 -9.2536 0.9615
-16 4 14 -5.9808 0.2094
-16 4 15 5.5390 -0.7679
-16 4 16 3.8750 -0.0899
-16 4 17 -4.7460 0.5708
-16 4 18 1.9426 0.2310
-16 4 19 0.8776 -0.4650
-16 4 20 -12.0126 -0.0560
-16 4 21 6.6505 0.6493
-16 4 22 4.6586 0.1570
-16 4 23 1.3873 -0.7078
-16 4 24 2.0293 -0.0335
-16 4 25 6.6346 0.3888
-16 4 26 1.8325 -0.1136
-16 4 27 -0.5123 0.1708
-16 4 28 1.6758 0.1454
-16 4 29 4.5087 -0.3498
-16 4 30 -4.3957 -0.3172
-16 4 31 -3.1885 0.4201
-16 4 32 8.1646 0.2783
-16 4 33 -4.7013 -0.1988
-16 4 34 -6.7373 -0.3356
-16 4 35 -3.2714 0.0660
-16 4 36 7.6157 -0.2625
-16 4 37 -3.8638 -0.1497
-16 6 1 2.0697 -1.5330
-16 6 2 8.9786 -0.9216
-16 6 3 1.9373 1.8486
-16 6 4 -1.6770 -0.0841
-16 6 5 14.2249 -1.5870
-16 6 6 -4.0990 0.5861
-16 6 7 -2.6402 0.9762
-16 6 8 -0.1621 -0.9535
-16 6 9 -3.0149 -0.6947
-16 6 10 -4.7024 0.1250
-16 6 11 0.6344 0.5596
-16 6 12 0.4343 0.2341
-16 6 13 -6.0373 -0.9717
-16 6 14 -12.5038 -0.1701
-16 6 15 -4.7781 1.2784
-16 6 16 1.8130 0.4503
-16 6 17 -11.1942 -1.4799
-16 6 18 -6.7980 -0.3702
-16 6 19 2.1925 0.9318
-16 6 20 -3.0170 0.7393
-16 6 21 4.2611 -0.5129
-16 6 22 4.6062 -1.0224
-16 6 23 2.8594 0.2030
-16 6 24 -3.1897 0.9119
-16 6 25 7.1297 -0.1244
-16 6 26 8.6185 -0.4508
-16 6 27 6.9124 0.3011
-16 6 28 -10.3985 -0.0062
-16 6 29 -2.0633 -0.5896
-16 6 30 -2.5762 -0.1287
-16 6 31 11.4643 0.6014
-16 6 32 -13.3938 0.1849
-16 6 33 5.2863 -0.2572
-16 6 34 -4.7682 -0.4746
-16 6 35 -2.9097 0.1747
-16 6 36 -1.9203 0.5189
-16 8 1 -3.1280 0.3660
-16 8 2 11.8880 0.5181
-16 8 3 8.6055 -0.4719
-16 8 4 -3.1750 -0.0894
-16 8 5 8.7163 0.6217
-16 8 6 -1.9302 0.0549
-16 8 7 -4.2381 0.1333
-16 8 8 4.6557 0.1920
-16 8 9 5.7284 -0.2529
-16 8 10 -2.8225 0.1650
-16 8 11 -8.0096 0.3119
-16 8 12 0.2584 -0.6511
-16 8 13 2.0471 0.0096
-16 8 14 2.0935 0.8126
-16 8 15 -0.4322 -0.3614
-16 8 16 -7.7837 -0.6773
-16 8 17 -9.7282 0.6670
-16 8 18 5.2668 0.4974
-16 8 19 11.3802 -0.6026
-16 8 20 -7.2411 -0.5081
-16 8 21 -4.2656 0.4209
-16 8 22 1.3417 0.7344
-16 8 23 11.8531 -0.3689
-16 8 24 -6.8386 -0.5139
-16 8 25 10.1870 0.1336
-16 8 26 -6.4493 0.1674
-16 8 27 -0.0088 -0.3539
-16 8 28 -4.2964 -0.0197
-16 8 29 -3.0177 0.0610
-16 8 30 3.9078 0.1167
-16 8 31 1.5464 -0.4034
-16 8 32 -1.5758 0.1194
-16 8 33 3.6672 -0.0544
-16 8 34 5.9760 -0.1135
-16 8 35 -8.3255 -0.0182
-16 10 1 4.5577 -0.6754
-16 10 2 2.1042 0.2672
-16 10 3 -0.1675 0.0954
-16 10 4 -3.9366 -0.5804
-16 10 5 2.0548 -0.4438
-16 10 6 9.2570 0.5838
-16 10 7 7.0908 0.0862
-16 10 8 -13.7672 -0.6812
-16 10 9 -4.0816 -0.2882
-16 10 10 12.1401 0.5045
-16 10 11 -5.7520 0.3555
-16 10 12 -6.4723 -0.3448
-16 10 13 1.9154 -0.3920
-16 10 14 -1.1683 0.4916
-16 10 15 0.6859 0.5033
-16 10 16 0.8456 -0.3269
-16 10 17 -3.4192 -0.2822
-16 10 18 -4.0072 0.2889
-16 10 19 3.1427 0.1969
-16 10 20 10.7096 -0.3894
-16 10 21 0.1638 0.0496
-16 10 22 -9.3485 0.3518
-16 10 23 -6.8983 -0.2401
-16 10 24 5.9756 -0.6055
-16 10 25 0.8590 0.1571
-16 10 26 -2.4294 0.4365
-16 10 27 -9.5092 0.0055
-16 10 28 5.3542 -0.6375
-16 10 29 3.0922 -0.0520
-16 10 30 -2.8794 0.2466
-16 10 31 4.8927 0.2374
-16 10 32 6.5482 -0.0088
-16 10 33 -0.1555 -0.0407
-16 12 1 3.8372 0.6802
-16 12 2 -3.4584 -0.1751
-16 12 3 0.4170 -0.4330
-16 12 4 2.4942 0.4719
-16 12 5 9.3554 0.6836
-16 12 6 -6.0986 -0.7554
-16 12 7 1.8422 -0.3818
-16 12 8 12.7512 0.5792
-16 12 9 -2.0901 0.4741
-16 12 10 3.2775 -0.5316
-16 12 11 -4.5265 -0.4764
-16 12 12 -0.5918 0.3348
-16 12 13 -4.8946 0.5189
-16 12 14 -2.6406 -0.4474
-16 12 15 -2.2602 -0.5869
-16 12 16 -8.9924 0.3840
-16 12 17 -9.7891 0.1966
-16 12 18 -5.2054 -0.4075
-16 12 19 0.1981 -0.2205
-16 12 20 -5.2732 0.2528
-16 12 21 -2.2279 0.0901
-16 12 22 -6.3230 -0.3447
-16 12 23 0.3867 -0.2207
-16 12 24 6.9630 0.2688
-16 12 25 12.4647 0.1832
-16 12 26 -7.2112 -0.1545
-16 12 27 4.8366 -0.1547
-16 12 28 -1.8862 0.2610
-16 12 29 3.8841 0.1527
-16 12 30 -2.1750 -0.5338
-16 12 31 -2.7527 -0.5815
-16 14 1 -11.1483 -0.0283
-16 14 2 -1.2806 0.0656
-16 14 3 2.2543 0.1291
-16 14 4 -4.8992 -0.0001
-16 14 5 1.5991 -0.0474
-16 14 6 -3.2112 0.0345
-16 14 7 3.4257 0.2306
-16 14 8 9.0091 -0.1293
-16 14 9 0.0644 -0.0963
-16 14 10 -8.3643 -0.0805
-16 14 11 9.6418 0.0174
-16 14 12 5.5119 0.0552
-16 14 13 -2.0334 -0.0623
-16 14 14 -2.7443 0.0147
-16 14 15 -2.3979 0.3601
-16 14 16 -8.3952 0.1240
-16 14 17 5.9593 -0.3418
-16 14 18 7.5513 -0.0277
-16 14 19 -7.8725 0.3240
-16 14 20 -6.7251 -0.0897
-16 14 21 5.9462 -0.1604
-16 14 22 10.3426 -0.0646
-16 14 23 -11.5722 0.1946
-16 14 24 -8.5664 -0.2148
-16 14 25 0.4163 -0.4212
-16 14 26 -2.4255 0.2362
-16 14 27 -3.6815 0.0442
-16 14 28 5.9747 -0.1311
-16 14 29 -1.6844 0.1143
-16 16 1 4.7184 -0.3179
-16 16 2 -5.6733 -0.1551
-16 16 3 3.9420 0.2385
-16 16 4 -9.5408 0.1533
-16 16 5 8.6180 -0.6084
-16 16 6 2.1568 -0.0361
-16 16 7 6.4320 0.5711
-16 16 8 -5.4926 0.3203
-16 16 9 7.0770 -0.4283
-16 16 10 5.0521 -0.4217
-16 16 11 -3.7757 0.2961
-16 16 12 -11.6278 0.4296
-16 16 13 4.2095 -0.5026
-16 16 14 5.5418 -0.5027
-16 16 15 2.3230 0.2561
-16 16 16 -10.3285 0.5255
-16 16 17 4.3314 -0.2368
-16 16 18 5.6513 -0.1754
-16 16 19 2.0297 0.2796
-16 16 20 -0.7580 0.2875
-16 16 21 -3.8581 -0.1978
-16 16 22 -5.8635 -0.2332
-16 16 23 -0.9811 -0.0614
-16 16 24 4.0467 0.5745
-16 16 25 2.4528 0.2413
-16 18 1 13.2456 0.2935
-16 18 2 -6.0255 0.0715
-16 18 3 3.7462 -0.5647
-16 18 4 0.1278 -0.1440
-16 18 5 11.3379 0.7207
-16 18 6 -3.7814 0.2068
-16 18 7 0.4526 -0.5266
-16 18 8 -2.1893 -0.4280
-16 18 9 3.5999 0.2286
-16 18 10 -1.9476 -0.0481
-16 18 11 -4.1439 -0.0893
-16 18 12 2.5818 0.0928
-16 18 13 -1.2428 0.3828
-16 18 14 -2.5519 0.3987
-16 18 15 -2.1482 -0.7138
-16 18 16 -0.5020 -0.9352
-16 18 17 8.9477 0.2520
-16 18 18 1.4151 0.9071
-16 18 19 -3.1687 -0.0751
-16 18 20 1.8892 -1.0598
-16 20 1 -4.4386 -0.5361
-16 20 2 4.5801 0.4927
-16 20 3 8.1937 0.5767
-16 20 4 -4.3870 -0.5059
-16 20 5 -1.1485 -0.7114
-16 20 6 -5.8362 0.7164
-16 20 7 9.5401 1.5378
-16 20 8 5.9397 -0.6975
-16 20 9 -9.1230 -1.0810
-16 20 10 4.1630 0.2700
-16 20 11 -3.6891 0.6038
-16 20 12 0.8515 -0.3986
-16 20 13 -2.8837 0.2772
-15 1 1 -6.0021 0.1156
-15 1 2 -0.3952 7.1691
-15 1 3 20.1685 0.2790
-15 1 4 19.7257 -2.2189
-15 1 5 -4.4259 1.0575
-15 1 6 -12.9414 -1.1276
-15 1 7 1.7385 -0.6445
-15 1 8 14.4939 -0.8677
-15 1 9 -7.2175 -1.3436
-15 1 10 -4.3198 1.8335
-15 1 11 2.5582 2.3315
-15 1 12 0.3299 -2.9916
-15 1 13 4.2919 -1.5162
-15 1 14 -4.9969 2.3291
-15 1 15 13.8417 0.5987
-15 1 16 9.2845 -0.5808
-15 1 17 -3.9283 0.1926
-15 1 18 -5.0209 -0.5042
-15 1 19 3.2887 0.2459
-15 1 20 8.7904 0.7844
-15 1 21 -5.4115 -0.5063
-15 1 22 -3.2835 0.3549
-15 1 23 -0.7623 0.5698
-15 1 24 0.7220 -1.1645
-15 1 25 -1.6697 -0.1850
-15 1 26 -8.1849 1.5214
-15 1 27 -12.1652 0.1514
-15 1 28 3.7234 -1.3151
-15 1 29 5.9914 -0.2915
-15 1 30 -3.0958 0.8922
-15 1 31 -5.7337 0.2753
-15 1 32 10.6475 -0.3619
-15 1 33 4.8750 -0.1270
-15 1 34 -17.9518 0.2611
-15 1 35 -7.6418 0.0749
-15 1 36 12.0488 -0.0391
-15 1 37 1.3840 -0.1560
-15 1 38 2.4623 0.5135
-15 3 1 -12.1358 0.4643
-15 3 2 -12.4757 -1.5820
-15 3 3 2.2868 -0.3112
-15 3 4 -2.6454 0.9117
-15 3 5 -6.7445 1.0742
-15 3 6 9.8867 -1.9443
-15 3 7 -4.4112 -1.7995
-15 3 8 -9.4345 1.6203
-15 3 9 -1.5993 2.5190
-15 3 10 5.4962 -0.4604
-15 3 11 -18.8858 -2.6161
-15 3 12 -5.9105 0.6361
-15 3 13 6.0981 3.1043
-15 3 14 2.9826 -1.1053
-15 3 15 -2.4980 -2.9333
-15 3 16 3.5708 1.7740
-15 3 17 -10.3117 2.6217
-15 3 18 -7.9415 -1.2064
-15 3 19 -7.6348 -1.6954
-15 3 20 0.6436 0.7694
-15 3 21 -5.8430 1.3747
-15 3 22 1.1472 -0.5019
-15 3 23 -8.4584 -0.8300
-15 3 24 -2.5009 0.4677
-15 3 25 -4.3761 0.6360
-15 3 26 11.1358 -1.0855
-15 3 27 -1.4000 -0.4476
-15 3 28 1.0150 1.0018
-15 3 29 1.1143 0.4156
-15 3 30 -10.8529 -0.8355
-15 3 31 5.2841 -0.4975
-15 3 32 8.1379 0.2148
-15 3 33 -8.8324 0.2890
-15 3 34 -6.2133 0.0954
-15 3 35 -2.6127 -0.2489
-15 3 36 -0.9165 -0.2945
-15 3 37 -13.2585 -0.4416
-15 5 1 -7.1239 0.2971
-15 5 2 0.1146 0.0783
-15 5 3 13.9721 0.5787
-15 5 4 2.4266 -0.2297
-15 5 5 -19.1449 -0.9461
-15 5 6 -11.8059 -0.2416
-15 5 7 17.1023 0.7308
-15 5 8 7.2924 0.3201
-15 5 9 -7.8618 -0.9053
-15 5 10 4.3823 0.1884
-15 5 11 -6.0694 1.0480
-15 5 12 -8.6662 -0.7020
-15 5 13 1.3234 -1.7435
-15 5 14 3.3007 1.0387
-15 5 15 -10.9201 1.5167
-15 5 16 -9.4513 -0.2449
-15 5 17 8.5802 -0.8740
-15 5 18 2.5153 -0.3473
-15 5 19 -13.2608 0.0697
-15 5 20 -12.9515 0.5606
-15 5 21 15.0689 -0.0131
-15 5 22 0.9990 -0.2603
-15 5 23 0.3017 0.2708
-15 5 24 2.7810 -0.3217
-15 5 25 10.6305 -0.5740
-15 5 26 -5.3048 0.2944
-15 5 27 -4.0826 0.5519
-15 5 28 3.7192 -0.1107
-15 5 29 9.5310 -0.3310
-15 5 30 -4.2232 -0.2064
-15 5 31 -8.9842 -0.0140
-15 5 32 -8.8210 0.2760
-15 5 33 1.0183 0.0256
-15 5 34 -2.9430 -0.5261
-15 5 35 -2.6496 0.5188
-15 5 36 -1.6762 0.4512
-15 5 37 -1.5411 -0.8752
-15 7 1 0.2049 -0.6658
-15 7 2 11.2091 -0.2773
-15 7 3 -4.7698 0.6992
-15 7 4 -9.8552 0.5607
-15 7 5 13.1136 -0.6728
-15 7 6 3.9784 -0.2500
-15 7 7 -5.4028 0.7157
-15 7 8 -3.6188 0.1752
-15 7 9 -4.6334 -0.5485
-15 7 10 2.7581 -0.0141
-15 7 11 4.3505 0.1550
-15 7 12 -7.8408 -0.0415
-15 7 13 -8.4222 0.1084
-15 7 14 -5.6065 0.2939
-15 7 15 -0.7719 -0.1348
-15 7 16 -9.5672 0.0052
-15 7 17 -4.6810 -0.1813
-15 7 18 -0.4036 -0.0541
-15 7 19 -7.5006 0.3761
-15 7 20 -10.1219 -0.0053
-15 7 21 11.8981 -0.4626
-15 7 22 1.7729 -0.0034
-15 7 23 4.1054 0.2108
-15 7 24 0.5414 0.2715
-15 7 25 9.6314 -0.1174
-15 7 26 -4.9002 -0.5426
-15 7 27 3.3819 -0.1651
-15 7 28 -3.9098 0.2660
-15 7 29 7.3309 0.1060
-15 7 30 -11.3206 -0.1520
-15 7 31 -4.5722 -0.1038
-15 7 32 -2.2859 -0.0105
-15 7 33 9.5535 0.0322
-15 7 34 -11.4844 -0.0730
-15 7 35 -9.4536 0.0162
-15 7 36 4.6476 0.3153
-15 9 1 -5.3330 0.5542
-15 9 2 -1.1565 0.4638
-15 9 3 8.6389 -0.2159
-15 9 4 -1.5998 -0.5598
-15 9 5 4.9320 0.2286
-15 9 6 -1.8808 0.4340
-15 9 7 -0.0680 -0.0520
-15 9 8 -4.8173 -0.6141
-15 9 9 3.6748 0.0077
-15 9 10 1.0766 0.6367
-15 9 11 -0.8629 0.0004
-15 9 12 -0.2748 -0.6796
-15 9 13 -1.8048 -0.1567
-15 9 14 -1.7546 0.4735
-15 9 15 5.0944 0.4103
-15 9 16 -0.2273 -0.5885
-15 9 17 -1.1746 -0.1632
-15 9 18 8.0952 0.7795
-15 9 19 1.8532 -0.2054
-15 9 20 3.1836 -0.9775
-15 9 21 -4.9377 0.3982
-15 9 22 -4.1949 0.9086
-15 9 23 12.9763 -0.5984
-15 9 24 2.3230 -0.9045
-15 9 25 -5.2305 0.2590
-15 9 26 -12.9262 0.6394
-15 9 27 11.2209 -0.1891
-15 9 28 21.6298 -0.5792
-15 9 29 -10.7754 0.0231
-15 9 30 1.9153 0.6511
-15 9 31 9.8329 -0.1829
-15 9 32 5.6247 -0.1660
-15 9 33 -0.7535 0.1250
-15 9 34 7.4775 -0.2625
-15 11 1 -6.7557 -0.0881
-15 11 2 -6.9279 -0.2928
-15 11 3 -5.8508 -0.1989
-15 11 4 0.3922 0.0739
-15 11 5 6.5797 0.1562
-15 11 6 1.4884 -0.1691
-15 11 7 6.1235 0.1027
-15 11 8 3.5490 0.2195
-15 11 9 -10.9866 -0.0446
-15 11 10 5.4190 -0.1803
-15 11 11 -1.0949 0.2246
-15 11 12 5.5312 0.3203
-15 11 13 -7.9390 -0.0350
-15 11 14 -6.0427 -0.2954
-15 11 15 -10.6056 -0.0503
-15 11 16 -4.6033 0.2533
-15 11 17 5.4824 -0.0451
-15 11 18 -1.2649 -0.4059
-15 11 19 -17.1021 0.0943
-15 11 20 -7.1394 0.2041
-15 11 21 -1.2337 -0.2308
-15 11 22 5.6822 -0.3134
-15 11 23 -5.6324 0.3093
-15 11 24 -2.6393 0.3839
-15 11 25 -2.5980 -0.4583
-15 11 26 9.9417 -0.3747
-15 11 27 -3.2426 0.3559
-15 11 28 -9.4664 0.0868
-15 11 29 0.0506 -0.0264
-15 11 30 4.7008 -0.1307
-15 11 31 1.1173 -0.5262
-15 11 32 -6.8699 0.2378
-15 11 33 -2.0598 0.5577
-15 13 1 -4.4926 0.6200
-15 13 2 -0.4821 0.0068
-15 13 3 4.0913 -0.3540
-15 13 4 -3.3755 0.2199
-15 13 5 3.7748 0.4433
-15 13 6 -2.0049 -0.4319
-15 13 7 -1.1736 -0.5689
-15 13 8 4.9684 0.1523
-15 13 9 -1.1197 0.4458
-15 13 10 7.8564 -0.2968
-15 13 11 0.7087 -0.6353
-15 13 12 -2.4396 0.2293
-15 13 13 3.8501 0.2979
-15 13 14 3.2635 -0.1116
-15 13 15 -1.8659 -0.4748
-15 13 16 -7.5925 0.1234
-15 13 17 3.6871 0.1828
-15 13 18 -8.4061 -0.0619
-15 13 19 -5.9663 -0.2732
-15 13 20 6.8474 0.0760
-15 13 21 0.0177 0.3553
-15 13 22 -11.3250 -0.1415
-15 13 23 -1.9423 -0.3673
-15 13 24 -4.0470 -0.1022
-15 13 25 -0.0690 0.1362
-15 13 26 3.8674 0.1830
-15 13 27 11.5352 0.0607
-15 13 28 -2.5211 -0.1800
-15 13 29 -4.3157 0.3564
-15 13 30 -2.4418 0.2133
-15 15 1 -1.0805 -0.3623
-15 15 2 -3.5642 -0.1607
-15 15 3 -8.2558 0.5651
-15 15 4 4.6008 0.0003
-15 15 5 15.7786 -0.4631
-15 15 6 -6.0515 0.1211
-15 15 7 3.8960 0.5018
-15 15 8 0.3034 -0.1703
-15 15 9 6.0889 -0.3924
-15 15 10 3.6606 0.0772
-15 15 11 7.9756 0.4066
-15 15 12 -1.4512 -0.0462
-15 15 13 0.4318 -0.4797
-15 15 14 -2.9190 -0.0492
-15 15 15 7.7793 0.5018
-15 15 16 4.8922 0.2642
-15 15 17 0.0076 -0.2326
-15 15 18 -1.4388 -0.3886
-15 15 19 0.1167 0.2381
-15 15 20 3.2216 0.1280
-15 15 21 -9.0011 -0.4728
-15 15 22 5.4183 -0.4010
-15 15 23 -0.5230 0.7102
-15 15 24 -1.6492 0.5519
-15 15 25 -9.0552 -0.4228
-15 15 26 -4.2723 -0.2928
-15 15 27 1.3857 0.1212
-15 17 1 5.7526 0.0474
-15 17 2 -1.7861 -0.0979
-15 17 3 11.0476 -0.0281
-15 17 4 -15.0926 0.1742
-15 17 5 7.2828 -0.0803
-15 17 6 14.1781 -0.3076
-15 17 7 6.8240 -0.1336
-15 17 8 -8.9272 0.4387
-15 17 9 0.2195 0.3107
-15 17 10 1.9475 -0.5150
-15 17 11 5.9082 -0.1004
-15 17 12 -5.0626 0.1802
-15 17 13 -5.1040 -0.1630
-15 17 14 -5.3731 0.0883
-15 17 15 -2.8815 -0.0108
-15 17 16 0.8304 0.0852
-15 17 17 0.8697 0.1263
-15 17 18 -5.6231 -0.2182
-15 17 19 3.4718 -0.0114
-15 17 20 2.7888 0.0232
-15 17 21 -8.4709 0.1900
-15 17 22 -5.4308 0.2387
-15 17 23 -2.6495 -0.4932
-15 19 1 -2.4978 -0.0458
-15 19 2 2.3397 0.5848
-15 19 3 -1.1285 0.2303
-15 19 4 -2.0480 -0.2930
-15 19 5 9.0014 -0.2730
-15 19 6 -3.9688 0.3946
-15 19 7 -0.6094 -0.0605
-15 19 8 1.4185 -0.8010
-15 19 9 -2.0471 0.3757
-15 19 10 -0.2614 0.5481
-15 19 11 0.2281 -0.3296
-15 19 12 8.4323 -0.7273
-15 19 13 -15.3027 -0.1813
-15 19 14 -1.2685 0.6976
-15 19 15 6.0620 0.6552
-15 19 16 3.9245 -0.5523
-15 19 17 -4.7807 -1.1620
-15 19 18 3.0640 -0.3919
-15 21 3 2.9170 1.2024
-15 21 4 2.5712 1.1079
-15 21 5 1.6715 -0.2997
-14 0 2 23.6805 22.6364
-14 0 6 -21.1631 19.7538
-14 0 8 47.6366 -13.8818
-14 0 10 -38.2479 5.8904
-14 0 12 18.9544 -0.4830
-14 0 14 -8.0949 -0.8019
-14 0 16 -1.5331 0.0696
-14 0 18 15.6146 3.3801
-14 0 20 1.2120 -5.9546
-14 0 22 -10.1305 7.3391
-14 0 24 4.2179 -6.5571
-14 0 26 -16.4471 5.1202
-14 0 28 -3.3520 -3.7157
-14 0 30 1.3512 2.8026
-14 0 32 -2.2763 -2.0276
-14 0 34 18.2825 1.5275
-14 0 36 -7.7155 -1.0991
-14 0 38 21.6879 0.7292
-14 2 1 -12.6343 0.9496
-14 2 2 -9.9378 -1.8067
-14 2 3 4.8025 0.1603
-14 2 4 6.1404 1.8425
-14 2 5 23.7593 0.3338
-14 2 6 15.9049 -2.8792
-14 2 7 -31.0308 -0.2301
-14 2 8 -0.4713 2.5356
-14 2 9 20.3802 0.0932
-14 2 10 2.0662 -1.3584
-14 2 11 -24.3775 -0.7779
-14 2 12 -2.7715 1.1492
-14 2 13 17.2188 2.0507
-14 2 14 -4.8477 -0.1925
-14 2 15 -12.5722 -2.0140
-14 2 16 -0.0023 -0.4699
-14 2 17 12.5226 1.7686
-14 2 18 -8.0069 0.9754
-14 2 19 -17.9113 -1.4404
-14 2 20 -4.9395 0.0934
-14 2 21 -2.1514 1.0163
-14 2 22 0.3492 -1.7959
-14 2 23 -1.2438 -0.5202
-14 2 24 -6.7105 2.6104
-14 2 25 -3.1485 0.1249
-14 2 26 9.5747 -2.6117
-14 2 27 -4.5114 -0.3559
-14 2 28 -7.0944 1.4632
-14 2 29 2.3592 0.2135
-14 2 30 -1.0750 -0.2140
-14 2 31 7.2229 -0.4658
-14 2 32 -14.8241 -0.2304
-14 2 33 -3.0864 0.2209
-14 2 34 3.2773 0.1972
-14 2 35 -1.5406 -0.1534
-14 2 36 -7.7607 0.1509
-14 2 37 -2.7778 -0.2722
-14 2 38 4.4327 0.0495
-14 4 1 1.1019 0.8963
-14 4 2 -6.5245 0.4622
-14 4 3 -7.1619 -0.6598
-14 4 4 -11.4354 -0.6728
-14 4 5 -17.4607 0.7057
-14 4 6 14.5497 1.3613
-14 4 7 11.2485 -0.9628
-14 4 8 1.1969 -0.6037
-14 4 9 -10.6996 0.8358
-14 4 10 18.0869 -0.0074
-14 4 11 -6.7072 -0.1351
-14 4 12 -7.1015 1.1766
-14 4 13 0.4961 -0.0487
-14 4 14 7.7239 -1.3472
-14 4 15 -7.9949 -0.6486
-14 4 16 -4.1395 0.9160
-14 4 17 -3.8778 1.5397
-14 4 18 -1.6704 -0.2208
-14 4 19 -1.1596 -1.1653
-14 4 20 -1.0237 -0.5393
-14 4 21 -12.8536 0.7499
-14 4 22 -12.2236 0.3510
-14 4 23 7.9118 -0.2920
-14 4 24 13.4959 -0.3195
-14 4 25 -6.1330 0.3542
-14 4 26 -4.1217 -0.1618
-14 4 27 6.6994 -0.7501
-14 4 28 -3.7415 0.0872
-14 4 29 -2.2506 0.8385
-14 4 30 5.2895 0.0619
-14 4 31 -0.6803 -0.6655
-14 4 32 -3.8527 0.0009
-14 4 33 -12.6738 -0.1229
-14 4 34 6.4273 -0.2469
-14 4 35 -0.9022 0.5239
-14 4 36 -2.6025 0.3614
-14 4 37 -6.1281 -0.9046
-14 6 1 13.7087 -0.3610
-14 6 2 1.7820 -1.9811
-14 6 3 -1.1939 0.6176
-14 6 4 -9.0845 1.5995
-14 6 5 6.5869 -1.7596
-14 6 6 -0.4244 -1.5446
-14 6 7 6.4305 1.6017
-14 6 8 -5.2623 0.6967
-14 6 9 -7.5860 -1.7588
-14 6 10 6.3841 0.1387
-14 6 11 0.2686 1.2889
-14 6 12 -7.6868 -0.3273
-14 6 13 -3.0520 -1.0651
-14 6 14 -6.7655 0.4303
-14 6 15 -4.2046 1.1264
-14 6 16 -8.8990 -0.0765
-14 6 17 -8.7046 -1.3431
-14 6 18 0.9834 -0.0466
-14 6 19 5.6438 1.1536
-14 6 20 -9.9301 -0.0899
-14 6 21 -1.8072 -1.1092
-14 6 22 0.3601 -0.2225
-14 6 23 13.2408 0.9994
-14 6 24 0.2189 0.3035
-14 6 25 0.4249 -0.8168
-14 6 26 2.4689 -0.4185
-14 6 27 1.0537 0.5424
-14 6 28 2.5047 0.2866
-14 6 29 -2.5284 -0.1045
-14 6 30 -10.1402 -0.3234
-14 6 31 3.5226 -0.0318
-14 6 32 -0.6753 0.1726
-14 6 33 -7.3312 0.1196
-14 6 34 -18.7037 -0.1581
-14 6 35 5.4434 0.4536
-14 6 36 -0.3258 0.2356
-14 8 1 -9.4830 -0.0456
-14 8 2 -9.1913 0.4406
-14 8 3 -3.9301 0.3859
-14 8 4 3.3775 -0.2301
-14 8 5 1.7681 0.3811
-14 8 6 -7.8882 0.7333
-14 8 7 -1.9382 -0.2701
-14 8 8 8.3416 -0.3628
-14 8 9 -1.4690 0.4253
-14 8 10 -7.0630 0.0946
-14 8 11 5.7912 -0.4904
-14 8 12 2.1667 0.0708
-14 8 13 -1.7834 0.2498
-14 8 14 -7.9221 -0.0452
-14 8 15 7.7968 -0.1953
-14 8 16 -1.2134 -0.4533
-14 8 17 -0.9694 0.2450
-14 8 18 -5.1486 0.3701
-14 8 19 1.7593 -0.4644
-14 8 20 4.6356 -0.4292
-14 8 21 1.8773 0.2983
-14 8 22 -4.7474 0.6177
-14 8 23 4.0522 -0.3438
-14 8 24 -2.1772 -0.6800
-14 8 25 13.6112 -0.0038
-14 8 26 1.1516 0.6400
-14 8 27 1.3119 -0.0096
-14 8 28 -2.7158 -0.5447
-14 8 29 4.8564 0.0035
-14 8 30 14.9403 0.5081
-14 8 31 -8.8802 -0.3381
-14 8 32 -7.8323 -0.0267
-14 8 33 9.7100 0.4034
-14 8 34 6.3563 -0.3117
-14 8 35 -10.9960 -0.3943
-14 10 1 -10.4819 0.2053
-14 10 2 -4.9090 0.2915
-14 10 3 6.2200 0.0225
-14 10 4 -8.8582 -0.5188
-14 10 5 -1.1167 0.1739
-14 10 6 4.8212 0.1722
-14 10 7 6.3984 -0.0559
-14 10 8 -2.1137 -0.2294
-14 10 9 1.3427 -0.1064
-14 10 10 -4.2326 0.2971
-14 10 11 -10.6387 0.1836
-14 10 12 8.1012 -0.3264
-14 10 13 -5.2897 -0.0708
-14 10 14 -7.0071 0.3329
-14 10 15 -0.5643 0.1144
-14 10 16 -1.1567 -0.1727
-14 10 17 -8.7749 -0.2663
-14 10 18 6.0682 0.1649
-14 10 19 -2.0747 0.5342
-14 10 20 2.0748 -0.2774
-14 10 21 -5.8005 -0.6175
-14 10 22 6.0244 0.1363
-14 10 23 -6.6508 0.4179
-14 10 24 -7.1540 -0.0925
-14 10 25 -1.3215 -0.0961
-14 10 26 9.2859 -0.0428
-14 10 27 -7.7742 -0.0274
-14 10 28 0.1356 -0.0140
-14 10 29 -5.7448 0.1566
-14 10 30 11.4950 0.2323
-14 10 31 10.2708 0.1373
-14 10 32 -1.2411 -0.0086
-14 10 33 -0.1809 0.1768
-14 10 34 -0.0001 0.0719
-14 12 1 5.2895 0.3484
-14 12 2 5.8375 -0.5559
-14 12 3 -9.9083 -0.3821
-14 12 4 -4.9136 0.2371
-14 12 5 2.9459 0.3775
-14 12 6 0.6613 -0.2945
-14 12 7 1.9564 -0.4425
-14 12 8 -3.0320 0.2859
-14 12 9 -5.4964 0.6069
-14 12 10 19.6822 -0.3783
-14 12 11 -5.9960 -0.5275
-14 12 12 1.3407 0.5457
-14 12 13 0.8051 0.5109
-14 12 14 3.1756 -0.6529
-14 12 15 -4.2870 -0.6883
-14 12 16 0.0838 0.3981
-14 12 17 -1.5083 0.4906
-14 12 18 -7.1894 -0.5240
-14 12 19 -1.1383 -0.3661
-14 12 20 6.1587 0.4887
-14 12 21 -14.1470 0.3722
-14 12 22 -7.6909 -0.3584
-14 12 23 4.2860 -0.2712
-14 12 24 10.6072 0.4355
-14 12 25 -5.1113 0.1558
-14 12 26 -2.7037 -0.1114
-14 12 27 13.1804 0.1499
-14 12 28 4.2436 0.1902
-14 12 29 -0.5146 -0.0920
-14 12 30 -4.0727 -0.0781
-14 12 31 -1.2569 -0.2347
-14 12 32 -3.5275 0.1859
-14 14 1 -6.2387 0.2111
-14 14 2 -2.2415 0.1820
-14 14 3 6.8862 -0.1116
-14 14 4 -0.6450 -0.0225
-14 14 5 -7.2881 0.0322
-14 14 6 4.1664 -0.0450
-14 14 7 13.8833 -0.1555
-14 14 8 2.5493 -0.0215
-14 14 9 -10.3808 -0.0970
-14 14 10 0.8361 0.0621
-14 14 11 5.7975 -0.1281
-14 14 12 6.1611 -0.0709
-14 14 13 10.2419 -0.2368
-14 14 14 -2.2646 0.3173
-14 14 15 -0.0065 0.1429
-14 14 16 4.5594 -0.3088
-14 14 17 6.3104 -0.1968
-14 14 18 -6.6213 0.0406
-14 14 19 -1.5817 0.0306
-14 14 20 -2.9677 0.0421
-14 14 21 2.1750 0.0434
-14 14 22 2.6495 -0.1418
-14 14 23 -6.1111 -0.0359
-14 14 24 -11.4196 0.2157
-14 14 25 5.5071 -0.0205
-14 14 26 -5.1353 -0.2753
-14 14 27 -3.4199 0.1316
-14 14 28 1.0489 0.0219
-14 14 29 1.7542 -0.1076
-14 16 1 -5.5683 -0.4372
-14 16 2 -8.9319 -0.3295
-14 16 3 11.0984 0.5474
-14 16 4 3.5718 0.2840
-14 16 5 7.0444 -0.2866
-14 16 6 -3.6173 -0.1083
-14 16 7 1.3826 0.3259
-14 16 8 5.2310 -0.0219
-14 16 9 12.6833 -0.2965
-14 16 10 -0.9298 -0.1255
-14 16 11 -7.2957 0.3211
-14 16 12 -9.0532 0.1430
-14 16 13 3.0479 -0.1293
-14 16 14 2.8812 -0.0755
-14 16 15 -5.7801 0.1405
-14 16 16 -6.1494 0.2426
-14 16 17 -1.8316 -0.0155
-14 16 18 7.1292 -0.2451
-14 16 19 0.2593 0.3487
-14 16 20 1.5543 0.3744
-14 16 21 -16.4429 -0.3344
-14 16 22 -4.9340 -0.7603
-14 16 23 -1.0761 0.1256
-14 16 24 4.8910 0.4801
-14 16 25 -9.7506 0.2181
-14 16 26 -4.7855 0.1547
-14 18 1 9.2360 0.2515
-14 18 2 3.4474 0.0281
-14 18 3 -5.5922 -0.1237
-14 18 4 -6.0792 -0.2027
-14 18 5 2.3969 -0.0141
-14 18 6 6.3762 0.1839
-14 18 7 -3.6643 -0.2194
-14 18 8 -1.1834 -0.4443
-14 18 9 5.6253 0.1242
-14 18 10 -0.6159 0.0209
-14 18 11 -3.7833 -0.1109
-14 18 12 1.5739 0.1890
-14 18 13 -1.4622 0.2907
-14 18 14 0.8089 0.0585
-14 18 15 -5.6821 -0.3886
-14 18 16 -0.2468 -0.5675
-14 18 17 -8.4768 0.3711
-14 18 18 -0.1326 0.4495
-14 18 19 2.4614 0.0863
-14 18 20 -1.3623 -0.9797
-14 18 21 -2.2542 0.5482
-14 18 22 -4.6455 0.8949
-14 20 1 -8.1901 -0.3108
-14 20 2 -0.9102 0.2987
-14 20 3 2.1209 0.1559
-14 20 4 9.9131 0.0102
-14 20 5 0.1089 -0.0139
-14 20 6 0.4909 0.7211
-14 20 7 3.6048 0.4581
-14 20 8 1.0790 -0.8611
-14 20 9 -0.3538 -0.8148
-14 20 10 6.5861 0.5204
-14 20 11 -10.0828 1.7054
-14 20 12 6.2648 -0.5206
-14 20 13 4.8994 -1.5278
-14 20 14 -4.6556 0.0468
-14 20 15 -12.6118 0.8240
-13 1 1 10.6347 -0.8040
-13 1 2 10.8948 10.3542
-13 1 3 -20.2188 3.0284
-13 1 4 22.6801 -3.5109
-13 1 5 15.8639 -1.4895
-13 1 6 20.3477 -0.1150
-13 1 7 -0.4116 0.2428
-13 1 8 -2.0420 0.6127
-13 1 9 -24.3149 0.5225
-13 1 10 13.5198 1.8941
-13 1 11 20.7596 -0.5446
-13 1 12 -27.0556 -3.0336
-13 1 13 -12.2373 0.0458
-13 1 14 14.5522 3.9129
-13 1 15 12.2384 0.9866
-13 1 16 -12.1483 -3.0752
-13 1 17 -11.5503 -1.4787
-13 1 18 16.2890 1.9890
-13 1 19 13.2422 1.0807
-13 1 20 -9.8405 -0.7605
-13 1 21 -9.3402 -0.8435
-13 1 22 -1.6733 -0.1997
-13 1 23 7.6812 0.1438
-13 1 24 -1.3497 0.1336
-13 1 25 -4.5885 0.0969
-13 1 26 -4.9326 0.0350
-13 1 27 9.4723 -0.0224
-13 1 28 -4.5048 -0.2607
-13 1 29 -5.0375 -0.5549
-13 1 30 -1.9252 0.3554
-13 1 31 -8.0424 0.5149
-13 1 32 -5.0759 -0.3403
-13 1 33 17.1400 -0.3039
-13 1 34 7.4996 0.4287
-13 1 35 -14.2291 -0.1136
-13 1 36 5.8910 -0.5460
-13 1 37 9.3246 0.0465
-13 1 38 1.4130 0.5220
-13 3 1 17.9376 1.7306
-13 3 2 16.2131 -2.2645
-13 3 3 -38.4402 0.0425
-13 3 4 -34.9395 -0.4205
-13 3 5 17.7531 -0.3246
-13 3 6 20.7093 1.0523
-13 3 7 -13.7658 -0.8285
-13 3 8 26.7942 1.1721
-13 3 9 -1.4165 1.5312
-13 3 10 -11.8089 -2.1873
-13 3 11 -4.5475 -1.5899
-13 3 12 30.3052 2.0033
-13 3 13 -0.4577 1.8959
-13 3 14 -24.6375 -1.2610
-13 3 15 -1.1917 -2.1890
-13 3 16 20.2154 0.7076
-13 3 17 -2.5225 1.7687
-13 3 18 -15.8832 -1.0140
-13 3 19 -8.5004 -1.5011
-13 3 20 -8.5519 0.8461
-13 3 21 -0.5889 1.4667
-13 3 22 1.6326 -0.7234
-13 3 23 -0.4090 -1.9537
-13 3 24 3.7927 0.2084
-13 3 25 -4.0696 1.8716
-13 3 26 -0.2952 -0.1048
-13 3 27 9.6584 -1.6839
-13 3 28 2.0194 0.4468
-13 3 29 10.1071 0.6468
-13 3 30 -5.2361 -0.6286
-13 3 31 -4.6749 -0.0937
-13 3 32 -7.8556 0.9466
-13 3 33 4.0860 0.0227
-13 3 34 5.7581 -0.7734
-13 3 35 2.0376 -0.2076
-13 3 36 -2.6734 0.2659
-13 3 37 -1.3291 0.1088
-13 5 1 7.4930 -1.0345
-13 5 2 -16.1840 0.1903
-13 5 3 6.0673 -0.1295
-13 5 4 11.9036 0.5050
-13 5 5 -4.5690 0.0490
-13 5 6 -8.2093 -0.3182
-13 5 7 -9.1336 0.1849
-13 5 8 10.7581 0.2418
-13 5 9 11.8983 -0.7207
-13 5 10 15.2666 -0.0191
-13 5 11 -10.7065 1.3277
-13 5 12 -8.4228 0.0649
-13 5 13 -0.8518 -1.8222
-13 5 14 3.9575 -0.1717
-13 5 15 -7.4878 2.0021
-13 5 16 -0.6456 -0.2631
-13 5 17 2.4339 -1.3428
-13 5 18 -2.8220 0.1931
-13 5 19 -6.7932 0.9604
-13 5 20 4.9498 -0.4581
-13 5 21 -3.2438 -0.6134
-13 5 22 -3.7950 0.0627
-13 5 23 11.7326 0.4480
-13 5 24 2.1849 0.0258
-13 5 25 -5.1759 -0.3335
-13 5 26 0.4795 -0.0565
-13 5 27 5.3978 0.3443
-13 5 28 -0.5839 0.0580
-13 5 29 -2.1083 -0.2779
-13 5 30 4.9014 0.3116
-13 5 31 -9.5198 0.1773
-13 5 32 -2.9532 -0.3784
-13 5 33 0.2053 -0.2606
-13 5 34 -12.8860 0.2865
-13 5 35 -13.3174 0.0141
-13 5 36 -0.3260 0.1372
-13 5 37 3.8094 0.0242
-13 7 1 -20.2514 -0.4770
-13 7 2 -1.7188 -1.5533
-13 7 3 15.5993 0.8347
-13 7 4 -15.5498 1.1105
-13 7 5 -20.2589 -0.9503
-13 7 6 -2.7404 -0.9527
-13 7 7 20.6870 0.2978
-13 7 8 1.6939 0.8303
-13 7 9 -22.7555 -0.1164
-13 7 10 -1.5642 -0.6257
-13 7 11 15.8232 0.2052
-13 7 12 -0.6603 0.7061
-13 7 13 -4.7139 -0.3528
-13 7 14 -8.8620 -0.7848
-13 7 15 -5.7080 0.2627
-13 7 16 -2.4936 0.4799
-13 7 17 8.3213 -0.2443
-13 7 18 -4.7837 -0.4170
-13 7 19 -4.3445 0.1132
-13 7 20 -1.3602 -0.2820
-13 7 21 2.3539 -0.3405
-13 7 22 -4.0536 0.5671
-13 7 23 7.2559 0.5896
-13 7 24 3.2354 -0.3539
-13 7 25 2.8198 -0.5153
-13 7 26 4.9490 -0.2582
-13 7 27 -11.2026 0.3831
-13 7 28 3.1040 0.4883
-13 7 29 7.1591 0.0575
-13 7 30 4.4802 -0.4436
-13 7 31 -14.3901 -0.0716
-13 7 32 1.8118 -0.0007
-13 7 33 4.9441 0.3443
-13 7 34 -8.2841 0.1197
-13 7 35 -9.3425 0.0804
-13 7 36 -0.1588 0.1472
-13 9 1 -10.4123 0.6231
-13 9 2 -12.8160 1.3052
-13 9 3 -4.9679 -0.2398
-13 9 4 4.7047 -1.0223
-13 9 5 11.1788 0.7309
-13 9 6 -7.9926 0.8713
-13 9 7 -6.7618 -0.2368
-13 9 8 -0.8984 -0.9044
-13 9 9 1.8274 0.0731
-13 9 10 7.8460 0.7361
-13 9 11 3.8995 -0.4540
-13 9 12 -13.5065 -0.8613
-13 9 13 -6.2701 0.4226
-13 9 14 4.6078 0.5906
-13 9 15 1.5329 -0.2149
-13 9 16 -5.6807 -0.4454
-13 9 17 6.2482 -0.2004
-13 9 18 4.5071 0.3181
-13 9 19 -9.3757 0.2423
-13 9 20 1.4998 -0.1785
-13 9 21 7.3165 -0.2503
-13 9 22 5.9117 0.3847
-13 9 23 -6.5523 0.1797
-13 9 24 -9.1442 -0.3717
-13 9 25 9.6961 -0.1409
-13 9 26 0.7643 0.5164
-13 9 27 -6.8425 0.1146
-13 9 28 1.5610 -0.3606
-13 9 29 3.6766 0.1320
-13 9 30 12.3341 0.8793
-13 9 31 -6.1168 -0.1699
-13 9 32 4.1944 -0.5816
-13 9 33 12.5158 0.2550
-13 9 34 -3.9029 0.1338
-13 9 35 0.2839 0.1356
-13 11 1 3.8069 -0.0208
-13 11 2 -10.0117 -0.2500
-13 11 3 -12.2313 -0.0621
-13 11 4 6.4291 0.0569
-13 11 5 1.7682 -0.0027
-13 11 6 -11.4057 -0.0125
-13 11 7 -2.6659 -0.1801
-13 11 8 15.2608 0.2714
-13 11 9 8.2146 0.2509
-13 11 10 -8.2958 -0.2083
-13 11 11 -16.5162 -0.3247
-13 11 12 17.8718 0.4404
-13 11 13 2.8521 0.4181
-13 11 14 -5.3351 -0.2980
-13 11 15 -6.7858 -0.4040
-13 11 16 5.1385 0.1497
-13 11 17 -3.1137 0.2491
-13 11 18 -5.4820 -0.2778
-13 11 19 0.8275 -0.1294
-13 11 20 9.9603 0.3102
-13 11 21 -6.7657 0.1789
-13 11 22 4.8962 -0.2832
-13 11 23 -8.4989 -0.1263
-13 11 24 3.0252 0.3941
-13 11 25 3.5928 0.0800
-13 11 26 12.6607 -0.1568
-13 11 27 -6.4632 0.3302
-13 11 28 1.3367 0.1024
-13 11 29 2.9386 -0.2741
-13 11 30 3.1524 -0.0605
-13 11 31 7.4265 -0.0850
-13 11 32 -5.8515 0.0816
-13 11 33 0.8041 0.0683
-13 13 1 -10.0913 0.5399
-13 13 2 4.5826 -0.1818
-13 13 3 2.7842 -0.5483
-13 13 4 -1.2304 0.0455
-13 13 5 7.4588 0.5125
-13 13 6 -4.9976 -0.1239
-13 13 7 -9.2728 -0.5328
-13 13 8 6.4024 0.1160
-13 13 9 3.6734 0.4850
-13 13 10 -2.3762 -0.0362
-13 13 11 -7.6620 -0.5279
-13 13 12 15.4731 0.0673
-13 13 13 4.6490 0.4395
-13 13 14 -0.6300 -0.1525
-13 13 15 5.4077 -0.5498
-13 13 16 4.0230 0.0897
-13 13 17 -4.6753 0.5538
-13 13 18 -1.3326 -0.2204
-13 13 19 5.1029 -0.3489
-13 13 20 -6.7685 0.3884
-13 13 21 -2.2976 0.6357
-13 13 22 6.1592 -0.1462
-13 13 23 3.3610 -0.5079
-13 13 24 -16.8699 0.2847
-13 13 25 4.1738 0.3050
-13 13 26 -1.2823 -0.3216
-13 13 27 15.3949 -0.2584
-13 13 28 0.1878 0.3484
-13 13 29 4.4374 0.5799
-13 13 30 -5.8933 -0.2339
-13 13 31 0.6870 -0.6222
-13 15 1 -1.0308 -0.2978
-13 15 2 -2.4714 -0.0975
-13 15 3 -5.8312 0.4534
-13 15 4 1.8840 0.1536
-13 15 5 4.1397 -0.5817
-13 15 6 4.7642 -0.1455
-13 15 7 3.3048 0.3317
-13 15 8 5.2512 -0.0520
-13 15 9 -3.1169 -0.4180
-13 15 10 -4.6371 0.1436
-13 15 11 0.1021 0.3583
-13 15 12 4.6729 -0.2204
-13 15 13 0.3446 -0.4762
-13 15 14 -1.1700 0.1294
-13 15 15 0.2512 0.6893
-13 15 16 -0.6762 -0.0130
-13 15 17 5.1222 -0.4412
-13 15 18 4.9387 -0.1630
-13 15 19 -8.6541 0.2242
-13 15 20 -0.0518 -0.0341
-13 15 21 4.0282 -0.3636
-13 15 22 -10.0218 0.1352
-13 15 23 -4.1255 0.3958
-13 15 24 -1.3242 0.1326
-13 15 25 -6.4728 -0.2073
-13 15 26 1.6434 0.0196
-13 15 27 0.1974 0.3378
-13 15 28 -3.8831 0.2398
-13 17 1 -0.5567 -0.0615
-13 17 2 -3.3941 -0.1921
-13 17 3 6.4024 0.1569
-13 17 4 -2.4332 0.0514
-13 17 5 -4.0366 0.0652
-13 17 6 0.3926 -0.1767
-13 17 7 7.0051 0.0578
-13 17 8 8.2814 0.1351
-13 17 9 -6.9535 0.1013
-13 17 10 -4.9715 -0.0189
-13 17 11 10.1879 0.0010
-13 17 12 -2.8761 0.0241
-13 17 13 -4.7594 0.0343
-13 17 14 -5.5132 0.1756
-13 17 15 -7.1233 0.1033
-13 17 16 0.8697 0.2134
-13 17 17 -7.9338 0.1868
-13 17 18 -3.2919 -0.1129
-13 17 19 -6.4704 -0.2330
-13 17 20 2.9528 0.1265
-13 17 21 1.1103 0.7853
-13 17 22 0.0627 0.2168
-13 17 23 -10.8000 -0.4017
-13 17 24 -2.3617 -0.6238
-13 19 1 7.1062 0.4376
-13 19 2 0.1733 0.5965
-13 19 3 -9.2994 -0.2289
-13 19 4 10.6156 -0.5606
-13 19 5 -9.6361 -0.2351
-13 19 6 -5.0538 0.5840
-13 19 7 4.5800 0.0434
-13 19 8 10.6426 -0.3134
-13 19 9 -11.8255 -0.3088
-13 19 10 -4.2409 0.3967
-13 19 11 2.3078 0.0444
-13 19 12 -0.9554 -0.6031
-13 19 13 -10.6407 0.2894
-13 19 14 13.3221 0.8329
-13 19 15 -1.2379 -0.3163
-13 19 16 -6.2798 -1.2391
-13 19 17 -6.1315 0.0552
-13 19 18 8.8093 0.5002
-13 19 19 -3.5814 0.2848
-13 21 1 -8.4966 -1.2205
-13 21 2 7.6831 -0.8350
-13 21 3 4.1689 0.9489
-13 21 4 -3.0171 0.4202
-13 21 5 -0.5816 -1.3259
-13 21 6 12.1753 -0.7084
-13 21 7 7.5802 1.4524
-13 21 8 5.3649 0.7683
-13 21 9 -1.6968 -0.3662
-13 21 10 -1.6187 -1.3015
-12 0 2 -25.5250 -1.7427
-12 0 4 52.4881 -1.0877
-12 0 6 12.1728 15.3858
-12 0 8 -7.1434 -22.9154
-12 0 10 12.7069 25.5368
-12 0 12 -29.0506 -19.9060
-12 0 14 -1.2740 13.0199
-12 0 16 18.9552 -5.8265
-12 0 18 7.3875 1.9164
-12 0 20 9.2675 -1.5523
-12 0 22 -0.3141 2.6542
-12 0 24 -1.7962 -3.8595
-12 0 26 4.8152 3.8834
-12 0 28 -8.2969 -3.3757
-12 0 30 -2.5477 2.8542
-12 0 32 9.1621 -2.4342
-12 0 34 4.4130 1.5108
-12 0 36 15.7300 -0.9436
-12 0 38 1.9135 0.6247
-12 2 1 -10.4434 -2.7608
-12 2 2 0.2836 -1.0713
-12 2 3 -30.9254 2.5932
-12 2 4 -13.1226 3.8340
-12 2 5 10.4760 0.0035
-12 2 6 28.4557 -4.9445
-12 2 7 -29.4333 -3.3742
-12 2 8 -2.0864 5.1187
-12 2 9 1.9528 2.8990
-12 2 10 10.2605 -2.8958
-12 2 11 -4.8670 -1.1592
-12 2 12 -9.1714 1.5372
-12 2 13 -0.0373 -0.7320
-12 2 14 2.7176 -1.8319
-12 2 15 7.2031 0.4573
-12 2 16 -2.5166 1.4325
-12 2 17 -5.9254 -0.1267
-12 2 18 4.8000 -1.3303
-12 2 19 2.9448 -1.5928
-12 2 20 -12.0126 0.0824
-12 2 21 5.2238 1.8653
-12 2 22 -1.2475 0.5520
-12 2 23 0.7802 -1.8132
-12 2 24 -1.2047 -0.4390
-12 2 25 10.3456 0.7280
-12 2 26 1.6197 -0.2323
-12 2 27 4.2147 -0.2605
-12 2 28 2.6631 1.2495
-12 2 29 5.8850 0.1822
-12 2 30 -14.8311 -1.4564
-12 2 31 11.5654 -0.5358
-12 2 32 7.4806 1.1907
-12 2 33 -11.4012 0.7933
-12 2 34 -4.3221 -0.6577
-12 2 35 17.4280 -0.2117
-12 2 36 7.4086 0.1217
-12 2 37 2.3716 -0.1858
-12 2 38 -0.7506 0.0865
-12 4 1 7.5293 2.4904
-12 4 2 -15.6588 -0.1425
-12 4 3 5.1082 -1.0649
-12 4 4 -13.8019 1.2083
-12 4 5 -19.7680 -0.6028
-12 4 6 23.1780 -0.1488
-12 4 7 -2.6269 1.6175
-12 4 8 1.9113 -0.7175
-12 4 9 -8.1379 -0.3150
-12 4 10 26.9697 1.0994
-12 4 11 21.0120 -0.5102
-12 4 12 7.9001 -1.4363
-12 4 13 -25.4326 0.4628
-12 4 14 -1.7442 0.3398
-12 4 15 19.2482 -0.0495
-12 4 16 8.4765 0.4940
-12 4 17 -13.8480 -0.0045
-12 4 18 -6.6247 -1.1654
-12 4 19 5.1454 -0.1046
-12 4 20 3.0789 0.9693
-12 4 21 0.4012 0.1959
-12 4 22 0.0669 -0.4248
-12 4 23 -9.3177 -0.4943
-12 4 24 1.2082 -0.0584
-12 4 25 15.4832 0.3598
-12 4 26 3.3586 0.7424
-12 4 27 0.8984 -0.3931
-12 4 28 -8.1775 -0.6030
-12 4 29 -3.8981 0.4101
-12 4 30 0.9384 0.3732
-12 4 31 8.0619 -0.4022
-12 4 32 -6.7862 0.0116
-12 4 33 -15.8710 0.4056
-12 4 34 -5.4210 -0.1992
-12 4 35 0.9206 -0.3443
-12 4 36 -9.0527 0.0537
-12 4 37 6.4114 -0.1664
-12 6 1 -8.2791 -1.5809
-12 6 2 -5.7151 -0.5829
-12 6 3 2.1516 0.4186
-12 6 4 -5.2652 0.6962
-12 6 5 0.0267 -0.3663
-12 6 6 -14.9197 -1.6867
-12 6 7 -9.7876 0.2114
-12 6 8 13.0589 1.7272
-12 6 9 4.1737 -0.4933
-12 6 10 -8.6902 -1.9726
-12 6 11 -10.3025 0.9388
-12 6 12 3.8790 1.5249
-12 6 13 1.6446 -0.9969
-12 6 14 -9.9246 -1.1135
-12 6 15 -7.7614 1.3217
-12 6 16 10.5284 -0.0901
-12 6 17 -6.4146 -1.3255
-12 6 18 -7.9080 0.3640
-12 6 19 0.1934 1.2872
-12 6 20 10.8213 -0.4232
-12 6 21 2.1996 -1.1483
-12 6 22 -6.4470 -0.0837
-12 6 23 -9.8316 1.0394
-12 6 24 4.3817 0.5023
-12 6 25 17.3302 -0.6591
-12 6 26 -7.3252 -0.4561
-12 6 27 -17.9095 0.6206
-12 6 28 14.7712 0.2590
-12 6 29 3.3510 -0.4108
-12 6 30 0.2042 0.2163
-12 6 31 0.8218 0.2792
-12 6 32 -0.9681 -0.2410
-12 6 33 -5.6106 -0.1364
-12 6 34 -7.1610 0.0541
-12 6 35 0.3273 0.2214
-12 6 36 -17.6709 0.4891
-12 8 1 0.1784 0.3953
-12 8 2 -8.7076 0.3953
-12 8 3 -7.8695 -0.1656
-12 8 4 -6.5444 -0.2758
-12 8 5 -1.3701 0.1464
-12 8 6 1.3547 0.6397
-12 8 7 -4.1299 -0.5232
-12 8 8 -5.1418 -0.5085
-12 8 9 9.7567 0.4033
-12 8 10 13.0226 0.6730
-12 8 11 -7.7680 -0.5164
-12 8 12 -6.1306 -0.3721
-12 8 13 16.2630 0.1050
-12 8 14 1.9722 -0.0968
-12 8 15 -8.6165 -0.0926
-12 8 16 -3.3510 0.1596
-12 8 17 7.9835 -0.0367
-12 8 18 0.1365 -0.2210
-12 8 19 1.6154 -0.2142
-12 8 20 3.3940 0.3081
-12 8 21 -1.2755 0.4188
-12 8 22 -2.7850 -0.2120
-12 8 23 8.3340 -0.0881
-12 8 24 1.5943 0.3554
-12 8 25 -10.2873 0.0694
-12 8 26 1.0138 -0.1042
-12 8 27 9.0890 0.1373
-12 8 28 -1.2560 -0.2823
-12 8 29 -28.3673 0.0430
-12 8 30 8.2682 0.6265
-12 8 31 10.5330 0.0994
-12 8 32 8.0557 -0.6342
-12 8 33 -16.7092 -0.1371
-12 8 34 -3.1585 0.0141
-12 8 35 6.0844 0.1806
-12 10 1 11.7690 0.0239
-12 10 2 -1.7806 0.7811
-12 10 3 -8.3381 0.3280
-12 10 4 -14.9035 -0.6303
-12 10 5 0.2207 -0.0217
-12 10 6 12.0035 0.3783
-12 10 7 -1.7248 -0.2342
-12 10 8 -12.0968 -0.6939
-12 10 9 -0.3684 0.2593
-12 10 10 7.3509 0.4714
-12 10 11 -0.7410 -0.2867
-12 10 12 -2.5412 -0.5972
-12 10 13 -11.4014 0.0940
-12 10 14 2.1975 0.6465
-12 10 15 0.9504 -0.0870
-12 10 16 -5.9855 -0.3195
-12 10 17 -0.6285 0.1203
-12 10 18 5.1626 0.3434
-12 10 19 0.9511 -0.1396
-12 10 20 0.8461 -0.3114
-12 10 21 -4.8134 -0.0276
-12 10 22 0.3351 0.5127
-12 10 23 9.1585 0.1718
-12 10 24 5.8285 -0.3661
-12 10 25 -3.6697 -0.1730
-12 10 26 -10.3895 0.2253
-12 10 27 0.7611 0.2672
-12 10 28 14.5759 -0.0357
-12 10 29 -3.2320 -0.3212
-12 10 30 -8.2432 0.2007
-12 10 31 13.3348 0.5500
-12 10 32 7.9027 -0.0504
-12 10 33 10.9739 -0.2857
-12 10 34 -9.8540 -0.3786
-12 12 1 -2.1543 0.4077
-12 12 2 -6.4289 -0.5921
-12 12 3 3.6740 -0.5308
-12 12 4 13.3288 0.6265
-12 12 5 -10.3276 0.1983
-12 12 6 -6.2181 -0.2551
-12 12 7 10.5964 -0.3035
-12 12 8 -4.5738 0.5497
-12 12 9 -6.2028 0.3170
-12 12 10 5.8920 -0.2670
-12 12 11 3.2281 -0.4570
-12 12 12 3.9927 0.3028
-12 12 13 -6.8953 0.6526
-12 12 14 8.7464 -0.3316
-12 12 15 8.6751 -0.5607
-12 12 16 -2.1222 0.2164
-12 12 17 -6.7934 0.7241
-12 12 18 5.4840 -0.3687
-12 12 19 6.7224 -0.5986
-12 12 20 -0.6068 0.6748
-12 12 21 1.5946 0.7754
-12 12 22 6.1885 -0.5297
-12 12 23 -2.9606 -0.7300
-12 12 24 4.3904 0.6176
-12 12 25 4.8536 0.5299
-12 12 27 6.4781 -0.2747
-12 12 28 3.8318 0.3530
-12 12 29 12.5251 0.2880
-12 12 30 1.8776 -0.2194
-12 12 31 0.3353 -0.8490
-12 12 32 0.7882 0.3346
-12 14 1 5.1431 0.1828
-12 14 2 -7.4394 0.1436
-12 14 3 -7.8833 -0.1760
-12 14 4 -0.8094 -0.4460
-12 14 5 -0.2162 0.0724
-12 14 6 6.9131 0.2461
-12 14 7 1.3755 -0.0977
-12 14 8 0.1907 -0.2562
-12 14 9 -2.1666 -0.0473
-12 14 10 5.4677 0.1691
-12 14 11 -3.6170 0.1273
-12 14 12 -0.4290 0.0090
-12 14 13 4.7208 -0.1702
-12 14 14 8.8624 -0.0170
-12 14 15 2.7639 0.1979
-12 14 16 -3.7095 -0.1981
-12 14 17 1.4324 -0.1248
-12 14 18 5.8333 0.2775
-12 14 19 1.2254 0.1934
-12 14 20 -14.7301 -0.2414
-12 14 21 -3.2635 0.0324
-12 14 22 -6.4925 0.4036
-12 14 23 12.6379 -0.0186
-12 14 24 -11.5313 -0.1532
-12 14 25 5.8588 0.0347
-12 14 26 -17.4150 0.0683
-12 14 27 2.1397 -0.1273
-12 14 28 3.5809 -0.1801
-12 14 29 12.8061 0.1845
-12 14 30 -4.1772 -0.0841
-12 16 1 5.6598 -0.4380
-12 16 2 -0.7691 -0.4169
-12 16 3 1.1094 0.4462
-12 16 4 -4.5769 0.5472
-12 16 5 3.0941 -0.3126
-12 16 6 7.6754 -0.2405
-12 16 7 -3.8817 0.4656
-12 16 8 -0.3237 0.0926
-12 16 9 0.6673 -0.3659
-12 16 10 5.9719 -0.1891
-12 16 11 3.3021 0.4218
-12 16 12 -10.2559 0.2703
-12 16 13 -4.0127 -0.2514
-12 16 14 -1.3922 -0.3268
-12 16 15 -2.2190 0.3973
-12 16 16 3.2103 0.2103
-12 16 17 -8.1377 -0.1296
-12 16 18 1.5248 0.0269
-12 16 19 2.6260 0.1062
-12 16 20 9.1937 0.1165
-12 16 21 -0.0858 -0.2986
-12 16 22 -2.9986 -0.1469
-12 16 23 -12.1922 0.2247
-12 16 24 4.4712 0.0546
-12 16 25 7.0055 -0.2924
-12 16 26 1.5114 0.0135
-12 18 1 10.1972 0.1315
-12 18 2 -5.9867 0.1160
-12 18 3 -6.3629 -0.1510
-12 18 4 -0.5734 -0.3061
-12 18 5 -0.6059 0.2369
-12 18 6 5.4410 0.1385
-12 18 7 -14.5820 -0.3323
-12 18 8 -0.8427 -0.3215
-12 18 9 6.2288 0.0217
-12 18 10 -0.5688 0.5124
-12 18 11 -2.8641 0.1101
-12 18 12 -4.4829 -0.0781
-12 18 13 3.9300 0.1034
-12 18 14 3.9458 0.3215
-12 18 15 -6.4796 -0.0792
-12 18 16 -1.2546 -0.4543
-12 18 17 -1.0526 0.2908
-12 18 18 2.6265 0.6372
-12 18 19 -13.1059 -0.2127
-12 18 20 -9.0669 -0.3788
-12 18 21 2.1235 0.1172
-12 18 22 6.0369 0.5511
-12 20 1 -7.6499 -0.6963
-12 20 2 7.5709 0.2936
-12 20 3 0.0984 0.1417
-12 20 4 -1.0466 -0.2551
-12 20 5 2.2269 -0.1443
-12 20 6 14.7492 0.1925
-12 20 7 -4.3260 -0.1357
-12 20 8 3.1519 0.0126
-12 20 9 3.9397 0.2664
-12 20 10 7.1798 0.5674
-12 20 11 -13.9583 0.2593
-12 20 12 -2.0101 -0.5261
-12 20 13 -2.1689 -0.7963
-12 20 14 0.9911 0.1961
-12 20 15 0.2610 0.9435
-12 20 16 3.4243 -0.0416
-11 1 1 -29.0815 -5.6661
-11 1 3 12.7711 -0.3050
-11 1 4 -5.8763 -1.6408
-11 1 5 -57.8986 1.0215
-11 1 6 23.3903 4.4016
-11 1 7 17.7916 0.2193
-11 1 8 -14.5512 -3.0959
-11 1 9 -37.9413 -2.1271
-11 1 10 0.3847 1.6311
-11 1 11 1.2749 1.6669
-11 1 12 -25.0783 -0.8539
-11 1 13 5.6146 -0.4181
-11 1 14 -1.4040 1.0617
-11 1 15 -2.5116 -1.2510
-11 1 16 12.2583 -2.9308
-11 1 17 1.3413 0.7504
-11 1 18 8.5371 3.6734
-11 1 19 -0.4228 -0.0345
-11 1 20 8.0676 -3.7095
-11 1 21 4.9661 -1.1326
-11 1 22 1.1897 2.0288
-11 1 23 -2.5397 1.5646
-11 1 24 -5.2953 -0.4835
-11 1 25 0.7424 -1.0812
-11 1 26 11.1014 -0.0965
-11 1 27 3.5322 0.2033
-11 1 28 -5.4666 -0.2251
-11 1 29 -0.0710 0.5921
-11 1 30 -1.5706 0.2916
-11 1 31 0.9145 -0.2804
-11 1 32 3.1206 -0.2252
-11 1 33 -3.2721 -0.2099
-11 1 34 10.7659 -0.3593
-11 1 35 6.3137 0.5603
-11 1 36 7.4537 0.3840
-11 1 37 1.9237 -0.4103
-11 1 38 -0.0874 0.1251
-11 3 1 -1.2660 2.6086
-11 3 2 -8.6834 -2.6538
-11 3 3 23.9563 -3.0483
-11 3 4 16.4913 3.5659
-11 3 5 -54.5376 1.8568
-11 3 6 -52.3818 -3.3104
-11 3 7 18.7816 -1.8237
-11 3 8 77.5233 1.3923
-11 3 9 -20.7712 0.7606
-11 3 10 -37.6252 -1.1529
-11 3 11 12.3032 0.0259
-11 3 12 27.7628 1.1421
-11 3 13 5.7274 -0.2310
-11 3 14 -5.8856 -1.9911
-11 3 15 -5.7178 -1.1324
-11 3 16 4.8105 1.9576
-11 3 17 4.1499 1.6126
-11 3 18 -2.2161 -1.6450
-11 3 19 1.0581 -1.7811
-11 3 20 -10.4928 1.2707
-11 3 21 5.4599 0.8873
-11 3 22 4.6894 -0.4578
-11 3 23 11.4168 -0.5544
-11 3 24 -2.8660 0.4449
-11 3 25 -0.6871 0.5434
-11 3 26 -11.0422 0.0218
-11 3 27 14.1803 -1.0816
-11 3 28 -2.0657 0.1250
-11 3 29 3.4692 1.4371
-11 3 30 -8.1078 0.0430
-11 3 31 -2.6770 -1.0819
-11 3 32 -7.5439 -0.2193
-11 3 33 -0.9213 0.8054
-11 3 34 -2.1725 -0.0180
-11 3 35 2.7818 -0.2087
-11 3 36 7.8758 0.3212
-11 3 37 4.5501 -0.0444
-11 3 38 -3.7525 -0.5513
-11 5 1 -9.4449 -0.0732
-11 5 2 -8.0431 0.7131
-11 5 3 11.7021 1.1524
-11 5 4 10.7271 -0.1858
-11 5 5 -10.5418 -0.6958
-11 5 6 -0.1381 0.0845
-11 5 7 -17.0315 0.5692
-11 5 8 0.7079 0.4967
-11 5 9 -2.0175 0.3288
-11 5 10 12.2543 -0.9022
-11 5 11 2.1400 -0.3122
-11 5 12 0.4928 -0.0712
-11 5 13 -5.3292 -0.6389
-11 5 14 -0.2984 0.2317
-11 5 15 -1.1300 1.2471
-11 5 16 -1.8528 -0.3509
-11 5 17 -8.3792 -1.0394
-11 5 18 11.7080 0.1680
-11 5 19 6.4534 0.7833
-11 5 20 -14.3533 0.2407
-11 5 21 -7.1976 -0.8332
-11 5 22 15.5001 -0.0592
-11 5 23 -4.9414 0.7224
-11 5 24 -13.5384 0.1222
-11 5 25 5.4365 -0.6536
-11 5 26 2.2532 0.0902
-11 5 27 1.6131 0.7329
-11 5 28 -4.3912 0.0295
-11 5 29 -1.7194 -0.5799
-11 5 30 7.3170 0.0300
-11 5 31 1.1695 0.2792
-11 5 32 -4.9621 -0.1339
-11 5 33 -2.0183 -0.1251
-11 5 34 -21.8993 0.1099
-11 5 35 -2.4800 0.0394
-11 5 36 -13.9292 -0.1184
-11 5 37 -2.6707 -0.2606
-11 7 1 -3.8313 -0.4509
-11 7 2 -21.6855 -0.7872
-11 7 3 -5.2002 -0.1492
-11 7 4 -6.7244 0.2938
-11 7 5 -0.0410 -0.2541
-11 7 6 -5.1813 -0.8403
-11 7 7 -11.7629 0.4639
-11 7 8 3.1508 0.3847
-11 7 9 20.0252 -0.5168
-11 7 10 5.0362 -0.3566
-11 7 11 -9.6651 0.6204
-11 7 12 0.4664 0.4338
-11 7 13 5.4238 -0.1430
-11 7 14 6.5116 -0.7364
-11 7 15 2.1445 0.2593
-11 7 16 -4.7726 0.9893
-11 7 17 -8.5917 -0.3042
-11 7 18 11.1129 -1.2084
-11 7 19 4.3299 0.4295
-11 7 20 0.1050 1.2919
-11 7 21 -2.1069 -0.3006
-11 7 22 -1.4727 -0.9399
-11 7 23 1.6980 0.6309
-11 7 24 -3.8202 0.4865
-11 7 25 -3.6861 -0.2629
-11 7 26 -0.5204 0.1861
-11 7 27 -7.2969 0.0805
-11 7 28 -6.4389 -0.4273
-11 7 29 -13.8317 0.0205
-11 7 30 7.8657 0.1887
-11 7 31 5.4561 0.1358
-11 7 32 -3.9910 0.1378
-11 7 33 -8.1619 -0.2219
-11 7 34 0.7490 -0.2925
-11 7 35 -2.4611 0.2055
-11 7 36 -3.3710 0.5837
-11 9 1 1.1149 -0.2124
-11 9 2 -1.5481 0.8807
-11 9 3 -11.2179 -0.2400
-11 9 4 -4.6896 -0.8050
-11 9 5 1.2674 0.0169
-11 9 6 -9.9711 1.4772
-11 9 7 -2.8486 -0.7244
-11 9 8 12.0908 -1.3643
-11 9 9 -8.6747 0.3440
-11 9 10 -15.8748 1.2140
-11 9 11 4.6065 -0.4355
-11 9 12 16.6149 -1.1259
-11 9 13 0.4151 0.2518
-11 9 14 -6.0771 1.1675
-11 9 15 -9.5057 -0.5024
-11 9 16 2.8581 -0.9508
-11 9 17 3.7748 0.5252
-11 9 18 -0.6410 1.0244
-11 9 19 -3.6141 -0.3980
-11 9 20 3.0480 -0.6988
-11 9 21 -0.1359 0.5260
-11 9 22 3.2115 0.6536
-11 9 23 4.1456 -0.3133
-11 9 24 -4.3905 -0.4029
-11 9 25 1.0191 0.1712
-11 9 26 0.3953 0.0147
-11 9 27 -0.7696 0.2232
-11 9 28 -0.7820 0.0685
-11 9 29 -10.6549 -0.5952
-11 9 30 -1.0866 0.0950
-11 9 31 -2.7400 0.5784
-11 9 32 4.6233 -0.2968
-11 9 33 4.4321 -0.1300
-11 9 34 -1.3022 -0.1316
-11 9 35 4.7643 -0.0922
-11 11 1 6.8345 0.1199
-11 11 2 4.3583 -0.0360
-11 11 3 2.5687 -0.0325
-11 11 4 1.0848 0.3758
-11 11 5 -7.6326 0.0589
-11 11 6 4.5186 -0.4017
-11 11 7 3.9304 -0.0712
-11 11 8 -5.5981 0.1550
-11 11 9 -5.8923 -0.0522
-11 11 10 3.5447 -0.1600
-11 11 11 4.4743 0.0107
-11 11 12 -8.9668 0.2440
-11 11 13 -4.1363 0.0518
-11 11 14 8.9545 -0.2582
-11 11 15 -3.6735 -0.0160
-11 11 16 -4.4804 0.2930
-11 11 17 12.2806 0.1593
-11 11 18 -3.7730 -0.1135
-11 11 19 -5.3824 -0.3197
-11 11 20 2.3441 0.1936
-11 11 21 22.6897 0.2252
-11 11 22 -4.8396 -0.1488
-11 11 23 -5.4649 -0.4597
-11 11 24 2.8286 0.2647
-11 11 25 6.4560 0.4127
-11 11 26 0.8554 -0.2426
-11 11 27 6.3804 -0.2971
-11 11 28 1.4806 0.1680
-11 11 29 -0.1926 0.2154
-11 11 30 4.8019 -0.3544
-11 11 31 12.5813 -0.5113
-11 11 32 -4.6973 0.3559
-11 11 33 9.1727 0.0814
-11 13 1 -4.9567 0.6433
-11 13 2 -13.5042 -0.2745
-11 13 3 -3.5389 -0.4184
-11 13 4 8.7423 0.1177
-11 13 5 5.5918 0.1417
-11 13 6 -2.6793 -0.0834
-11 13 7 2.9107 0.0390
-11 13 8 -1.6016 0.2314
-11 13 9 -0.5022 0.1787
-11 13 10 -0.2460 0.0210
-11 13 11 3.4035 -0.1269
-11 13 12 3.3322 -0.2025
-11 13 13 0.2886 0.3606
-11 13 14 6.6765 0.0690
-11 13 15 -0.8919 -0.1284
-11 13 16 1.2313 0.0181
-11 13 17 -4.1288 0.3499
-11 13 18 -0.0216 -0.0451
-11 13 19 0.4104 -0.1175
-11 13 20 -3.5604 0.2079
-11 13 21 -4.2094 0.3241
-11 13 22 -1.1705 -0.0506
-11 13 23 3.6346 -0.3565
-11 13 24 -8.4137 -0.1736
-11 13 25 1.1451 0.3041
-11 13 26 -2.3183 -0.0214
-11 13 27 9.7319 -0.4291
-11 13 28 -0.5555 -0.0668
-11 13 29 6.4914 0.4767
-11 13 30 0.5772 0.0620
-11 13 31 1.0828 -0.5131
-11 15 1 7.1313 -0.4323
-11 15 2 -1.2832 0.0434
-11 15 3 -11.5385 0.2035
-11 15 4 -5.9612 -0.2361
-11 15 5 -1.8094 -0.3553
-11 15 6 12.5420 0.1190
-11 15 7 -2.3341 0.3258
-11 15 8 -0.9596 0.0325
-11 15 9 -5.2127 -0.3888
-11 15 10 10.9603 -0.1914
-11 15 11 6.7757 0.3775
-11 15 12 -8.7047 0.2897
-11 15 13 -1.1674 -0.4477
-11 15 14 -0.2694 -0.1988
-11 15 15 4.0524 0.4936
-11 15 16 5.0830 0.0239
-11 15 17 1.8533 -0.4849
-11 15 18 -3.4272 0.2246
-11 15 19 1.3800 0.1928
-11 15 20 7.5149 -0.3238
-11 15 21 5.6498 -0.3146
-11 15 22 -12.7331 0.3947
-11 15 23 0.4176 0.4219
-11 15 24 -8.2816 -0.3190
-11 15 25 8.0083 -0.6686
-11 15 26 1.7050 0.4165
-11 15 27 -1.5800 0.4225
-11 15 28 -2.1200 -0.2963
-11 17 1 4.7379 -0.0285
-11 17 2 -2.2878 -0.1146
-11 17 3 7.6884 -0.0279
-11 17 4 -2.2404 0.0085
-11 17 5 1.5462 0.0492
-11 17 6 2.2240 -0.0846
-11 17 7 -2.2145 0.2399
-11 17 8 3.3577 0.2106
-11 17 9 0.0213 0.0045
-11 17 10 -2.4463 -0.1104
-11 17 11 8.6755 -0.0680
-11 17 12 2.4524 0.1477
-11 17 13 3.4760 0.1775
-11 17 14 -11.4027 -0.1464
-11 17 15 -0.1126 0.0661
-11 17 16 11.7455 0.2030
-11 17 17 -8.5120 -0.1373
-11 17 18 -0.6769 -0.2880
-11 17 19 -0.4353 0.2060
-11 17 20 5.5147 0.4821
-11 17 21 -5.5409 -0.1830
-11 17 22 3.6595 -0.1288
-11 17 23 6.2351 0.0981
-11 17 24 6.3687 0.1027
-11 17 25 -13.9170 0.0250
-11 19 1 -1.6580 -0.1387
-11 19 2 -3.6220 0.3139
-11 19 3 1.2565 -0.2052
-11 19 4 1.2580 -0.3238
-11 19 5 -5.0395 0.2763
-11 19 6 4.3490 0.3813
-11 19 7 -0.0288 -0.1297
-11 19 8 1.2040 -0.2382
-11 19 9 -6.8523 -0.0633
-11 19 10 6.7761 0.5757
-11 19 11 -2.1513 -0.0249
-11 19 12 -7.2614 -0.3776
-11 19 13 -8.4735 0.3439
-11 19 14 6.8414 0.4123
-11 19 15 3.0020 -0.1190
-11 19 16 3.4027 -0.5456
-11 19 17 -2.2372 -0.5275
-11 19 18 4.1414 0.5589
-11 19 19 -2.7310 -0.0601
-11 19 20 -2.1392 -0.3388
-11 21 1 -2.2514 -0.5940
-11 21 2 -1.8773 -0.0044
-11 21 3 -4.3802 0.3582
-11 21 4 1.3736 -0.0661
-11 21 5 5.0207 -0.8077
-11 21 6 -1.5412 -1.4836
-11 21 7 -2.8196 1.1827
-11 21 8 18.4678 0.5950
-11 21 9 0.5603 -0.8694
-11 21 10 -6.7870 -0.2938
-11 21 11 -4.7590 1.1139
-11 21 12 7.9408 0.2536
-10 0 2 -39.7777 12.7524
-10 0 4 -8.7341 -5.0757
-10 0 6 -5.3127 1.1284
-10 0 8 -6.8931 -2.5684
-10 0 10 -34.7587 7.6331
-10 0 12 -0.0334 -14.7609
-10 0 14 -25.9965 18.1455
-10 0 16 32.2645 -17.1421
-10 0 18 4.4930 12.8232
-10 0 20 20.5445 -7.8219
-10 0 22 -12.8740 4.2058
-10 0 24 12.3230 -2.6967
-10 0 26 -9.6214 2.5188
-10 0 28 8.5052 -2.1764
-10 0 30 -6.6500 1.7317
-10 0 32 4.3890 -1.4692
-10 0 34 6.9803 1.5760
-10 0 36 3.7854 -1.2874
-10 0 38 4.8047 0.8677
-10 2 1 33.9697 2.0121
-10 2 2 38.6914 4.1997
-10 2 3 -8.5015 -3.4756
-10 2 4 -36.9114 -5.4464
-10 2 5 -23.9695 -1.7656
-10 2 6 24.1842 1.5718
-10 2 7 -33.7134 1.5686
-10 2 8 -23.3417 1.5288
-10 2 9 -9.3158 -0.4892
-10 2 10 20.9061 -4.5671
-10 2 11 -1.1766 -1.5761
-10 2 12 -38.1369 4.3775
-10 2 13 -1.1639 1.8919
-10 2 14 10.1937 -3.6125
-10 2 15 1.9682 -1.3919
-10 2 16 -15.2264 2.2588
-10 2 17 -4.2317 -0.0048
-10 2 18 14.9992 -1.7813
-10 2 19 8.8345 0.9118
-10 2 20 -3.5159 1.2957
-10 2 21 -5.2054 -0.5225
-10 2 22 -6.9211 -0.3616
-10 2 23 9.5800 0.0626
-10 2 24 11.5374 -0.0079
-10 2 25 -0.8722 0.9597
-10 2 26 -11.7755 0.2024
-10 2 27 -3.3716 -0.7463
-10 2 28 -7.1886 -0.1690
-10 2 29 5.0850 0.5588
-10 2 30 5.3932 -0.3182
-10 2 31 -3.2116 0.1060
-10 2 32 -6.2023 0.2769
-10 2 33 2.7749 0.3189
-10 2 34 7.2306 -0.5249
-10 2 35 -3.5482 -0.5864
-10 2 36 13.4740 0.4092
-10 2 37 8.7583 0.4934
-10 2 38 1.6085 -0.0420
-10 4 1 29.0146 2.6722
-10 4 2 4.2358 -1.6847
-10 4 3 42.9228 -2.8782
-10 4 4 17.3880 1.4979
-10 4 5 -28.1087 4.2925
-10 4 6 -11.6465 -0.9246
-10 4 7 -1.6074 -2.6919
-10 4 8 23.2738 0.0510
-10 4 9 7.7228 1.7237
-10 4 10 -6.9117 -0.0510
-10 4 11 -1.5080 -0.7904
-10 4 12 17.1386 -0.1718
-10 4 13 23.7193 -0.0620
-10 4 14 -4.8050 0.2739
-10 4 15 -21.1310 -0.4499
-10 4 16 4.0622 0.0032
-10 4 17 10.8517 0.9704
-10 4 18 -3.4187 0.5384
-10 4 19 -8.5882 -1.1853
-10 4 20 -1.5366 0.0058
-10 4 21 5.4040 0.7182
-10 4 22 -11.6502 -0.0911
-10 4 23 4.2406 -0.2300
-10 4 24 2.2858 0.6868
-10 4 25 2.7190 -0.2663
-10 4 26 -18.6833 -0.7081
-10 4 27 0.1194 0.2742
-10 4 28 -9.6401 0.2405
-10 4 29 7.4574 0.2098
-10 4 30 -3.2062 0.2664
-10 4 31 -9.5586 -0.5711
-10 4 32 -5.0136 -0.6278
-10 4 33 -5.9038 0.4604
-10 4 34 -12.1453 0.4176
-10 4 35 -2.1991 -0.0530
-10 4 36 -4.9580 -0.1614
-10 4 37 -0.0142 -0.4138
-10 6 1 9.8757 -1.7168
-10 6 2 -28.6125 0.6037
-10 6 3 -26.3176 1.6513
-10 6 4 8.7759 -0.5178
-10 6 5 7.4572 -2.1123
-10 6 6 7.4994 0.1481
-10 6 7 -8.7271 1.4549
-10 6 8 -7.7707 0.0474
-10 6 9 -8.4681 -1.0705
-10 6 10 8.6788 -0.5513
-10 6 11 8.6753 0.6956
-10 6 12 -0.2212 1.0493
-10 6 13 -6.8175 -0.6557
-10 6 14 -2.5718 -1.4594
-10 6 15 -3.3656 1.3211
-10 6 16 4.7283 1.8893
-10 6 17 1.0275 -1.1837
-10 6 18 -2.2268 -1.1773
-10 6 19 -0.8958 0.7876
-10 6 20 4.5029 0.8588
-10 6 21 -5.6522 -0.5144
-10 6 22 -8.5996 -0.3248
-10 6 23 2.3640 0.7033
-10 6 24 -5.3497 0.2707
-10 6 25 -12.0187 -0.7312
-10 6 26 -15.1909 -0.1303
-10 6 27 3.4772 0.7156
-10 6 28 8.2177 0.4421
-10 6 29 -6.7839 -0.5821
-10 6 30 -2.3444 -0.5056
-10 6 31 6.8693 0.2758
-10 6 32 0.4350 0.2651
-10 6 33 10.8366 -0.2839
-10 6 34 -12.4794 0.1199
-10 6 35 -9.1970 0.5369
-10 6 36 -14.7309 0.0339
-10 6 37 -0.4213 -0.5098
-10 8 1 9.7297 -0.1528
-10 8 2 -6.4236 -0.6942
-10 8 3 -14.9194 -0.0980
-10 8 4 -4.8525 -0.2467
-10 8 5 6.0352 -0.2287
-10 8 6 -3.8577 0.9537
-10 8 7 -10.0507 0.2844
-10 8 8 0.7949 -1.1709
-10 8 9 7.8805 0.0944
-10 8 10 8.7932 1.3840
-10 8 11 4.5147 -0.2706
-10 8 12 2.1085 -1.2708
-10 8 13 6.5209 0.6482
-10 8 14 7.0181 1.0162
-10 8 15 -0.9728 -0.7346
-10 8 16 5.7562 -0.5210
-10 8 17 -7.3864 0.6921
-10 8 18 2.4072 0.4641
-10 8 19 2.1819 -0.3334
-10 8 20 -3.1258 -0.5001
-10 8 21 -6.8866 0.4033
-10 8 22 14.2812 0.5971
-10 8 23 6.1391 0.0109
-10 8 24 -9.9636 -0.2743
-10 8 25 3.2426 -0.1795
-10 8 26 1.3518 -0.3354
-10 8 27 -14.7985 0.1107
-10 8 28 -4.6118 0.2624
-10 8 29 1.9747 -0.1266
-10 8 30 -8.8301 -0.1949
-10 8 31 -17.5061 -0.1908
-10 8 32 1.1513 -0.1781
-10 8 33 2.5992 0.0443
-10 8 34 0.6497 -0.0413
-10 8 35 -9.6776 0.0319
-10 10 1 1.8044 -0.2388
-10 10 2 13.0706 0.9655
-10 10 3 4.2974 -0.1402
-10 10 4 -13.6532 -0.6586
-10 10 5 -9.7187 -0.2877
-10 10 6 12.7923 0.6445
-10 10 7 1.4807 0.1189
-10 10 8 -14.6754 -0.6757
-10 10 9 -6.4661 -0.2570
-10 10 10 -1.1764 0.3226
-10 10 11 -9.7012 0.3177
-10 10 12 1.0809 -0.2018
-10 10 13 0.1735 -0.0629
-10 10 14 -4.2432 0.3813
-10 10 15 -6.9997 0.0246
-10 10 16 1.6290 -0.4797
-10 10 17 -3.7539 0.2793
-10 10 18 0.6450 0.6427
-10 10 19 -0.0403 -0.3275
-10 10 20 -4.4891 -0.6095
-10 10 21 2.7231 0.3805
-10 10 22 -2.4921 0.4473
-10 10 23 2.8744 -0.2829
-10 10 24 -2.6178 -0.5152
-10 10 25 3.1095 0.1924
-10 10 26 -2.9138 0.2048
-10 10 27 -5.8639 -0.3641
-10 10 28 -4.0979 -0.2265
-10 10 29 3.3682 0.3314
-10 10 30 6.0215 0.0935
-10 10 31 -5.8110 -0.1897
-10 10 32 -7.1233 0.1203
-10 10 33 15.6064 0.2527
-10 10 34 0.4202 -0.5761
-10 12 1 6.8072 0.3355
-10 12 2 -0.5336 -0.4829
-10 12 3 -2.3491 -0.2499
-10 12 4 10.4611 0.7388
-10 12 5 6.2570 0.4675
-10 12 6 3.4792 -0.4620
-10 12 7 -9.6977 -0.5121
-10 12 8 -6.5981 0.5222
-10 12 9 16.7962 0.3153
-10 12 10 -4.2932 -0.3653
-10 12 11 -9.9863 -0.1049
-10 12 12 -3.4017 0.3833
-10 12 13 7.4960 -0.0539
-10 12 14 -3.4062 -0.4259
-10 12 15 -0.9994 0.1594
-10 12 16 1.1536 0.4759
-10 12 17 -2.3842 -0.1005
-10 12 18 -4.2367 -0.2303
-10 12 19 8.6760 -0.1378
-10 12 20 -3.4293 0.3535
-10 12 21 2.5771 0.0897
-10 12 22 -8.1965 -0.2915
-10 12 23 15.4819 -0.5247
-10 12 24 3.3678 0.1457
-10 12 25 -4.9863 0.3503
-10 12 26 -10.6578 -0.3036
-10 12 27 1.7682 -0.1207
-10 12 28 10.4834 0.3509
-10 12 29 9.8088 0.0290
-10 12 30 -3.2932 -0.2970
-10 12 31 -1.4570 -0.6517
-10 12 32 6.0608 0.2437
-10 14 1 -4.4331 0.0612
-10 14 2 0.5883 -0.1033
-10 14 3 0.1910 0.0883
-10 14 4 -8.1032 -0.0541
-10 14 5 -10.3882 -0.0812
-10 14 6 -2.7276 -0.2749
-10 14 7 2.6823 0.1780
-10 14 8 13.8651 0.0807
-10 14 9 -1.8089 0.0945
-10 14 10 -1.6997 -0.0219
-10 14 11 6.8409 0.2085
-10 14 12 3.2238 -0.0519
-10 14 13 -0.4765 -0.1704
-10 14 14 0.5203 0.0730
-10 14 15 -0.3512 0.3901
-10 14 16 0.5002 -0.0379
-10 14 17 -0.5623 -0.2124
-10 14 18 4.6989 0.2247
-10 14 19 -6.5282 0.0658
-10 14 20 -5.5710 -0.2939
-10 14 21 -5.6586 0.0412
-10 14 22 -4.3410 0.2469
-10 14 23 -2.9992 0.2299
-10 14 24 -6.3295 -0.4997
-10 14 25 0.5905 -0.5130
-10 14 26 -1.0759 0.4964
-10 14 27 5.2894 0.5910
-10 14 28 -6.4588 -0.6545
-10 14 29 -3.3349 -0.2072
-10 14 30 6.4206 0.2380
-10 16 1 10.2307 -0.5763
-10 16 2 6.6992 -0.0329
-10 16 3 4.1992 0.5012
-10 16 4 9.7009 0.2539
-10 16 5 0.1223 -0.6355
-10 16 6 -6.5428 0.0069
-10 16 7 -3.0773 0.5227
-10 16 8 15.7982 0.1797
-10 16 9 10.0736 -0.3946
-10 16 10 -3.1050 0.0227
-10 16 11 -2.0871 0.1672
-10 16 12 3.0903 0.0549
-10 16 13 14.7974 -0.3810
-10 16 14 -13.6491 -0.3639
-10 16 15 -2.9312 0.1084
-10 16 16 4.4518 0.3971
-10 16 17 -0.5592 -0.4185
-10 16 18 2.9222 -0.4323
-10 16 19 7.1232 0.2863
-10 16 20 9.1534 0.2828
-10 16 21 -0.0666 -0.5280
-10 16 22 -3.2618 -0.5217
-10 16 23 6.8565 0.3929
-10 16 24 2.4407 0.4231
-10 16 25 -5.3482 -0.5077
-10 16 26 6.8557 -0.4913
-10 16 27 3.7714 -0.0977
-10 18 1 1.6669 0.3816
-10 18 2 1.8868 -0.0177
-10 18 3 14.2948 -0.3048
-10 18 4 -2.4737 -0.0770
-10 18 5 -11.0817 0.4802
-10 18 6 -5.9034 -0.0975
-10 18 7 3.6740 -0.4101
-10 18 8 5.0750 -0.0514
-10 18 9 -3.3476 0.5157
-10 18 10 -5.8971 0.0960
-10 18 11 2.9853 -0.3615
-10 18 12 2.7088 0.0026
-10 18 13 9.1746 0.3095
-10 18 14 0.2234 0.0330
-10 18 15 -9.7698 0.1050
-10 18 16 9.1493 -0.1818
-10 18 17 12.5202 0.1502
-10 18 18 6.1768 0.1223
-10 18 19 -7.0914 -0.5640
-10 18 20 3.8577 -0.0527
-10 18 21 -2.2251 0.1168
-10 18 22 0.3492 0.3208
-10 18 23 -2.0626 -0.0521
-10 20 1 5.0304 0.0311
-10 20 2 0.2484 0.0588
-10 20 3 -3.3439 -0.2274
-10 20 4 -6.2963 -0.3278
-10 20 5 11.2586 -0.2738
-10 20 6 5.2167 0.3860
-10 20 7 -7.1599 0.5384
-10 20 8 4.3240 -0.3142
-10 20 9 1.9761 0.0139
-10 20 10 14.3491 0.2259
-10 20 11 -10.3612 0.1709
-10 20 12 -5.8156 0.1014
-10 20 13 -5.1345 -0.6111
-10 20 14 7.3001 -0.5362
-10 20 15 -5.0003 0.1600
-10 20 16 -4.3930 0.6326
-10 20 17 -0.2576 -0.8701
-10 22 2 1.9513 -0.0136
-10 22 3 4.9255 0.7278
-9 1 1 73.5724 -2.0622
-9 1 2 35.0196 2.3251
-9 1 3 -5.9545 5.5016
-9 1 4 -53.8469 1.8793
-9 1 5 -31.3603 -4.4751
-9 1 6 24.0628 -3.7078
-9 1 7 -3.5073 2.1216
-9 1 8 -16.7363 -1.6954
-9 1 9 -34.1467 -0.4145
-9 1 10 -28.1982 2.6559
-9 1 11 -2.7811 0.9455
-9 1 12 -6.8964 -2.2952
-9 1 13 -10.6679 -1.4844
-9 1 14 -13.0997 -0.0828
-9 1 15 -4.8135 1.7371
-9 1 16 2.2385 1.0309
-9 1 17 0.0950 -0.6642
-9 1 18 13.1058 0.2190
-9 1 19 -8.5004 0.5259
-9 1 20 -4.7298 -1.8867
-9 1 21 10.7315 0.3211
-9 1 22 8.4636 3.1031
-9 1 23 -7.4343 0.1084
-9 1 24 -9.1534 -2.6599
-9 1 25 -7.8366 -0.2351
-9 1 26 -0.9742 1.5474
-9 1 27 -0.5212 0.8810
-9 1 28 4.9203 -0.5889
-9 1 29 -1.7579 -0.6579
-9 1 30 -1.0737 0.1480
-9 1 31 -6.7423 0.0926
-9 1 32 -4.2679 -0.3946
-9 1 33 5.9902 0.3149
-9 1 34 12.5000 0.4795
-9 1 35 -0.5410 -0.3085
-9 1 36 0.1765 -0.1530
-9 1 37 1.0094 -0.0656
-9 1 38 2.6998 0.1623
-9 3 1 88.0667 1.8171
-9 3 2 16.1366 1.4129
-9 3 3 5.8122 -5.1544
-9 3 4 54.0570 -3.2776
-9 3 5 48.5577 4.3683
-9 3 6 -35.2019 1.1469
-9 3 7 -53.6287 -4.8058
-9 3 8 27.5771 0.5035
-9 3 9 30.7544 4.7233
-9 3 10 3.6444 -1.1598
-9 3 11 7.6465 -3.7836
-9 3 12 -6.1881 1.8535
-9 3 13 21.1885 2.7271
-9 3 14 -3.2091 -1.3905
-9 3 15 -14.8578 -1.5910
-9 3 16 -2.6787 1.4135
-9 3 17 10.9069 1.0668
-9 3 18 -6.4786 -0.7571
-9 3 19 -17.2460 -0.4655
-9 3 20 6.4262 1.0002
-9 3 21 16.4779 0.8059
-9 3 22 -4.8200 -1.3140
-9 3 23 -7.1377 -0.5042
-9 3 24 -6.4166 1.3695
-9 3 25 5.0006 0.5839
-9 3 26 -3.4016 -1.2406
-9 3 27 -2.9699 -0.3924
-9 3 28 -24.3179 0.2852
-9 3 29 -7.4622 0.5225
-9 3 30 0.8272 -0.0640
-9 3 31 1.1804 -0.3793
-9 3 32 -5.0124 -0.0581
-9 3 33 -2.6778 0.3390
-9 3 34 2.9473 0.1983
-9 3 35 -7.7620 -0.1852
-9 3 36 9.5081 -0.2129
-9 3 37 3.0917 -0.0405
-9 3 38 12.3182 0.2497
-9 5 1 -15.2029 0.2924
-9 5 2 42.7525 -0.6932
-9 5 3 33.0600 0.5711
-9 5 4 -12.6353 0.6337
-9 5 5 -18.1524 -0.3517
-9 5 6 38.7374 -0.3442
-9 5 7 1.9007 1.1171
-9 5 8 -20.0468 0.1115
-9 5 9 -10.5705 -1.6832
-9 5 10 2.7735 0.1659
-9 5 11 14.8949 1.0762
-9 5 12 1.2907 -0.0366
-9 5 13 -9.8646 -1.0451
-9 5 14 -1.6094 -0.0292
-9 5 15 3.4088 0.4413
-9 5 16 -3.0049 0.7840
-9 5 17 -8.6109 0.2228
-9 5 18 6.7091 -0.2989
-9 5 19 6.0446 -0.3928
-9 5 20 -11.5062 0.3588
-9 5 21 -7.8583 -0.1312
-9 5 22 -5.7948 -0.0126
-9 5 23 7.4011 0.6092
-9 5 24 -14.0015 -0.0941
-9 5 25 -8.0485 -0.3468
-9 5 26 -11.5139 -0.0949
-9 5 27 3.3818 0.0085
-9 5 28 -6.6951 0.2310
-9 5 29 2.2981 0.0063
-9 5 30 12.5704 -0.3098
-9 5 31 -3.8717 0.3463
-9 5 32 -7.3804 0.1009
-9 5 33 10.2346 -0.7915
-9 5 34 -2.3056 -0.0817
-9 5 35 -12.4645 0.7357
-9 5 36 -14.2446 0.0289
-9 5 37 0.5240 -0.4198
-9 7 1 1.0330 -1.3575
-9 7 2 -0.8188 0.4904
-9 7 3 -4.2763 0.9075
-9 7 4 -6.2142 -0.4275
-9 7 5 8.3320 -0.6616
-9 7 6 13.0009 0.5345
-9 7 7 2.3055 0.6359
-9 7 8 -5.4311 -0.2720
-9 7 9 -0.4816 -0.3277
-9 7 10 21.3268 0.0810
-9 7 11 18.6004 0.6288
-9 7 12 -1.0238 -0.0578
-9 7 13 -3.0483 -0.2639
-9 7 14 7.5612 0.3685
-9 7 15 9.4522 0.3716
-9 7 16 2.0763 0.0470
-9 7 17 -7.5313 -0.1134
-9 7 18 -4.7509 0.0943
-9 7 19 3.4114 0.1483
-9 7 20 7.2440 -0.0516
-9 7 21 3.4961 -0.3053
-9 7 22 -11.9435 -0.3762
-9 7 23 -5.9866 0.3781
-9 7 24 -0.0811 0.8983
-9 7 25 4.7360 -0.5646
-9 7 26 -6.6115 -0.9191
-9 7 27 -8.7400 0.1626
-9 7 28 -6.7009 0.5065
-9 7 29 -3.4282 -0.2033
-9 7 30 -3.4999 -0.0881
-9 7 31 3.1621 -0.1598
-9 7 32 -2.5348 -0.1414
-9 7 33 4.0140 0.1167
-9 7 34 -5.3646 0.1179
-9 7 35 -6.4471 0.0326
-9 7 36 -2.0672 0.5700
-9 9 1 -5.6427 -0.3441
-9 9 2 -15.3420 0.6264
-9 9 3 0.8223 0.0611
-9 9 4 12.7947 -0.5667
-9 9 5 -17.0167 -0.6321
-9 9 6 -13.7735 0.7060
-9 9 7 8.5129 0.4791
-9 9 8 2.2217 -0.5039
-9 9 9 -15.3725 -0.0323
-9 9 10 -9.9909 0.7528
-9 9 11 2.1880 0.0797
-9 9 12 -0.9751 -0.7069
-9 9 13 -10.8036 0.1786
-9 9 14 5.6547 1.0334
-9 9 15 6.1154 -0.1583
-9 9 16 -1.5929 -1.2761
-9 9 17 -20.6585 0.4472
-9 9 18 4.0351 1.2809
-9 9 19 -4.4070 -0.4753
-9 9 20 -0.8900 -1.2292
-9 9 21 -3.8291 0.6184
-9 9 22 3.4383 0.9911
-9 9 23 -2.9582 -0.4465
-9 9 24 5.5341 -1.0313
-9 9 25 -1.1107 0.3254
-9 9 26 -3.6123 0.5592
-9 9 27 -4.8575 -0.4861
-9 9 28 4.8307 -0.5109
-9 9 29 0.3439 0.2224
-9 9 30 -10.1393 0.1879
-9 9 31 -11.8582 0.0822
-9 9 32 3.2368 0.0748
-9 9 33 1.3988 -0.1127
-9 9 34 -4.8873 -0.3742
-9 9 35 -2.2580 0.1509
-9 11 1 -3.4816 0.0714
-9 11 2 6.3443 -0.0329
-9 11 3 4.1232 0.0251
-9 11 4 6.7264 -0.1910
-9 11 5 8.9042 0.1034
-9 11 6 -3.7718 0.0071
-9 11 7 -7.2597 0.2612
-9 11 8 5.9466 -0.0199
-9 11 9 1.7485 -0.1559
-9 11 10 -15.0140 -0.3320
-9 11 11 -0.0126 0.1653
-9 11 12 -6.7941 0.3535
-9 11 13 0.8711 0.0903
-9 11 14 -4.7704 -0.4606
-9 11 15 -3.9517 0.0101
-9 11 16 -0.9688 0.3500
-9 11 17 4.7792 -0.2940
-9 11 18 -10.0118 -0.3660
-9 11 19 0.4031 0.4186
-9 11 20 4.6833 0.2668
-9 11 21 12.6621 -0.5668
-9 11 22 -8.1910 -0.2833
-9 11 23 3.8890 0.3099
-9 11 24 -7.5049 0.0603
-9 11 25 7.1748 -0.0249
-9 11 26 2.5639 -0.1332
-9 11 27 -4.9620 -0.2466
-9 11 28 -6.2868 -0.0786
-9 11 29 -4.8200 0.4345
-9 11 30 4.0856 0.3028
-9 11 31 8.2589 -0.6990
-9 11 32 1.0892 -0.2456
-9 11 33 -6.3733 0.5856
-9 13 1 -1.6578 0.5211
-9 13 2 -12.8943 -0.4367
-9 13 3 -2.6268 -0.5015
-9 13 4 -0.8651 0.7769
-9 13 5 -4.6092 0.5594
-9 13 6 1.2490 -0.4541
-9 13 7 2.2441 -0.5351
-9 13 8 -0.1906 0.4567
-9 13 9 -5.0905 0.3745
-9 13 10 -0.5488 -0.3488
-9 13 11 5.0063 -0.2541
-9 13 12 -4.0350 0.3463
-9 13 13 -1.6322 0.2635
-9 13 14 1.6822 -0.1121
-9 13 15 -1.8655 -0.2825
-9 13 16 0.0012 0.0619
-9 13 17 -13.7468 0.2242
-9 13 18 3.5386 0.2544
-9 13 19 0.3309 -0.1973
-9 13 20 -5.5795 -0.2452
-9 13 21 -3.6864 0.0665
-9 13 22 -2.5160 -0.0232
-9 13 23 -5.1328 -0.1143
-9 13 24 -2.6995 -0.1470
-9 13 25 0.9777 -0.1110
-9 13 26 0.3987 0.0482
-9 13 27 1.5458 0.2011
-9 13 28 -5.2508 0.0939
-9 13 29 -3.6161 0.2674
-9 13 30 9.0098 -0.0156
-9 13 31 -2.6173 -0.4001
-9 15 1 8.2381 -0.6109
-9 15 2 9.1199 0.0780
-9 15 3 1.5220 0.4440
-9 15 4 -1.3720 -0.1246
-9 15 5 -9.0703 -0.4316
-9 15 6 7.7227 -0.0324
-9 15 7 0.7450 0.5840
-9 15 8 1.9623 0.1248
-9 15 9 2.2506 -0.5190
-9 15 10 15.2528 -0.1229
-9 15 11 8.6854 0.5276
-9 15 12 -3.3621 0.2242
-9 15 13 -0.3427 -0.5218
-9 15 14 -11.5890 -0.3136
-9 15 15 5.7994 0.3689
-9 15 16 -2.7393 0.4428
-9 15 17 -2.0543 -0.6083
-9 15 18 6.2003 -0.3914
-9 15 19 1.0456 0.3363
-9 15 20 -5.0365 0.2626
-9 15 21 1.4270 -0.5838
-9 15 22 5.3117 -0.3648
-9 15 23 -10.8707 0.5123
-9 15 24 -7.6693 0.2306
-9 15 25 5.7231 -0.4463
-9 15 26 6.7203 -0.1361
-9 15 27 -1.9643 0.1015
-9 15 28 4.8433 0.1533
-9 17 1 3.6902 0.0809
-9 17 2 1.2599 -0.2134
-9 17 3 7.5095 -0.0253
-9 17 4 1.9291 0.2494
-9 17 5 1.1140 -0.0678
-9 17 6 -7.5429 -0.0883
-9 17 7 2.2080 -0.0313
-9 17 8 4.8578 0.1036
-9 17 9 2.5091 -0.0619
-9 17 10 -0.3965 0.0324
-9 17 11 10.1626 -0.1316
-9 17 12 -3.0194 -0.1304
-9 17 13 4.9857 0.1287
-9 17 14 1.7209 -0.0135
-9 17 15 1.3316 -0.3604
-9 17 16 -2.9459 -0.1260
-9 17 17 3.7151 0.3745
-9 17 18 10.2192 -0.0924
-9 17 19 1.3099 -0.1585
-9 17 20 5.4265 0.1011
-9 17 21 8.5692 0.1952
-9 17 22 -1.3846 -0.4466
-9 17 23 -8.0345 0.1612
-9 17 24 5.8816 0.3958
-9 17 25 5.2916 -0.1231
-9 19 1 0.6028 0.4692
-9 19 2 3.7677 0.1118
-9 19 3 5.8506 -0.3492
-9 19 4 -5.3979 -0.1827
-9 19 5 -1.3421 0.5128
-9 19 6 -1.3057 0.1879
-9 19 7 4.8202 -0.1157
-9 19 8 0.3311 -0.0914
-9 19 9 -6.3908 0.1236
-9 19 10 4.3917 -0.1928
-9 19 11 2.6540 -0.0381
-9 19 12 4.4522 -0.0841
-9 19 13 -6.9828 -0.0482
-9 19 14 0.8471 0.0257
-9 19 15 1.1932 -0.0586
-9 19 16 6.0322 -0.3347
-9 19 17 -1.0721 -0.3366
-9 19 18 11.0993 0.2460
-9 19 19 3.5159 -0.1586
-9 19 20 2.0590 -0.3187
-9 21 1 -0.2128 -0.2202
-9 21 2 -11.7517 0.5747
-9 21 3 -1.7731 -0.0131
-9 21 4 0.3370 -0.3384
-9 21 5 2.7929 -0.2295
-9 21 6 -9.2974 -0.2360
-9 21 7 -5.6001 0.4584
-9 21 8 5.5209 0.0132
-9 21 9 -9.9201 -0.1519
-9 21 10 7.6173 -0.5535
-9 21 11 0.7038 0.0018
-9 21 12 -3.2818 0.5418
-9 21 13 -4.2219 0.1797
-8 0 2 0.7130 -12.5154
-8 0 4 80.9400 2.2731
-8 0 6 -97.9224 0.2528
-8 0 8 74.6881 -2.1848
-8 0 10 -77.7421 -0.5017
-8 0 12 20.9626 -0.3972
-8 0 14 -22.2517 4.7193
-8 0 16 22.6786 -8.2582
-8 0 18 -0.9134 10.8712
-8 0 20 4.6329 -10.0880
-8 0 22 -21.7324 8.1840
-8 0 24 10.5874 -5.6160
-8 0 26 -12.6226 4.0589
-8 0 28 0.9245 -3.0361
-8 0 30 4.4531 2.5083
-8 0 32 2.0606 -1.5167
-8 0 34 -10.3621 0.9639
-8 0 36 11.2926 -0.5707
-8 0 38 -1.3618 0.6828
-8 2 1 76.4054 1.7923
-8 2 2 12.6978 -1.8090
-8 2 3 34.1000 -2.0884
-8 2 4 57.4287 -0.2318
-8 2 5 0.2358 4.3040
-8 2 6 1.3212 -1.1595
-8 2 7 -20.3969 -3.8083
-8 2 8 -8.5958 -0.1316
-8 2 9 12.6085 3.2285
-8 2 10 24.7081 1.2747
-8 2 11 -13.4295 -1.5059
-8 2 12 -14.4359 -0.6475
-8 2 13 14.0861 2.0296
-8 2 14 -3.5760 -0.1015
-8 2 15 -13.0023 -1.3409
-8 2 16 -4.8706 1.6623
-8 2 17 -3.3684 1.7316
-8 2 18 -0.6737 -2.7895
-8 2 19 -2.6669 -0.9192
-8 2 20 -6.4924 3.5923
-8 2 21 3.3763 0.8694
-8 2 22 13.5803 -3.1679
-8 2 23 -0.6655 0.0054
-8 2 24 -8.3102 1.4564
-8 2 25 -5.0550 -0.2820
-8 2 26 3.5983 -0.1669
-8 2 27 -13.1899 0.1801
-8 2 28 -2.2692 -0.7102
-8 2 29 -2.5113 0.1592
-8 2 30 -0.8846 0.3792
-8 2 31 -1.1806 -0.3677
-8 2 32 6.8992 0.1876
-8 2 33 -3.3083 0.0426
-8 2 34 -6.3036 -0.2678
-8 2 35 5.3291 0.0801
-8 2 36 15.4888 0.3272
-8 2 37 0.0140 -0.1262
-8 2 38 4.0718 0.0751
-8 4 1 36.4228 0.1597
-8 4 2 12.0634 0.6061
-8 4 3 21.2682 -0.8535
-8 4 4 15.3148 -0.4160
-8 4 5 56.7450 0.1109
-8 4 6 38.1745 -0.0737
-8 4 7 -50.9282 -0.3260
-8 4 8 -35.9215 1.0204
-8 4 9 42.4829 0.8199
-8 4 10 19.9117 -0.5739
-8 4 11 -0.6762 -1.2216
-8 4 12 -11.8911 0.7974
-8 4 13 8.2369 1.0528
-8 4 14 6.2394 -0.2761
-8 4 15 12.9018 -1.2115
-8 4 16 -5.0344 0.1536
-8 4 17 -26.5691 1.1975
-8 4 18 8.6603 -0.0434
-8 4 19 7.6945 -0.7068
-8 4 20 6.1665 0.0209
-8 4 21 -5.6224 0.8691
-8 4 22 -1.3781 -0.1302
-8 4 23 1.2475 -0.8622
-8 4 24 -8.3284 -0.3596
-8 4 25 1.4469 1.0172
-8 4 26 -6.3496 -0.0515
-8 4 27 -3.2825 -0.4534
-8 4 28 -11.9861 0.2593
-8 4 29 -2.8458 -0.2688
-8 4 30 -7.0579 -0.5505
-8 4 31 3.6415 0.6212
-8 4 32 5.0240 0.6072
-8 4 33 -5.0160 -0.4929
-8 4 34 -4.7508 -0.2430
-8 4 35 -2.7595 0.0648
-8 4 36 7.4832 0.0057
-8 4 37 -4.8504 0.0566
-8 6 1 7.4453 -1.7049
-8 6 2 13.1759 -0.5390
-8 6 3 -0.1540 2.2978
-8 6 4 29.6105 0.2691
-8 6 5 -7.5609 -2.0249
-8 6 6 10.1123 0.8772
-8 6 7 21.3670 1.3596
-8 6 8 8.2733 -0.6664
-8 6 9 -12.7341 -1.3808
-8 6 10 11.2367 0.8242
-8 6 11 12.5080 1.0533
-8 6 12 -7.0218 -0.3082
-8 6 13 1.6875 -1.1062
-8 6 14 11.6248 0.4852
-8 6 15 -2.0554 1.6054
-8 6 16 -7.3976 0.2167
-8 6 17 5.2787 -1.6286
-8 6 18 0.7685 0.0652
-8 6 19 -4.5633 1.1554
-8 6 20 -7.0774 0.0263
-8 6 21 20.1847 -0.8059
-8 6 22 -11.5289 -0.7319
-8 6 23 -12.3078 0.2383
-8 6 24 -11.1868 0.9271
-8 6 25 1.3969 -0.2743
-8 6 26 -12.4201 -0.6375
-8 6 27 0.8399 0.2142
-8 6 28 6.6618 0.1420
-8 6 29 -8.4065 -0.2635
-8 6 30 2.1870 -0.0139
-8 6 31 15.6617 0.1121
-8 6 32 7.4515 0.0749
-8 6 33 -9.6891 0.0342
-8 6 34 -4.1553 -0.2828
-8 6 35 7.5037 0.2231
-8 6 36 -3.3667 0.4224
-8 8 1 -1.5258 0.0979
-8 8 2 -2.2405 0.6120
-8 8 3 7.8223 -0.0653
-8 8 4 -13.7688 -0.1618
-8 8 5 3.6088 0.5558
-8 8 6 14.4534 -0.4894
-8 8 7 2.6848 0.2324
-8 8 8 -14.3904 0.4617
-8 8 9 0.5407 0.4609
-8 8 10 3.7440 -0.3711
-8 8 11 -2.4219 -0.1057
-8 8 12 -0.2910 -0.2745
-8 8 13 11.2832 0.1171
-8 8 14 0.4488 0.8366
-8 8 15 -9.1912 -0.1414
-8 8 16 -0.8201 -1.2078
-8 8 17 2.0686 0.4205
-8 8 18 3.1300 0.8019
-8 8 19 -9.3974 -0.7979
-8 8 20 -6.6922 -0.8305
-8 8 21 0.3363 0.5957
-8 8 22 8.2933 0.6756
-8 8 23 5.5489 -0.4936
-8 8 24 1.8077 -0.4956
-8 8 25 -2.1572 0.0114
-8 8 26 7.0805 0.2591
-8 8 27 1.9562 -0.2337
-8 8 28 -6.8027 -0.1492
-8 8 29 -1.1430 0.1430
-8 8 30 1.7812 0.0083
-8 8 31 6.9331 -0.2852
-8 8 32 -13.2500 0.1055
-8 8 33 -7.3963 0.1120
-8 8 34 5.1920 -0.1369
-8 8 35 -0.1141 -0.1417
-8 10 1 -1.4746 -0.5344
-8 10 2 -4.4594 0.7856
-8 10 3 -1.9378 0.1753
-8 10 4 4.2729 -0.5643
-8 10 5 -4.1424 -0.2686
-8 10 6 0.0941 0.5926
-8 10 7 6.0267 0.3567
-8 10 8 -0.6454 -0.2769
-8 10 9 -0.6341 -0.3480
-8 10 10 -5.6973 0.3380
-8 10 11 -8.7488 0.5892
-8 10 12 -5.3278 -0.0576
-8 10 13 2.5561 -0.4668
-8 10 14 -5.0705 0.0132
-8 10 15 -12.0637 0.6658
-8 10 16 4.5172 -0.1747
-8 10 17 0.8622 -0.7742
-8 10 18 -9.8420 0.1172
-8 10 19 -10.3199 0.7355
-8 10 20 9.5122 -0.4092
-8 10 21 1.9202 -0.3690
-8 10 22 -1.0154 0.3379
-8 10 23 -5.0069 0.0835
-8 10 24 8.0371 -0.4892
-8 10 25 -1.7546 0.1752
-8 10 26 4.8466 0.3411
-8 10 27 -10.2805 -0.1947
-8 10 28 2.1046 -0.4479
-8 10 29 -5.2848 -0.0247
-8 10 30 2.0149 0.6713
-8 10 31 0.3090 0.4468
-8 10 32 3.1656 -0.2317
-8 10 33 -8.9030 0.1737
-8 10 34 -5.6283 -0.1220
-8 12 1 11.5332 0.6394
-8 12 2 2.5120 -0.5568
-8 12 3 -6.9722 -0.1968
-8 12 4 0.5233 0.3354
-8 12 5 -2.7077 0.3743
-8 12 6 0.0802 -0.5701
-8 12 7 0.0956 -0.3904
-8 12 8 -9.2096 0.6575
-8 12 9 -2.2174 0.6064
-8 12 10 -11.4961 -0.6861
-8 12 11 -1.3067 -0.8094
-8 12 12 2.6560 0.3853
-8 12 13 5.4498 0.6768
-8 12 14 -25.4356 -0.2538
-8 12 15 4.3132 -0.7791
-8 12 16 9.1887 0.2185
-8 12 17 -5.7889 0.2261
-8 12 18 -0.1309 -0.3171
-8 12 19 3.4714 -0.3121
-8 12 20 -2.8758 0.3992
-8 12 21 4.4629 0.0343
-8 12 22 0.5115 -0.4910
-8 12 23 14.1500 0.1345
-8 12 24 -3.2305 0.1922
-8 12 25 -0.1701 -0.2621
-8 12 26 2.7608 0.0038
-8 12 27 8.9486 0.3447
-8 12 28 -6.1346 0.0271
-8 12 29 -0.2459 -0.0314
-8 12 30 4.7653 0.0367
-8 12 31 -3.4886 -0.4635
-8 12 32 -0.9563 0.1789
-8 14 1 2.3555 -0.0856
-8 14 2 -0.5408 0.1121
-8 14 3 2.3647 -0.0581
-8 14 4 -8.2308 0.2423
-8 14 5 -5.4382 0.0002
-8 14 6 7.7125 -0.0421
-8 14 7 -6.3193 0.0921
-8 14 8 1.8481 0.0164
-8 14 9 3.6858 -0.1257
-8 14 10 15.9425 -0.0030
-8 14 11 -6.2933 0.1900
-8 14 12 -3.9330 0.1448
-8 14 13 4.6897 -0.0273
-8 14 14 3.6728 -0.1132
-8 14 15 -15.1917 0.1437
-8 14 16 -4.4846 0.2436
-8 14 17 -0.6377 -0.0578
-8 14 18 8.8997 -0.2486
-8 14 19 -12.9560 0.1274
-8 14 20 0.8108 -0.0050
-8 14 21 -3.6012 0.0089
-8 14 22 -2.3353 -0.0872
-8 14 23 -13.9683 -0.1662
-8 14 24 1.8165 0.1319
-8 14 25 -3.8379 0.0681
-8 14 26 1.8113 -0.0619
-8 14 27 -1.4533 0.0533
-8 14 28 5.7589 0.0587
-8 14 29 1.3838 0.3825
-8 14 30 -8.0406 0.1051
-8 16 1 10.5102 -0.4310
-8 16 2 2.0933 -0.2125
-8 16 3 1.3114 0.3023
-8 16 4 4.3139 0.0833
-8 16 5 3.8676 -0.2749
-8 16 6 2.4960 0.0181
-8 16 7 -1.4556 0.1757
-8 16 8 -2.7297 0.2187
-8 16 9 7.4847 -0.2888
-8 16 10 13.2494 -0.2525
-8 16 11 15.5622 0.1223
-8 16 12 -6.1864 0.2506
-8 16 13 -7.0546 -0.3115
-8 16 14 -7.8917 -0.3002
-8 16 15 5.7063 0.0155
-8 16 16 -8.6104 0.0948
-8 16 17 0.1317 -0.2572
-8 16 18 -2.6706 0.0181
-8 16 19 8.7420 0.0771
-8 16 20 6.5867 0.1617
-8 16 21 1.8889 -0.1406
-8 16 22 -6.8846 -0.4945
-8 16 23 8.9554 0.2872
-8 16 24 0.1990 0.6427
-8 16 25 -9.2047 -0.2020
-8 16 26 0.3662 -0.3657
-8 16 27 5.4773 0.1886
-8 18 1 -3.2515 0.2413
-8 18 2 7.3905 0.1495
-8 18 3 6.2227 -0.0350
-8 18 4 -2.9714 -0.1703
-8 18 5 3.0052 0.1520
-8 18 6 -8.6464 0.0698
-8 18 7 -8.4075 -0.2758
-8 18 8 -1.2181 -0.0974
-8 18 9 8.2528 0.2236
-8 18 10 -0.9519 -0.2244
-8 18 11 -1.9197 -0.2452
-8 18 12 4.7392 -0.1344
-8 18 13 2.9173 0.1309
-8 18 14 -1.3563 0.1537
-8 18 15 4.8810 -0.0383
-8 18 16 7.0304 -0.1568
-8 18 17 -4.2157 0.1698
-8 18 18 5.0094 0.1228
-8 18 19 12.3502 -0.0963
-8 18 20 9.7134 -0.4101
-8 18 21 -0.5512 -0.0294
-8 18 22 1.5700 0.2328
-8 18 23 -3.4595 0.0643
-8 20 1 -5.3539 0.2388
-8 20 2 -4.6496 0.0512
-8 20 3 -2.8544 0.0478
-8 20 4 1.4510 0.1680
-8 20 5 11.2582 -0.2077
-8 20 6 -8.4216 0.1158
-8 20 7 -3.6804 0.1117
-8 20 8 2.3614 -0.2021
-8 20 9 -3.1725 0.2854
-8 20 10 7.6548 0.4334
-8 20 11 -5.8127 -0.3456
-8 20 12 2.8037 -0.7472
-8 20 13 4.8431 -0.2572
-8 20 14 0.4035 0.4596
-8 20 15 -6.4626 -0.0404
-8 20 16 4.2663 -0.1396
-8 20 17 -2.6754 -0.3394
-8 20 18 3.7117 -0.1297
-8 22 1 -1.5092 -1.1824
-8 22 2 10.9365 -0.6329
-8 22 3 1.7091 0.9656
-8 22 4 -11.8519 1.0247
-8 22 5 -1.4190 -0.7683
-8 22 6 3.5530 -0.9250
-7 1 1 -83.2185 4.0008
-7 1 2 48.4767 18.8585
-7 1 3 108.2782 -0.2308
-7 1 4 63.7327 -7.4288
-7 1 5 -74.4656 3.8492
-7 1 6 36.1975 1.1418
-7 1 7 13.8244 -0.6015
-7 1 8 -39.8358 -1.2326
-7 1 9 -7.1449 -0.3706
-7 1 10 38.3530 3.8102
-7 1 11 -2.8321 1.2852
-7 1 12 -23.5125 -3.5301
-7 1 13 -15.4150 -0.7899
-7 1 14 19.8273 2.4633
-7 1 15 -6.3443 1.1320
-7 1 16 1.7561 -0.1504
-7 1 17 -18.0339 -0.3729
-7 1 18 -0.7146 -0.5790
-7 1 19 11.7610 0.4808
-7 1 20 -2.4953 0.5763
-7 1 21 -13.6446 -0.6065
-7 1 22 -8.8326 -0.0530
-7 1 23 16.0584 0.4796
-7 1 24 -8.8907 -0.6530
-7 1 25 -12.1229 -0.4423
-7 1 26 9.3960 1.1023
-7 1 27 6.7017 0.1672
-7 1 28 3.3579 -1.1611
-7 1 29 -10.8952 -0.4139
-7 1 30 0.4075 0.9541
-7 1 31 5.4404 0.2961
-7 1 32 5.5720 -0.4899
-7 1 33 -4.1003 -0.3971
-7 1 34 0.9068 0.4293
-7 1 35 -5.1656 0.0894
-7 1 36 -1.2569 -0.4153
-7 1 37 7.6443 0.0945
-7 1 38 5.8068 0.3621
-7 3 1 12.4897 0.5658
-7 3 2 16.4612 -3.7395
-7 3 3 36.9716 -0.0287
-7 3 4 50.7398 3.0654
-7 3 5 -5.1775 -0.1039
-7 3 6 -13.5032 -2.3350
-7 3 7 24.8588 -1.0924
-7 3 8 19.2030 2.8784
-7 3 9 -19.7840 2.4575
-7 3 10 -23.8830 -1.1724
-7 3 11 33.2002 -2.5530
-7 3 12 38.8858 0.9720
-7 3 13 8.6439 3.5807
-7 3 14 -22.4994 -0.8684
-7 3 15 -2.2174 -3.5096
-7 3 16 14.0056 1.0347
-7 3 17 -0.7435 3.2048
-7 3 18 -5.7944 -1.4015
-7 3 19 -2.8711 -2.6232
-7 3 20 10.9296 0.5975
-7 3 21 3.3662 2.1583
-7 3 22 12.2990 -0.2819
-7 3 23 -1.4387 -1.5018
-7 3 24 2.1459 0.1302
-7 3 25 4.0130 0.6529
-7 3 26 -0.3283 -0.9237
-7 3 27 -20.5163 -0.2573
-7 3 28 1.5733 1.3415
-7 3 29 2.1348 0.0099
-7 3 30 -10.0685 -0.8122
-7 3 31 -5.0076 -0.2049
-7 3 32 1.2573 0.4843
-7 3 33 -0.3762 0.2885
-7 3 34 -3.0382 0.1972
-7 3 35 5.1753 -0.1582
-7 3 36 4.1009 -0.1325
-7 3 37 -2.0304 -0.2370
-7 5 1 16.6611 -0.4102
-7 5 2 7.6001 1.0968
-7 5 3 5.1087 1.0477
-7 5 4 35.6763 -0.7486
-7 5 5 6.3940 -1.4084
-7 5 6 -6.1530 0.0275
-7 5 7 0.8205 1.8062
-7 5 8 17.8594 0.3716
-7 5 9 -6.9870 -1.8309
-7 5 10 -13.0400 0.4272
-7 5 11 9.2137 1.9294
-7 5 12 -3.0844 -0.7735
-7 5 13 -4.1025 -2.0066
-7 5 14 7.9663 0.7778
-7 5 15 -7.5007 2.0610
-7 5 16 -1.3266 -0.6111
-7 5 17 -3.7478 -1.3447
-7 5 18 13.2920 0.1535
-7 5 19 -0.7264 0.7039
-7 5 20 10.8401 -0.0096
-7 5 21 -4.3508 -0.1178
-7 5 22 -12.1085 -0.5513
-7 5 23 5.6421 0.1469
-7 5 24 3.5874 0.1012
-7 5 25 -3.2446 -0.4260
-7 5 26 -11.1676 0.0200
-7 5 27 -3.2766 0.3928
-7 5 28 -1.1654 -0.2150
-7 5 29 6.5389 0.0483
-7 5 30 8.5034 0.0299
-7 5 31 2.5005 -0.3659
-7 5 32 -3.6762 0.1203
-7 5 33 0.0438 0.2740
-7 5 34 0.3669 -0.5087
-7 5 35 -9.0113 0.1618
-7 5 36 3.7943 0.4720
-7 5 37 -4.5144 -0.6589
-7 7 1 -3.1440 -1.3687
-7 7 2 31.3132 -1.4798
-7 7 3 21.8450 0.9348
-7 7 4 -0.3991 1.6924
-7 7 5 2.6396 -0.2897
-7 7 6 24.1093 -0.4878
-7 7 7 12.2816 0.0360
-7 7 8 8.7924 0.1680
-7 7 9 10.1041 0.0429
-7 7 10 -16.8958 -0.0587
-7 7 11 -2.2697 -0.1243
-7 7 12 36.7724 0.0520
-7 7 13 7.1697 -0.3316
-7 7 14 -26.4533 0.1288
-7 7 15 7.1642 0.0637
-7 7 16 12.4265 -0.1582
-7 7 17 -0.0275 -0.3099
-7 7 18 -12.8772 0.0377
-7 7 19 7.0003 0.2439
-7 7 20 -1.8454 -0.5252
-7 7 21 7.4302 -0.8724
-7 7 22 -5.5803 0.2944
-7 7 23 14.4484 0.4124
-7 7 24 -4.9325 0.0699
-7 7 25 -10.1202 -0.1165
-7 7 26 2.7657 -0.2160
-7 7 27 9.6704 -0.3930
-7 7 28 1.2950 0.3106
-7 7 29 -6.1681 0.4344
-7 7 30 1.3100 -0.2434
-7 7 31 7.1050 -0.0860
-7 7 32 2.7214 0.0522
-7 7 33 1.8832 -0.1298
-7 7 34 1.7885 0.2571
-7 7 35 -11.5949 0.2635
-7 7 36 1.1914 0.0952
-7 9 1 -20.2681 0.8418
-7 9 2 -23.9407 1.1631
-7 9 3 4.7990 -0.1851
-7 9 4 8.5004 -0.8533
-7 9 5 -0.6946 0.6057
-7 9 6 -10.8072 0.3219
-7 9 7 9.8976 0.1984
-7 9 8 9.0962 -0.5367
-7 9 9 -0.2380 0.0012
-7 9 10 -12.4890 0.4391
-7 9 11 -2.0783 0.1460
-7 9 12 -5.7464 -0.2450
-7 9 13 -6.2237 -0.1558
-7 9 14 5.3505 -0.0789
-7 9 15 -4.0209 0.4709
-7 9 16 -11.4676 0.0804
-7 9 17 -7.6847 -0.5674
-7 9 18 8.6391 -0.0649
-7 9 19 -10.4739 0.0258
-7 9 20 -4.4272 -0.5158
-7 9 21 2.8097 0.1609
-7 9 22 5.5245 0.9019
-7 9 23 -3.4166 -0.3192
-7 9 24 16.9135 -0.9309
-7 9 25 0.4894 0.1541
-7 9 26 4.6048 0.8410
-7 9 27 -6.9147 -0.0191
-7 9 28 8.3955 -0.5564
-7 9 29 5.4039 -0.0108
-7 9 30 -3.2868 0.6305
-7 9 31 0.5816 0.2095
-7 9 32 -0.0631 -0.2153
-7 9 33 1.0291 0.1319
-7 9 34 -4.3011 -0.2074
-7 9 35 -2.4151 -0.1555
-7 11 1 11.6469 -0.4043
-7 11 2 -7.3581 -0.2636
-7 11 3 -12.7807 -0.1905
-7 11 4 5.9691 0.2446
-7 11 5 3.7147 0.3561
-7 11 6 -9.3382 -0.2686
-7 11 7 -0.9982 -0.4597
-7 11 8 0.6993 0.3178
-7 11 9 -4.5284 0.3677
-7 11 10 -9.3698 -0.1363
-7 11 11 6.4238 -0.2789
-7 11 12 -0.5770 0.0432
-7 11 13 0.7490 0.0666
-7 11 14 -5.3801 -0.1235
-7 11 15 6.6335 -0.1982
-7 11 16 -7.8819 -0.1106
-7 11 17 0.5054 -0.1434
-7 11 18 2.9881 -0.2766
-7 11 19 5.2280 0.1584
-7 11 20 5.1081 0.3690
-7 11 21 -0.4030 -0.1466
-7 11 22 6.2190 -0.4589
-7 11 23 7.3897 0.4848
-7 11 24 13.0121 0.3283
-7 11 25 -1.8937 -0.4603
-7 11 26 6.2265 -0.1192
-7 11 27 4.2016 0.4166
-7 11 28 15.2004 0.0471
-7 11 29 -6.8458 -0.2982
-7 11 30 -3.6062 0.0247
-7 11 31 -3.1790 -0.0445
-7 11 32 7.2178 0.0221
-7 11 33 -0.7852 0.2198
-7 13 1 -5.3777 0.7099
-7 13 2 14.2314 0.0304
-7 13 3 1.0392 -0.3990
-7 13 4 -10.3964 0.3338
-7 13 5 1.5128 0.3201
-7 13 6 -0.1698 -0.2332
-7 13 7 -7.8336 -0.3529
-7 13 8 4.5325 0.1632
-7 13 9 -8.7811 0.2303
-7 13 10 0.0817 -0.2034
-7 13 11 6.7467 -0.4913
-7 13 12 -10.6128 0.2727
-7 13 13 -7.5458 0.4044
-7 13 14 7.3673 -0.3334
-7 13 15 -1.8429 -0.6629
-7 13 16 -5.3463 0.5485
-7 13 17 -9.0076 0.5093
-7 13 18 8.1423 -0.4757
-7 13 19 -4.2633 -0.5249
-7 13 20 10.8559 0.2075
-7 13 21 -4.2177 0.6707
-7 13 22 -6.1447 -0.1070
-7 13 23 -1.0902 -0.6564
-7 13 24 -1.0252 0.0547
-7 13 25 4.2566 0.3973
-7 13 26 2.1419 -0.0621
-7 13 27 3.5972 -0.0495
-7 13 28 -3.1345 0.1858
-7 13 29 8.8021 0.3084
-7 13 30 -5.7356 0.0095
-7 13 31 -1.6195 -0.2844
-7 15 1 4.7600 -0.5125
-7 15 2 4.4828 -0.0881
-7 15 3 3.2398 0.3524
-7 15 4 1.1137 0.0696
-7 15 5 1.4612 -0.3070
-7 15 6 -1.2100 -0.0097
-7 15 7 -3.6881 0.2010
-7 15 8 15.5087 -0.1162
-7 15 9 5.7260 -0.1430
-7 15 10 2.4408 0.1028
-7 15 11 3.4283 0.3420
-7 15 12 15.0283 -0.1045
-7 15 13 -1.5747 -0.3280
-7 15 14 -12.7873 0.0323
-7 15 15 -11.6143 0.4111
-7 15 16 -2.7863 -0.1475
-7 15 17 -0.8571 -0.2753
-7 15 18 2.6161 -0.0567
-7 15 19 1.4263 0.2176
-7 15 20 -3.1268 0.0559
-7 15 21 0.2623 -0.3676
-7 15 22 7.7494 -0.0432
-7 15 23 -6.6992 0.3607
-7 15 24 -10.2583 0.3433
-7 15 25 -2.9829 -0.2573
-7 15 26 7.9480 -0.0135
-7 15 27 -0.8970 0.1007
-7 15 28 -1.6824 0.2433
-7 17 1 7.7272 0.0006
-7 17 2 1.2711 -0.0936
-7 17 3 -1.0024 0.0731
-7 17 4 -0.4987 0.0266
-7 17 5 2.0373 -0.0939
-7 17 6 -9.2463 0.0399
-7 17 7 3.9883 0.0021
-7 17 8 -3.8135 0.0423
-7 17 9 2.8850 -0.0998
-7 17 10 4.7657 -0.0655
-7 17 11 3.1625 -0.1337
-7 17 12 -0.7761 -0.0679
-7 17 13 -1.1416 0.2178
-7 17 14 -4.5548 -0.0320
-7 17 15 -0.8076 -0.1205
-7 17 16 -3.2444 0.1298
-7 17 17 -4.9748 0.1827
-7 17 18 1.4394 0.0439
-7 17 19 13.1450 0.0561
-7 17 20 -5.2790 0.1486
-7 17 21 6.6815 0.4571
-7 17 22 4.3565 -0.1111
-7 17 23 9.9783 -0.1782
-7 17 24 -3.8753 -0.2959
-7 17 25 -2.3667 0.4496
-7 19 1 1.5719 0.0533
-7 19 2 0.5034 0.4620
-7 19 3 -0.3859 -0.1717
-7 19 4 4.2190 -0.5414
-7 19 5 0.5658 0.4209
-7 19 6 5.2279 0.4760
-7 19 7 0.3759 -0.3027
-7 19 8 -4.6750 -0.3587
-7 19 9 0.0160 0.1048
-7 19 10 9.2078 -0.1153
-7 19 11 -1.2975 -0.0941
-7 19 12 3.8936 -0.0547
-7 19 13 2.1037 -0.1888
-7 19 14 -0.6536 0.4249
-7 19 15 3.0393 0.0111
-7 19 16 4.8455 -0.4394
-7 19 17 2.9979 -0.4191
-7 19 18 1.1883 0.5139
-7 19 19 -7.1752 0.0931
-7 19 20 7.8479 -0.4598
-7 19 21 1.3306 -0.7911
-7 21 1 -5.8611 -0.3287
-7 21 2 3.1995 -0.3199
-7 21 3 2.7096 0.2687
-7 21 4 -8.4679 0.3610
-7 21 5 -4.7637 -0.4927
-7 21 6 -0.8256 0.1553
-7 21 7 2.7900 0.3225
-7 21 8 -6.2484 -0.1266
-7 21 9 -10.0155 -0.8262
-7 21 10 3.4305 0.1109
-7 21 11 1.3731 0.6078
-7 21 12 -0.0972 -0.3164
-7 21 13 2.3200 -0.8347
-7 21 14 -2.6027 0.2655
-6 0 2 49.7451 35.4668
-6 0 4 113.9379 -28.6420
-6 0 6 -34.9510 30.4571
-6 0 8 56.5391 -21.9121
-6 0 10 -68.0342 13.0027
-6 0 12 49.1384 -3.1417
-6 0 14 -22.7042 -0.0568
-6 0 16 35.0760 -0.3098
-6 0 18 -13.6311 2.8751
-6 0 20 -3.8728 -4.8667
-6 0 22 -26.5226 5.2711
-6 0 24 1.2812 -4.9894
-6 0 26 -5.7720 4.1720
-6 0 28 14.7390 -3.1827
-6 0 30 2.6933 2.2681
-6 0 32 2.9036 -1.7600
-6 0 34 1.7100 1.3380
-6 0 36 11.3369 -1.0974
-6 0 38 -0.6541 0.5925
-6 2 1 -27.6549 -1.6033
-6 2 2 114.2873 -1.8137
-6 2 3 -94.9263 6.0663
-6 2 4 7.1694 2.6871
-6 2 5 53.9842 0.0056
-6 2 6 52.8782 -2.8610
-6 2 7 -84.2088 -1.5075
-6 2 8 -44.7747 3.3812
-6 2 9 43.7840 1.6391
-6 2 10 35.4644 -1.8646
-6 2 11 -14.1589 -0.3928
-6 2 12 -12.2169 1.6504
-6 2 13 14.1356 0.9162
-6 2 14 51.6391 -0.8474
-6 2 15 -16.4579 -1.8334
-6 2 16 -28.0631 -0.5464
-6 2 17 -1.4538 2.1165
-6 2 18 28.5165 1.1675
-6 2 19 -1.4069 -2.2481
-6 2 20 -14.8228 -0.9936
-6 2 21 12.7813 0.9980
-6 2 22 2.0240 -0.5840
-6 2 23 -1.0353 -0.8531
-6 2 24 5.2667 2.0765
-6 2 25 5.8240 0.2811
-6 2 26 3.4665 -2.3268
-6 2 27 -10.2260 -0.4447
-6 2 28 4.0004 1.7685
-6 2 29 3.9995 0.1514
-6 2 30 4.5595 -0.4397
-6 2 31 -13.7803 -0.2764
-6 2 32 1.4857 -0.0320
-6 2 33 1.7214 0.1851
-6 2 34 -6.0830 0.3838
-6 2 35 -5.7233 0.1524
-6 2 36 7.3403 -0.2681
-6 2 37 0.1439 -0.3783
-6 2 38 -6.0425 0.1336
-6 4 1 40.1689 0.9186
-6 4 2 -11.4846 0.4851
-6 4 3 -66.7562 -0.4825
-6 4 4 -34.2429 0.1767
-6 4 5 18.0617 -0.8850
-6 4 6 18.4571 0.7985
-6 4 7 5.6590 0.3707
-6 4 8 -43.0670 -0.2718
-6 4 9 -29.1619 0.2227
-6 4 10 0.9475 0.1835
-6 4 11 20.9042 0.2666
-6 4 12 -4.9427 0.4107
-6 4 13 -17.1788 -0.3426
-6 4 14 -5.9815 -1.5267
-6 4 15 9.4221 -0.0994
-6 4 16 17.6439 0.9229
-6 4 17 -12.3717 0.8508
-6 4 18 -6.3866 -0.6108
-6 4 19 -1.3445 -1.0074
-6 4 20 32.8449 -0.3861
-6 4 21 2.6175 0.8133
-6 4 22 2.2885 0.5300
-6 4 23 0.9116 -0.4582
-6 4 24 6.1269 -0.4668
-6 4 25 -7.2934 0.2847
-6 4 26 8.0244 0.3327
-6 4 27 7.3683 -0.8034
-6 4 28 0.3183 -0.0730
-6 4 29 -10.2040 1.0344
-6 4 30 -7.2842 0.0746
-6 4 31 8.5286 -0.7567
-6 4 32 -7.6753 0.2047
-6 4 33 -2.2084 0.0226
-6 4 34 -9.0788 -0.4050
-6 4 35 -3.3258 0.4094
-6 4 36 -3.0318 0.1766
-6 4 37 0.6329 -0.7149
-6 6 1 31.8407 0.1831
-6 6 2 39.1783 -2.2338
-6 6 3 24.6462 0.5501
-6 6 4 12.2506 1.9941
-6 6 5 -23.6509 -0.5180
-6 6 6 34.9110 -1.9637
-6 6 7 23.3568 1.1772
-6 6 8 5.7772 1.4929
-6 6 9 9.9926 -1.2174
-6 6 10 9.0485 -0.8242
-6 6 11 -12.1031 1.4833
-6 6 12 12.9834 -0.2394
-6 6 13 12.5000 -1.5590
-6 6 14 1.8633 0.6895
-6 6 15 -8.0770 1.3324
-6 6 16 4.9630 -0.8503
-6 6 17 0.7108 -1.3624
-6 6 18 4.5811 0.0044
-6 6 19 8.2794 1.1590
-6 6 20 0.3972 0.2796
-6 6 21 1.7493 -1.1943
-6 6 22 -2.7228 -0.6618
-6 6 23 8.2847 0.8052
-6 6 24 -5.4894 0.3206
-6 6 25 -2.8199 -0.6229
-6 6 26 -5.1028 -0.0837
-6 6 27 -10.7716 0.5126
-6 6 28 4.1308 0.0278
-6 6 29 14.5007 -0.0943
-6 6 30 3.6545 -0.1483
-6 6 31 -5.8725 0.1473
-6 6 32 1.7873 0.0683
-6 6 33 -2.7530 0.0706
-6 6 34 3.7778 -0.0439
-6 6 35 -3.1857 0.0944
-6 6 36 -2.5716 0.2133
-6 8 1 -0.7566 0.0620
-6 8 2 6.6008 0.3230
-6 8 3 -14.0248 -0.0679
-6 8 4 5.4440 -0.2291
-6 8 5 33.6409 0.3138
-6 8 6 -11.9326 0.1254
-6 8 7 -1.2802 -0.0112
-6 8 8 10.0661 -0.2331
-6 8 9 5.4428 -0.2506
-6 8 10 -8.8875 -0.2902
-6 8 11 3.1240 -0.3685
-6 8 12 -8.1380 0.6297
-6 8 13 -4.7429 0.1307
-6 8 14 3.0226 -0.8035
-6 8 15 3.3264 -0.2926
-6 8 16 -10.5088 0.3274
-6 8 17 -7.4878 0.1776
-6 8 18 2.2771 -0.0499
-6 8 19 9.4602 -0.4716
-6 8 20 -11.9135 -0.4484
-6 8 21 -4.8096 0.1126
-6 8 22 15.2623 0.5420
-6 8 23 13.8229 0.0851
-6 8 24 -5.1837 -0.2586
-6 8 25 5.9930 -0.1383
-6 8 26 18.3765 0.4794
-6 8 27 -3.3909 0.3106
-6 8 28 -8.7624 -0.5514
-6 8 29 4.2414 -0.0282
-6 8 30 8.6182 0.5230
-6 8 31 3.7406 -0.1334
-6 8 32 -8.0996 -0.0594
-6 8 33 4.5173 0.1604
-6 8 34 3.5036 -0.3987
-6 8 35 -8.2013 -0.2814
-6 10 1 -14.3870 0.2882
-6 10 2 -10.4872 0.6683
-6 10 3 5.3822 -0.3403
-6 10 4 -6.2723 -0.6396
-6 10 5 -7.0735 0.6137
-6 10 6 7.3495 0.8054
-6 10 7 0.7602 -0.5979
-6 10 8 -7.5827 -0.6269
-6 10 9 9.8075 0.3764
-6 10 10 12.6931 0.4906
-6 10 11 -5.2587 -0.4512
-6 10 12 -2.7377 -0.4971
-6 10 13 3.4849 0.1263
-6 10 14 8.6637 0.5265
-6 10 15 -6.0305 -0.0844
-6 10 16 -3.7666 -0.3954
-6 10 17 0.1803 -0.3189
-6 10 18 -0.2116 0.2113
-6 10 19 -0.9655 0.4162
-6 10 20 1.6139 -0.0476
-6 10 21 1.2545 -0.5726
-6 10 22 5.5263 0.1122
-6 10 23 -3.2081 0.7254
-6 10 24 15.1273 0.0549
-6 10 25 1.8614 -0.5385
-6 10 26 13.9858 0.0529
-6 10 27 -5.8824 0.1382
-6 10 28 15.4187 0.0776
-6 10 29 -4.3098 0.0316
-6 10 30 -0.8389 0.1688
-6 10 31 2.0032 0.1899
-6 10 32 3.9417 -0.1892
-6 10 33 -0.7037 0.1661
-6 10 34 -0.9210 0.1728
-6 12 1 0.2635 0.3199
-6 12 2 -8.7822 -0.4860
-6 12 3 1.1102 -0.4530
-6 12 4 8.9302 0.3693
-6 12 5 -6.4064 0.2978
-6 12 6 -8.0549 -0.3992
-6 12 7 -4.1042 -0.3378
-6 12 8 -0.8565 0.1724
-6 12 9 -4.1210 0.3744
-6 12 10 -3.6448 -0.3576
-6 12 11 -2.0884 -0.5890
-6 12 12 -6.3718 0.3688
-6 12 13 5.8644 0.5973
-6 12 14 -1.2189 -0.6309
-6 12 15 7.3738 -0.7669
-6 12 16 -9.0183 0.5388
-6 12 17 0.3746 0.5940
-6 12 18 6.2175 -0.6841
-6 12 19 -3.5340 -0.6371
-6 12 20 12.2213 0.5391
-6 12 21 4.4652 0.9206
-6 12 22 1.1382 -0.3663
-6 12 23 -1.7442 -0.7646
-6 12 24 4.2439 0.3757
-6 12 25 -0.5151 0.5790
-6 12 26 9.7087 -0.3322
-6 12 27 12.9882 -0.0733
-6 12 28 2.3042 0.3141
-6 12 29 3.0337 -0.1235
-6 12 30 6.6672 -0.1811
-6 12 31 -3.1668 -0.2464
-6 12 32 -8.6609 0.0425
-6 14 1 6.8291 0.2835
-6 14 2 2.7047 0.1247
-6 14 3 0.4733 -0.2287
-6 14 4 1.2567 -0.0918
-6 14 5 -1.8929 0.1235
-6 14 6 0.2776 0.1048
-6 14 7 1.2586 -0.1949
-6 14 8 5.8965 -0.0671
-6 14 9 -0.6212 -0.0558
-6 14 10 12.3793 -0.0068
-6 14 11 -5.3669 0.1162
-6 14 12 8.4918 -0.0031
-6 14 13 0.6069 -0.1635
-6 14 14 -4.8835 0.1713
-6 14 15 -9.5835 0.0942
-6 14 16 8.0903 -0.3712
-6 14 17 -10.1587 0.0229
-6 14 18 4.3003 0.2403
-6 14 19 -3.2968 0.1210
-6 14 20 4.1362 -0.1343
-6 14 21 1.2625 0.0778
-6 14 22 2.8133 0.0275
-6 14 23 -3.0550 -0.0906
-6 14 24 -3.5605 0.2825
-6 14 25 -12.4853 -0.0752
-6 14 26 -7.0060 -0.2574
-6 14 27 9.7074 0.2678
-6 14 28 1.3010 0.0957
-6 14 29 2.0187 -0.0496
-6 14 30 -9.6569 -0.1427
-6 16 1 2.0633 -0.4513
-6 16 2 -2.6165 -0.2006
-6 16 3 7.8575 0.4984
-6 16 4 9.5977 0.1176
-6 16 5 -3.9064 -0.3617
-6 16 6 -4.6646 -0.1614
-6 16 7 8.4570 0.4742
-6 16 8 2.1702 -0.0496
-6 16 9 2.6816 -0.3521
-6 16 10 4.9428 0.0659
-6 16 11 3.5745 0.2792
-6 16 12 4.4933 -0.1918
-6 16 13 -3.4616 -0.1294
-6 16 14 -2.2806 0.0840
-6 16 15 -13.0384 0.1969
-6 16 16 -13.0476 -0.0334
-6 16 17 2.4942 -0.2614
-6 16 18 -3.1121 0.0898
-6 16 19 -6.1823 0.4032
-6 16 20 5.1961 0.1621
-6 16 21 18.7831 -0.2025
-6 16 22 -8.5782 -0.1339
-6 16 23 1.7732 0.0095
-6 16 24 -0.9396 0.2234
-6 16 25 8.4216 0.2271
-6 16 26 -0.8363 0.0431
-6 16 27 -5.5784 -0.1246
-6 18 1 2.6966 0.1306
-6 18 2 -4.4336 0.4539
-6 18 3 6.4473 -0.2568
-6 18 4 5.9331 -0.5094
-6 18 5 -0.9476 0.0722
-6 18 6 1.6648 0.5479
-6 18 7 3.8355 -0.3200
-6 18 8 2.2621 -0.4733
-6 18 9 -2.9195 0.3123
-6 18 10 1.5705 0.3364
-6 18 11 3.9473 -0.2973
-6 18 12 3.7515 -0.2229
-6 18 13 -5.0378 0.2576
-6 18 14 8.1101 0.1271
-6 18 15 0.8690 -0.1395
-6 18 16 -9.2413 0.2106
-6 18 17 1.2401 0.3115
-6 18 18 3.5671 0.0198
-6 18 19 -2.9574 -0.3910
-6 18 20 -0.7500 -0.3863
-6 18 21 2.7081 0.2574
-6 18 22 0.6780 0.7193
-6 18 23 5.9220 -0.0458
-6 20 1 2.8743 0.2376
-6 20 2 1.2711 -0.3265
-6 20 3 -10.3261 -0.2199
-6 20 4 1.0907 0.2836
-6 20 5 -2.0588 0.1714
-6 20 6 3.9182 -0.1289
-6 20 7 2.3186 0.3616
-6 20 8 6.2117 -0.0777
-6 20 9 -6.2246 -0.5390
-6 20 10 -4.1887 0.2425
-6 20 11 -2.6096 0.1643
-6 20 12 9.6546 -0.1411
-6 20 13 3.3917 -0.1070
-6 20 14 -8.5687 0.5049
-6 20 15 9.0933 0.4296
-6 20 16 2.2384 -0.1318
-6 20 17 -5.7176 -0.3318
-6 20 18 4.7931 0.5060
-6 22 1 -1.8365 -1.5434
-6 22 2 8.2559 -0.9580
-6 22 3 -6.4104 1.1608
-6 22 4 -4.6527 0.6645
-6 22 5 6.7540 -1.2574
-6 22 6 -5.6595 -0.4793
-6 22 7 -3.2898 0.7641
-6 22 8 3.8180 0.8020
-6 22 9 -2.2810 -0.6936
-5 1 1 -154.4629 -4.5837
-5 1 2 95.8370 9.0308
-5 1 3 34.7363 2.0893
-5 1 4 -12.4832 -0.2206
-5 1 5 -86.0311 -0.2845
-5 1 6 47.2990 1.7081
-5 1 7 21.4712 0.5183
-5 1 8 -45.1551 -0.2625
-5 1 9 -57.5205 -2.1052
-5 1 10 -13.5008 3.3302
-5 1 11 56.7958 -0.0750
-5 1 12 12.7664 -5.0407
-5 1 13 -36.2042 0.9485
-5 1 14 17.2665 5.2203
-5 1 15 16.3838 -0.9996
-5 1 16 4.2393 -3.8735
-5 1 17 -23.4855 -0.9073
-5 1 18 12.8757 1.6308
-5 1 19 13.3813 1.4299
-5 1 20 -13.4057 -0.5658
-5 1 21 -4.0227 -1.4078
-5 1 22 -20.9524 0.0573
-5 1 23 11.0482 0.1199
-5 1 24 -1.5961 -0.1230
-5 1 25 -2.9542 0.3466
-5 1 26 4.0723 0.2108
-5 1 27 1.3105 -0.2635
-5 1 28 1.1801 -0.2718
-5 1 29 4.4613 -0.1128
-5 1 30 17.5396 0.0962
-5 1 31 -7.9574 0.3868
-5 1 32 -13.4014 -0.1098
-5 1 33 -3.2105 -0.1857
-5 1 34 28.5309 0.0681
-5 1 35 -9.3716 0.2588
-5 1 36 -12.2756 -0.5083
-5 1 37 -1.0987 0.0448
-5 3 1 -64.3116 3.1125
-5 3 3 -90.0922 1.0642
-5 3 4 72.7002 1.3623
-5 3 5 -84.6489 -0.5283
-5 3 6 -76.1321 -1.1266
-5 3 7 15.6255 0.5646
-5 3 8 5.0393 1.0811
-5 3 9 -26.9583 -0.4325
-5 3 10 -52.6914 -2.1160
-5 3 11 -7.4463 0.3270
-5 3 12 26.7641 2.0698
-5 3 13 22.5566 0.6844
-5 3 14 -7.6115 -2.3648
-5 3 15 -29.0115 -1.8791
-5 3 16 5.4205 1.4122
-5 3 17 26.6464 1.3608
-5 3 18 7.6261 -0.8593
-5 3 19 -14.1049 -1.3847
-5 3 20 -7.6117 0.5550
-5 3 21 18.4112 1.0550
-5 3 22 14.0361 -0.1388
-5 3 23 6.9029 -1.6501
-5 3 24 7.1081 0.2661
-5 3 25 -2.6237 1.6716
-5 3 26 -4.4104 0.3745
-5 3 27 3.9852 -1.4606
-5 3 28 16.2615 0.0613
-5 3 29 -5.1227 0.8059
-5 3 30 -8.3288 -0.2384
-5 3 31 0.7220 -0.2193
-5 3 32 -15.5490 0.6590
-5 3 33 -10.5846 0.0176
-5 3 34 2.3370 -0.7978
-5 3 35 -3.2589 -0.0875
-5 3 36 -13.4736 0.4500
-5 3 37 1.8953 -0.0733
-5 5 1 0.8758 -0.4935
-5 5 2 -17.9032 0.1917
-5 5 3 7.5915 -0.0278
-5 5 4 -22.0063 0.3498
-5 5 5 -10.2200 0.8442
-5 5 6 -6.4177 -0.6380
-5 5 7 7.0801 -1.0083
-5 5 8 -5.0110 0.3543
-5 5 9 -6.3539 1.0001
-5 5 10 7.1605 0.0950
-5 5 11 18.5209 0.9024
-5 5 12 3.5706 -0.6736
-5 5 13 -28.5525 -2.0793
-5 5 14 0.3981 -0.2280
-5 5 15 3.4712 2.0438
-5 5 16 14.9313 -0.0121
-5 5 17 -6.8946 -1.0800
-5 5 18 6.8027 -0.2203
-5 5 19 2.2744 0.7028
-5 5 20 15.9023 -0.2866
-5 5 21 -5.5678 -0.7045
-5 5 22 2.3516 0.5043
-5 5 23 1.0663 0.6493
-5 5 24 -0.8014 -0.3645
-5 5 25 -3.5426 -0.5820
-5 5 26 6.3346 -0.0491
-5 5 27 -5.0645 0.3362
-5 5 28 -0.1783 0.1721
-5 5 29 12.6564 -0.1672
-5 5 30 0.4188 0.0441
-5 5 31 -3.0960 0.0752
-5 5 32 -1.9679 -0.4446
-5 5 33 7.0542 0.0885
-5 5 34 -18.9672 0.3502
-5 5 35 -15.5969 -0.2382
-5 5 36 1.9422 -0.1308
-5 5 37 0.7557 0.0715
-5 7 1 23.2170 0.0536
-5 7 2 36.0966 -1.1850
-5 7 3 -8.6715 0.3761
-5 7 4 23.1254 1.4166
-5 7 5 14.3654 -1.2483
-5 7 6 1.4951 -1.9597
-5 7 7 -1.9728 1.0263
-5 7 8 17.9037 1.4247
-5 7 9 17.1608 -0.7694
-5 7 10 4.7797 -1.1884
-5 7 11 -8.2720 -0.3371
-5 7 12 -1.8781 1.1128
-5 7 13 8.8242 -0.0592
-5 7 14 15.0940 -1.4069
-5 7 15 -12.1573 0.0776
-5 7 16 -14.2123 1.2277
-5 7 17 18.3187 -0.3645
-5 7 18 2.5660 -0.8284
-5 7 19 -8.3749 0.2041
-5 7 20 -12.3909 0.1946
-5 7 21 13.3260 -0.1906
-5 7 22 11.0203 0.2483
-5 7 23 5.6284 0.5769
-5 7 24 -7.8025 -0.0856
-5 7 25 3.8616 -0.4989
-5 7 26 6.3749 -0.0229
-5 7 27 -5.0734 0.6343
-5 7 28 -6.3374 0.2217
-5 7 29 -1.6561 0.0154
-5 7 30 0.8836 -0.3261
-5 7 31 -4.3379 -0.1880
-5 7 32 0.5952 0.2881
-5 7 33 0.9980 0.1587
-5 7 34 0.9475 -0.0572
-5 7 35 -13.8980 0.0189
-5 7 36 5.0471 0.0686
-5 9 1 -22.5168 0.8385
-5 9 2 -18.1634 0.8385
-5 9 3 17.9391 -0.4318
-5 9 4 2.4336 -0.9594
-5 9 5 -10.0980 0.8346
-5 9 6 6.3487 1.1475
-5 9 7 17.1078 -0.7653
-5 9 8 -18.7346 -1.3578
-5 9 9 4.1496 0.2050
-5 9 10 12.6012 1.1286
-5 9 11 -0.2886 -0.4558
-5 9 12 -3.2771 -1.3699
-5 9 13 -0.5418 0.3023
-5 9 14 0.9955 1.1057
-5 9 15 -4.3641 -0.2784
-5 9 16 1.1893 -0.7145
-5 9 17 -3.3194 0.1903
-5 9 18 -5.0399 0.4763
-5 9 19 -6.1365 -0.1111
-5 9 20 7.1651 -0.0786
-5 9 21 -0.7975 -0.1777
-5 9 22 -6.9652 0.0631
-5 9 23 2.2067 0.5204
-5 9 24 8.4231 0.0470
-5 9 25 7.4309 -0.4418
-5 9 26 12.0966 0.0866
-5 9 27 -7.5636 0.4583
-5 9 28 2.0090 -0.1304
-5 9 29 1.6521 -0.2236
-5 9 30 -0.9086 0.4220
-5 9 31 4.1167 0.0926
-5 9 32 -2.2436 -0.6411
-5 9 33 2.0734 0.1056
-5 9 34 0.2395 0.2610
-5 11 1 10.1473 -0.0698
-5 11 2 -5.7597 0.0323
-5 11 3 -16.7127 -0.1157
-5 11 4 -6.8516 0.0794
-5 11 5 9.3958 -0.3832
-5 11 6 15.6279 -0.0322
-5 11 7 -17.8569 -0.0881
-5 11 8 -15.6169 0.1139
-5 11 9 -2.1655 0.3237
-5 11 10 18.5857 -0.0830
-5 11 11 -1.4903 -0.7056
-5 11 12 0.7505 0.2876
-5 11 13 -0.8690 0.6694
-5 11 14 7.8939 -0.2265
-5 11 15 6.3486 -0.4943
-5 11 16 -0.9017 0.2726
-5 11 17 -0.8231 0.3843
-5 11 18 -4.4962 -0.2525
-5 11 19 7.6788 -0.2627
-5 11 20 6.0386 0.1826
-5 11 21 -2.4758 0.5738
-5 11 22 4.6012 -0.0469
-5 11 23 -4.0124 -0.4736
-5 11 24 -0.0155 0.4157
-5 11 25 -0.6875 0.3209
-5 11 26 19.7058 -0.2879
-5 11 27 1.0655 -0.2274
-5 11 28 9.2892 0.1038
-5 11 29 -1.5184 -0.0050
-5 11 30 5.1093 0.1071
-5 11 31 -1.3557 -0.1292
-5 11 32 0.1722 -0.2353
-5 11 33 -7.6879 -0.2488
-5 13 1 -1.9620 0.5339
-5 13 2 6.6482 -0.0634
-5 13 3 2.4349 -0.4951
-5 13 4 9.1650 -0.1984
-5 13 5 -3.1349 0.6602
-5 13 6 -6.7510 -0.0695
-5 13 7 -1.9299 -0.5014
-5 13 8 15.8324 -0.0352
-5 13 9 -5.0453 0.4167
-5 13 10 -8.0604 -0.2359
-5 13 11 4.6696 -0.3248
-5 13 12 9.6856 -0.0816
-5 13 13 -3.6610 0.1113
-5 13 14 -11.8455 0.0641
-5 13 15 5.2850 -0.1662
-5 13 16 5.7285 -0.0395
-5 13 17 -15.2963 0.3375
-5 13 18 -1.6603 -0.1163
-5 13 19 7.6137 -0.2953
-5 13 20 9.7429 0.2930
-5 13 21 -13.7291 0.4875
-5 13 22 3.9013 0.0093
-5 13 23 6.5855 -0.3369
-5 13 24 -11.2802 0.0150
-5 13 25 -7.2428 0.2054
-5 13 26 -2.5982 -0.3435
-5 13 27 -1.7541 -0.2296
-5 13 28 1.2724 0.3353
-5 13 29 8.9810 0.6176
-5 13 30 -8.4684 -0.2740
-5 13 31 2.3496 -0.6432
-5 15 1 2.3925 -0.1740
-5 15 2 1.9863 -0.1454
-5 15 3 7.5020 0.2854
-5 15 4 -4.2231 0.1610
-5 15 5 0.4085 -0.4821
-5 15 6 4.8788 -0.3104
-5 15 7 0.9260 0.3728
-5 15 8 4.1325 0.0277
-5 15 9 7.7576 -0.4730
-5 15 10 7.5714 0.0652
-5 15 11 -1.1284 0.4842
-5 15 12 1.0692 -0.1194
-5 15 13 -0.2529 -0.3967
-5 15 14 11.3198 0.1065
-5 15 15 -12.5065 0.4315
-5 15 16 -10.1411 -0.2285
-5 15 17 5.4282 -0.4762
-5 15 18 -3.3449 0.1594
-5 15 19 -8.4921 0.3860
-5 15 20 6.1530 -0.1314
-5 15 21 12.0251 -0.3217
-5 15 22 -2.2392 0.0738
-5 15 23 -0.5735 0.3152
-5 15 24 3.1188 0.0476
-5 15 25 6.5030 -0.2621
-5 15 26 -12.1235 0.0488
-5 15 27 -7.2543 0.1678
-5 15 28 0.6618 0.1133
-5 17 1 3.8565 -0.2169
-5 17 2 5.9046 -0.0027
-5 17 3 -0.7309 0.2088
-5 17 4 6.3696 -0.1236
-5 17 5 10.2121 -0.1041
-5 17 6 -0.0327 0.2205
-5 17 7 -3.0927 0.2265
-5 17 8 3.0740 -0.2018
-5 17 9 10.0285 0.0191
-5 17 10 4.4745 0.2572
-5 17 11 -11.7093 0.1307
-5 17 12 -1.5905 -0.1139
-5 17 13 6.3070 -0.1625
-5 17 14 -0.1494 0.1993
-5 17 15 -16.5133 0.2097
-5 17 16 -1.7166 -0.1166
-5 17 17 -3.1701 0.2120
-5 17 18 -9.0942 0.1289
-5 17 19 -4.3725 -0.2049
-5 17 20 1.3710 0.2719
-5 17 21 -3.9249 0.5732
-5 17 22 -1.0876 -0.4296
-5 17 23 20.5728 -0.3652
-5 17 24 -5.1290 0.0292
-5 17 25 0.0984 0.0893
-5 19 1 -1.5330 0.1807
-5 19 2 2.8111 0.5553
-5 19 3 -0.5297 -0.2858
-5 19 4 -1.3129 -0.3769
-5 19 5 -1.0763 0.1500
-5 19 6 18.5984 0.3112
-5 19 7 -1.5294 -0.3020
-5 19 8 2.7388 -0.3193
-5 19 9 -4.3697 0.2811
-5 19 10 10.3896 0.2350
-5 19 11 2.2381 -0.4619
-5 19 12 -6.4667 0.1572
-5 19 13 -5.9127 0.3038
-5 19 14 13.5355 0.3613
-5 19 15 13.2580 0.1027
-5 19 16 -12.5203 -0.2909
-5 19 17 -4.5408 -0.4432
-5 19 18 5.4404 0.5533
-5 19 19 -2.6917 0.0010
-5 19 20 -3.3638 -0.5121
-5 19 21 -6.6673 -1.0448
-5 21 1 -2.7436 -0.4373
-5 21 2 1.2278 -0.1581
-5 21 3 -0.8656 0.6949
-5 21 4 5.9805 -0.1385
-5 21 5 -8.6955 -0.2923
-5 21 6 -9.1628 -0.3351
-5 21 7 2.2626 0.3963
-5 21 8 3.8962 0.4996
-5 21 9 -0.6686 -0.5715
-5 21 10 -2.3651 -0.7991
-5 21 11 -9.7192 0.4440
-5 21 12 -3.8558 0.5117
-5 21 13 8.7937 -0.0916
-5 21 14 -4.1425 -0.8778
-4 0 2 -55.6213 10.7341
-4 0 4 65.3158 -5.6594
-4 0 6 -132.1463 13.1508
-4 0 8 21.4430 -20.0142
-4 0 10 -72.8688 24.0964
-4 0 12 8.2272 -22.8794
-4 0 14 -11.3687 14.5964
-4 0 16 31.3164 -7.8120
-4 0 18 -16.3350 3.7912
-4 0 20 -10.7112 -3.1415
-4 0 22 -3.5732 2.9899
-4 0 24 -39.7156 -2.7852
-4 0 26 22.1746 2.4288
-4 0 28 -0.4634 -2.3270
-4 0 30 -4.5172 1.9381
-4 0 32 27.3317 -1.6756
-4 0 34 2.4610 1.1957
-4 0 36 16.3169 -0.7186
-4 2 1 -126.3352 -2.0048
-4 2 2 -54.6231 -2.8790
-4 2 3 -52.0453 3.1675
-4 2 4 -56.1896 4.4058
-4 2 5 -65.0535 -3.0667
-4 2 6 72.5617 -5.4642
-4 2 7 -49.6898 -1.5579
-4 2 8 -128.5920 5.6488
-4 2 9 -4.6303 2.0457
-4 2 10 47.1983 -4.8058
-4 2 11 6.3655 -2.6788
-4 2 12 -54.4740 2.7252
-4 2 13 -3.9421 0.1051
-4 2 14 47.9953 -1.6334
-4 2 15 22.9888 0.9128
-4 2 16 -4.5576 1.1586
-4 2 17 -32.6344 -1.2895
-4 2 18 -2.3983 -0.7239
-4 2 19 28.5808 -0.6155
-4 2 20 3.1086 0.2644
-4 2 21 3.2969 1.5049
-4 2 22 -7.5437 0.6530
-4 2 23 1.6558 -1.3391
-4 2 24 -4.0629 -0.4674
-4 2 25 6.5872 0.8693
-4 2 26 11.7675 0.2351
-4 2 27 2.6816 -0.2478
-4 2 28 -1.7392 0.4965
-4 2 29 -11.6821 0.3565
-4 2 30 0.2242 -0.9370
-4 2 31 11.2207 -0.4706
-4 2 32 2.5836 0.8583
-4 2 33 -19.9018 0.6835
-4 2 34 -10.2349 -0.7595
-4 2 35 -2.3691 -0.2951
-4 2 36 15.3746 0.0338
-4 2 37 -4.8034 -0.2841
-4 4 1 -47.9585 4.5814
-4 4 2 -9.7519 -0.3722
-4 4 3 -79.2854 -2.3329
-4 4 5 -59.9820 2.1258
-4 4 6 -55.8430 0.1105
-4 4 7 0.5636 -0.6438
-4 4 8 25.8863 -1.3975
-4 4 9 2.1350 0.0388
-4 4 10 -78.0877 0.5341
-4 4 11 -5.2057 0.5823
-4 4 12 38.8192 -0.7379
-4 4 13 -6.5212 -0.4626
-4 4 14 -31.9340 0.1578
-4 4 15 3.8618 -0.5926
-4 4 16 9.5203 0.1028
-4 4 17 -1.2937 0.5441
-4 4 18 -7.4720 -0.5813
-4 4 19 5.5062 0.0263
-4 4 20 1.2168 1.1259
-4 4 21 10.9657 -0.4908
-4 4 22 1.0550 -0.6994
-4 4 23 -6.4354 0.1762
-4 4 24 -0.9278 0.3040
-4 4 25 6.7622 0.0127
-4 4 26 1.7847 0.3384
-4 4 27 6.7294 -0.3267
-4 4 28 9.7027 -0.7232
-4 4 29 7.7261 0.4195
-4 4 30 -4.9531 0.4948
-4 4 31 9.2117 -0.4557
-4 4 32 -7.3067 -0.3206
-4 4 33 -9.1614 0.2951
-4 4 34 -13.2823 -0.1094
-4 4 35 -0.8518 -0.2327
-4 4 36 -7.4844 0.0970
-4 4 37 -8.5256 -0.1067
-4 6 1 42.8846 -1.9887
-4 6 2 -39.6272 -0.7696
-4 6 3 3.7295 1.4459
-4 6 4 26.5519 0.5224
-4 6 5 32.3550 -1.1822
-4 6 6 -14.8443 -1.5417
-4 6 7 -26.8814 0.4785
-4 6 8 13.6704 1.1102
-4 6 9 48.0296 0.0779
-4 6 10 24.0930 -1.6698
-4 6 11 -11.7141 0.0177
-4 6 12 4.9928 1.9030
-4 6 13 3.1548 -0.6436
-4 6 14 23.0811 -2.2844
-4 6 15 -7.4027 1.1488
-4 6 16 -7.2335 0.9620
-4 6 17 -4.9451 -1.0856
-4 6 18 12.6139 0.3462
-4 6 19 2.4739 0.9845
-4 6 20 -1.3136 -0.4812
-4 6 21 1.2433 -0.7638
-4 6 22 -4.6125 0.0267
-4 6 23 -6.9815 0.8836
-4 6 24 9.5238 0.6477
-4 6 25 1.9975 -0.4752
-4 6 26 -10.9468 -0.5447
-4 6 27 -5.3454 0.4135
-4 6 28 3.8448 0.3119
-4 6 29 -4.4515 -0.1729
-4 6 30 -2.6519 0.0808
-4 6 31 5.8273 0.2848
-4 6 32 -4.8538 -0.0410
-4 6 33 -8.6760 -0.4267
-4 6 34 1.2711 0.1327
-4 6 35 -5.1019 0.3836
-4 6 36 -5.5121 0.1388
-4 8 1 7.7956 0.0826
-4 8 2 17.4149 0.4731
-4 8 3 -8.7258 -0.3444
-4 8 4 14.0857 -0.9919
-4 8 5 2.5337 0.1981
-4 8 6 1.4924 1.3905
-4 8 7 2.6014 -1.0331
-4 8 8 -1.7841 -1.0203
-4 8 9 4.6225 0.4128
-4 8 10 -0.9135 1.1100
-4 8 11 0.7662 -0.5631
-4 8 12 3.2942 -0.7689
-4 8 13 -4.1767 0.0508
-4 8 14 -4.4244 0.3350
-4 8 15 1.5473 0.0124
-4 8 16 -1.9347 0.0746
-4 8 17 -1.3961 0.2789
-4 8 18 -12.0270 -0.0963
-4 8 19 1.5611 -0.1294
-4 8 20 0.9818 0.2190
-4 8 21 -6.6154 0.1800
-4 8 22 -7.0119 -0.2289
-4 8 23 0.6476 0.2019
-4 8 24 7.7306 0.4090
-4 8 25 11.5774 0.0745
-4 8 26 -4.2145 -0.4185
-4 8 27 -0.9161 0.0212
-4 8 28 -0.0039 -0.1716
-4 8 29 -14.1497 -0.1027
-4 8 30 -8.8701 0.4030
-4 8 31 0.8236 0.0316
-4 8 32 1.8284 -0.5003
-4 8 33 0.8307 -0.3249
-4 8 34 -5.0571 -0.0696
-4 8 35 -6.8569 0.1252
-4 10 1 -17.0918 -0.1142
-4 10 2 27.9829 0.4309
-4 10 3 8.0931 0.3666
-4 10 4 -24.0098 -0.4506
-4 10 5 -2.9994 -0.3226
-4 10 6 12.1778 0.2983
-4 10 7 4.6398 0.0580
-4 10 8 -2.7891 -0.5761
-4 10 9 -16.8099 0.0914
-4 10 10 -5.6651 0.3974
-4 10 11 7.4692 -0.2437
-4 10 12 16.1445 -0.5945
-4 10 13 -2.6858 0.4262
-4 10 14 3.6919 0.7969
-4 10 15 -5.9457 -0.4095
-4 10 16 6.2372 -0.5126
-4 10 17 2.4270 0.5282
-4 10 18 -0.2478 0.7578
-4 10 19 -1.3240 -0.4129
-4 10 20 -1.9351 -0.4262
-4 10 21 1.5315 0.4422
-4 10 22 3.0542 0.4030
-4 10 23 -2.8937 -0.2457
-4 10 24 -6.0255 -0.1243
-4 10 25 -2.8198 -0.0370
-4 10 26 7.3549 0.2143
-4 10 27 7.3454 0.1046
-4 10 28 15.3023 -0.2015
-4 10 29 -11.2258 -0.2822
-4 10 30 -5.6663 0.0539
-4 10 31 2.6625 0.5117
-4 10 32 -3.1330 0.1749
-4 10 33 7.5166 -0.2962
-4 10 34 1.2189 -0.4287
-4 12 1 1.8603 0.5753
-4 12 2 2.4066 -0.3593
-4 12 3 5.3987 -0.6809
-4 12 4 1.3846 0.4097
-4 12 5 -13.0439 0.5127
-4 12 6 17.9197 -0.3779
-4 12 7 3.5222 -0.4412
-4 12 8 -0.9466 0.2341
-4 12 9 -12.5241 0.2076
-4 12 10 10.1677 -0.2293
-4 12 11 -2.1656 0.0400
-4 12 12 3.1947 0.1744
-4 12 13 3.6262 0.0810
-4 12 14 -2.3802 -0.2659
-4 12 15 -3.6328 -0.0698
-4 12 16 0.2255 0.3355
-4 12 17 1.6197 0.6397
-4 12 18 -10.1323 -0.5360
-4 12 19 -5.9538 -0.4105
-4 12 20 10.0025 0.5262
-4 12 21 -1.0533 0.4657
-4 12 22 0.7679 -0.3335
-4 12 23 -4.8300 -0.4700
-4 12 24 -6.9612 0.2559
-4 12 25 -6.5494 0.5418
-4 12 26 -8.6973 -0.2622
-4 12 27 -1.5535 -0.4334
-4 12 28 10.3346 0.1884
-4 12 29 6.7406 0.2700
-4 12 30 -4.0413 -0.1065
-4 12 31 -7.0624 -0.5835
-4 12 32 -0.9961 0.2575
-4 14 1 -0.8391 0.1476
-4 14 2 -1.6086 -0.2605
-4 14 3 3.9048 0.0717
-4 14 4 1.7206 -0.0717
-4 14 5 -2.4769 -0.1965
-4 14 6 2.2615 -0.1398
-4 14 7 -2.3249 0.2394
-4 14 8 -2.7234 -0.0884
-4 14 9 4.0020 -0.1421
-4 14 10 3.4405 0.2380
-4 14 11 3.8856 0.0813
-4 14 12 1.3233 -0.0802
-4 14 13 -0.5502 -0.1386
-4 14 14 1.4856 0.0900
-4 14 15 0.7551 0.2089
-4 14 16 -5.7211 -0.1571
-4 14 17 -0.8335 -0.2955
-4 14 18 5.0581 0.4419
-4 14 19 -3.2296 0.2448
-4 14 20 -7.1688 -0.4208
-4 14 21 11.6335 -0.2415
-4 14 22 1.2625 0.6180
-4 14 23 -0.2524 0.2915
-4 14 24 4.8553 -0.4404
-4 14 25 2.7150 -0.2548
-4 14 26 -14.5067 0.1323
-4 14 27 -6.0944 0.0270
-4 14 28 -0.3884 -0.2645
-4 14 29 -0.5758 0.2093
-4 14 30 -4.8063 0.0587
-4 16 1 8.4980 -0.4483
-4 16 2 10.8892 -0.0493
-4 16 3 -4.5481 0.4274
-4 16 4 -0.7170 -0.0539
-4 16 5 6.7989 -0.4378
-4 16 6 11.4193 0.1059
-4 16 7 5.2376 0.4723
-4 16 8 -3.6187 0.0560
-4 16 9 4.8130 -0.3460
-4 16 10 0.8514 -0.2888
-4 16 11 -1.3366 0.3350
-4 16 12 7.3476 0.3402
-4 16 13 -7.6384 -0.3035
-4 16 14 -11.8454 -0.3186
-4 16 15 7.5158 0.1521
-4 16 16 -2.3406 0.4161
-4 16 17 -17.7339 -0.1887
-4 16 18 -7.2175 -0.2302
-4 16 19 1.8691 0.2736
-4 16 20 -6.8414 0.2532
-4 16 21 -7.0708 -0.1031
-4 16 22 12.0372 -0.3464
-4 16 23 7.4958 -0.0090
-4 16 24 -13.3681 -0.0374
-4 16 25 10.8178 -0.1283
-4 16 26 4.8577 -0.0316
-4 16 27 0.1761 -0.1154
-4 18 1 4.9787 0.3780
-4 18 2 -11.1288 0.0844
-4 18 3 -2.2598 -0.3873
-4 18 4 11.0632 -0.1863
-4 18 5 7.6754 0.0931
-4 18 6 7.8598 0.1757
-4 18 7 1.2081 -0.0430
-4 18 8 3.9183 -0.2349
-4 18 9 -2.7855 -0.1107
-4 18 10 0.6653 0.5024
-4 18 11 0.6434 0.1309
-4 18 12 5.4374 -0.3795
-4 18 13 -1.6411 0.0678
-4 18 14 -8.4044 0.5535
-4 18 15 3.3289 -0.1187
-4 18 16 8.1937 -0.5252
-4 18 17 -4.5430 0.2528
-4 18 18 -7.3652 0.1240
-4 18 19 -9.8678 -0.1965
-4 18 20 3.6259 -0.2361
-4 18 21 -3.7856 -0.4170
-4 18 22 -2.4499 0.1709
-4 18 23 -0.2033 0.5776
-4 20 1 1.7084 0.2643
-4 20 2 -0.0260 0.2625
-4 20 3 -4.4307 -0.1465
-4 20 4 -1.9657 0.0640
-4 20 5 -11.4024 0.3776
-4 20 6 12.5404 -0.4303
-4 20 7 -1.7584 -0.1000
-4 20 8 -2.4021 0.4968
-4 20 9 -4.9260 0.0771
-4 20 10 4.5187 -0.2986
-4 20 11 -7.4015 -0.1998
-4 20 12 -6.3003 0.2281
-4 20 13 -2.6930 0.2125
-4 20 14 -0.5232 0.2842
-4 20 15 3.5025 0.5850
-4 20 16 -3.3521 -0.2116
-4 20 17 3.3240 -0.2445
-4 20 18 -5.1298 0.2244
-4 22 1 0.9222 -0.8538
-4 22 2 5.4119 -0.7819
-4 22 3 2.9172 1.1505
-4 22 4 0.6818 0.7785
-4 22 5 -5.6713 -0.8605
-4 22 6 -13.2167 -1.0368
-4 22 7 5.6548 0.8130
-4 22 8 5.4129 0.2994
-4 22 9 -2.4597 -0.4605
-3 1 2 -36.0047 -5.3469
-3 1 3 27.7798 3.7884
-3 1 4 -26.3136 1.4467
-3 1 5 -2.2269 -3.2057
-3 1 6 -60.3651 0.2638
-3 1 7 5.7904 -1.2008
-3 1 8 -50.3474 -2.2115
-3 1 9 -25.8773 -0.6462
-3 1 10 -30.1985 0.2541
-3 1 11 25.8938 1.2480
-3 1 12 2.1081 -0.5321
-3 1 13 9.5801 -1.6510
-3 1 14 -11.9390 0.7219
-3 1 15 1.8169 0.1327
-3 1 16 25.5377 -2.7177
-3 1 17 10.5393 1.1604
-3 1 18 -8.9323 4.1084
-3 1 19 -10.1268 -0.6798
-3 1 20 1.5228 -3.6642
-3 1 21 21.7572 -0.3664
-3 1 22 -7.6207 2.1895
-3 1 23 1.2217 1.4604
-3 1 24 -5.6809 -0.5570
-3 1 25 -2.4735 -0.9498
-3 1 26 -0.4464 -0.1059
-3 1 27 -2.7714 0.3724
-3 1 28 3.2659 -0.2700
-3 1 29 7.8870 0.2349
-3 1 30 -1.2775 0.3966
-3 1 31 -20.1596 -0.2919
-3 1 32 8.2331 -0.3161
-3 1 33 11.9868 0.1105
-3 1 34 13.1756 -0.1145
-3 1 35 -6.0525 0.1940
-3 1 36 6.8456 0.2259
-3 1 37 -1.0373 -0.5159
-3 3 1 -126.6161 7.0514
-3 3 2 -70.5119 1.1107
-3 3 3 13.3986 -6.0228
-3 3 4 -8.4861 -0.4716
-3 3 5 -138.1430 4.8653
-3 3 6 -64.6864 -2.5423
-3 3 7 -17.1738 -4.1955
-3 3 8 -6.4521 2.3657
-3 3 9 7.9435 2.4552
-3 3 10 -12.7891 -2.3623
-3 3 11 -10.1673 -1.4638
-3 3 12 -33.0355 1.0530
-3 3 13 15.6117 0.3971
-3 3 14 8.3457 -0.6996
-3 3 15 -13.4556 -0.6874
-3 3 16 -7.5741 2.0207
-3 3 17 21.4320 0.6024
-3 3 18 -13.6238 -1.9753
-3 3 19 -6.5034 -0.6582
-3 3 20 -7.4269 1.5933
-3 3 21 9.8122 0.5951
-3 3 22 -9.0400 -0.4547
-3 3 23 8.7084 -0.3391
-3 3 24 12.9489 0.0735
-3 3 25 -6.7025 0.6353
-3 3 26 -4.4974 -0.1577
-3 3 27 7.0676 -0.8521
-3 3 28 9.7508 -0.0894
-3 3 29 9.0488 0.9515
-3 3 30 -5.6271 0.0915
-3 3 31 4.6628 -0.6995
-3 3 32 0.7344 -0.4562
-3 3 33 2.1361 0.3791
-3 3 34 -16.1727 0.2827
-3 3 35 -12.0830 -0.2346
-3 3 36 4.3517 -0.0814
-3 3 37 2.8688 0.0390
-3 5 1 34.8064 -0.4652
-3 5 2 -52.5747 -0.8804
-3 5 3 -1.4678 0.8513
-3 5 4 -18.7712 0.2892
-3 5 5 -50.3369 -1.6798
-3 5 6 -34.3601 -0.4528
-3 5 7 45.2973 1.1411
-3 5 8 -13.1547 -0.0422
-3 5 9 -0.0004 -0.3553
-3 5 10 32.3449 -0.3389
-3 5 11 31.4137 -0.7253
-3 5 12 -9.0001 0.4377
-3 5 13 -3.5084 0.0465
-3 5 14 5.5795 -0.3672
-3 5 15 0.1832 0.5076
-3 5 16 4.4796 0.0862
-3 5 17 3.9377 -0.6321
-3 5 18 -9.9299 0.0208
-3 5 19 8.8438 0.5335
-3 5 20 0.0204 0.5221
-3 5 21 -5.2468 -0.5157
-3 5 22 -5.5616 -0.3848
-3 5 23 3.1646 0.5739
-3 5 24 -9.4041 0.2148
-3 5 25 -0.0226 -0.5005
-3 5 26 -0.2469 -0.0416
-3 5 27 4.8037 0.5876
-3 5 28 -1.3185 0.0304
-3 5 29 11.3781 -0.5309
-3 5 30 2.9741 -0.0319
-3 5 31 11.1046 0.4399
-3 5 32 -0.5348 0.0209
-3 5 33 -6.5945 -0.3909
-3 5 34 -5.4913 0.0839
-3 5 35 -0.8168 0.1947
-3 5 36 -4.2636 0.0556
-3 7 1 49.4262 -0.9000
-3 7 2 -14.0942 0.3459
-3 7 3 -7.1103 0.3827
-3 7 4 19.9663 -0.8936
-3 7 5 17.4147 -0.4297
-3 7 6 -1.2218 0.1676
-3 7 7 -12.5779 0.3538
-3 7 8 13.7871 0.1243
-3 7 9 20.4161 -0.6102
-3 7 10 -4.7568 0.1460
-3 7 11 0.7340 0.9140
-3 7 12 25.3094 -0.2955
-3 7 13 -4.7730 -0.3799
-3 7 14 -7.8875 0.1316
-3 7 15 -4.9007 0.2476
-3 7 16 9.6223 0.4694
-3 7 17 -7.4245 0.0677
-3 7 18 -15.9594 -0.6325
-3 7 19 1.9506 0.4384
-3 7 20 -1.5123 1.1426
-3 7 21 -11.8173 -0.3869
-3 7 22 -6.5530 -1.1231
-3 7 23 -1.6690 0.5832
-3 7 24 5.1963 0.7922
-3 7 25 -1.1166 -0.3133
-3 7 26 -3.4913 -0.2748
-3 7 27 2.6901 0.0002
-3 7 28 -10.4697 -0.2356
-3 7 29 -17.7279 -0.0384
-3 7 30 -3.3564 0.2253
-3 7 31 -0.3806 -0.1760
-3 7 32 -7.8786 0.1354
-3 7 33 -12.2462 -0.1875
-3 7 34 0.8880 -0.3730
-3 7 35 0.2883 0.3775
-3 9 1 -0.6465 -0.4325
-3 9 2 -10.8108 0.8348
-3 9 3 -7.0806 0.0616
-3 9 4 34.8964 -1.0466
-3 9 5 15.0530 -0.3994
-3 9 6 -11.3444 1.3429
-3 9 7 -8.3435 -0.3193
-3 9 8 -0.9349 -1.2335
-3 9 9 -3.1439 0.3950
-3 9 10 -11.3049 1.2256
-3 9 11 -1.0171 -0.6454
-3 9 12 4.6664 -1.2117
-3 9 13 -7.8462 0.6935
-3 9 14 1.9230 1.0871
-3 9 15 8.3454 -0.4530
-3 9 16 -5.5590 -1.1226
-3 9 17 -3.9807 0.5358
-3 9 18 -0.0256 1.3676
-3 9 19 -0.8528 -0.4501
-3 9 20 5.5798 -1.1637
-3 9 21 3.2100 0.6804
-3 9 22 -8.4884 0.9218
-3 9 23 -6.2166 -0.5579
-3 9 24 -1.6891 -0.5733
-3 9 25 12.5695 0.3554
-3 9 26 -0.3118 0.0775
-3 9 27 2.5257 -0.0256
-3 9 28 0.8911 0.1352
-3 9 29 -10.5588 -0.3651
-3 9 30 -2.2824 -0.2818
-3 9 31 2.0424 0.5660
-3 9 32 -3.3312 0.0814
-3 9 33 4.1620 -0.3670
-3 9 34 -0.6111 -0.1434
-3 11 1 -5.1606 0.2397
-3 11 2 2.0320 -0.0217
-3 11 3 6.7766 -0.2260
-3 11 4 0.7224 -0.0916
-3 11 5 -4.8986 0.2936
-3 11 6 4.5838 -0.2163
-3 11 7 -1.6411 0.0288
-3 11 8 6.4885 0.2326
-3 11 9 -2.9486 -0.0612
-3 11 10 -5.1231 -0.4376
-3 11 11 -18.7928 0.3554
-3 11 12 11.2420 0.6965
-3 11 13 17.8239 -0.1986
-3 11 14 9.7132 -0.3128
-3 11 15 -18.8552 0.4673
-3 11 16 -6.8339 0.4260
-3 11 17 15.4141 -0.1391
-3 11 18 2.4883 -0.3119
-3 11 19 -10.1811 0.0808
-3 11 20 3.1504 0.1971
-3 11 21 8.4663 0.1159
-3 11 22 -3.1213 -0.0035
-3 11 23 -5.9985 -0.5551
-3 11 24 -2.0268 0.0240
-3 11 25 -1.6932 0.5101
-3 11 26 -2.3346 -0.1052
-3 11 27 -5.6583 -0.5049
-3 11 28 1.9104 0.0734
-3 11 29 10.7538 0.3850
-3 11 30 -0.3989 -0.1251
-3 11 31 -7.9704 -0.5933
-3 11 32 -7.8958 0.2171
-3 11 33 3.7779 0.3642
-3 13 1 8.5255 0.7810
-3 13 2 -3.7384 -0.8023
-3 13 3 -8.1651 -0.4218
-3 13 4 10.2573 0.6628
-3 13 5 0.8493 0.1375
-3 13 6 1.1700 -0.3400
-3 13 7 -7.1567 0.1047
-3 13 8 9.4755 0.2023
-3 13 9 -8.8961 0.1219
-3 13 10 -3.3103 -0.0042
-3 13 11 10.1351 -0.0478
-3 13 12 -3.9064 -0.0018
-3 13 13 -10.8442 0.1937
-3 13 14 2.2566 0.0533
-3 13 15 9.4633 -0.0683
-3 13 16 -3.9008 -0.0811
-3 13 17 -10.9947 0.2497
-3 13 18 -8.7424 0.2197
-3 13 19 0.6443 -0.1308
-3 13 20 8.7677 -0.1070
-3 13 21 -3.0497 0.1122
-3 13 22 -1.3922 0.1104
-3 13 23 12.1232 0.0194
-3 13 24 -3.7134 -0.1864
-3 13 25 -4.7452 -0.1283
-3 13 26 -7.8168 -0.0202
-3 13 27 3.2377 0.0641
-3 13 28 -9.5298 -0.1383
-3 13 29 -5.8059 0.1399
-3 13 30 3.2633 0.3297
-3 13 31 1.3626 -0.3914
-3 15 1 -7.8503 -0.7555
-3 15 2 -4.3201 0.0629
-3 15 3 3.5095 0.7754
-3 15 4 6.9681 -0.1911
-3 15 5 7.0275 -0.7343
-3 15 6 -10.8866 -0.0379
-3 15 7 -0.4834 0.3591
-3 15 8 2.3853 0.2841
-3 15 9 13.6051 -0.5932
-3 15 10 -3.2102 -0.3086
-3 15 11 -0.0926 0.5493
-3 15 12 -4.3830 0.3571
-3 15 13 6.6028 -0.5088
-3 15 14 0.1190 -0.2577
-3 15 15 -3.5095 0.3140
-3 15 16 -3.3412 0.2141
-3 15 17 11.5745 -0.2546
-3 15 18 -13.4267 0.0270
-3 15 19 1.3387 0.1075
-3 15 20 -1.1365 -0.1236
-3 15 21 -4.7080 -0.2721
-3 15 22 -4.9892 0.0201
-3 15 23 12.9409 0.2855
-3 15 24 5.0601 -0.1356
-3 15 25 2.5858 -0.3941
-3 15 26 1.3237 0.1931
-3 15 27 0.4672 0.1735
-3 15 28 -5.2611 -0.2395
-3 17 1 -0.5887 -0.2084
-3 17 2 3.3585 -0.0402
-3 17 3 -1.7277 0.1363
-3 17 4 9.5136 -0.1030
-3 17 5 -2.6395 -0.0856
-3 17 6 3.0020 0.2061
-3 17 7 6.2663 0.0886
-3 17 8 3.5670 -0.0890
-3 17 9 -3.6756 0.3042
-3 17 10 -0.8243 0.1907
-3 17 11 -4.5859 -0.2058
-3 17 12 -2.2462 0.0357
-3 17 13 2.1916 0.0261
-3 17 14 -2.8408 -0.0982
-3 17 15 4.0489 0.1604
-3 17 16 -7.7040 0.2107
-3 17 17 -6.8500 -0.1939
-3 17 18 2.8685 -0.1682
-3 17 19 -13.0948 0.2548
-3 17 20 -2.0615 0.1365
-3 17 21 -8.8617 -0.0009
-3 17 22 8.6530 -0.1191
-3 17 23 -5.6725 0.0914
-3 17 24 -7.1802 -0.0034
-3 17 25 12.2966 -0.2304
-3 19 1 3.5057 0.4431
-3 19 2 4.9873 0.1003
-3 19 3 2.5495 -0.4241
-3 19 4 -9.7270 -0.0601
-3 19 5 0.3268 0.3603
-3 19 6 3.6084 0.0749
-3 19 7 4.4130 -0.4423
-3 19 8 9.8958 0.0173
-3 19 9 -11.8144 0.2696
-3 19 10 -13.6806 0.0459
-3 19 11 6.4703 -0.3205
-3 19 12 -0.6185 0.0146
-3 19 13 -2.2615 0.0116
-3 19 14 -2.6254 0.1092
-3 19 15 1.6958 0.2728
-3 19 16 -1.0667 -0.2954
-3 19 17 6.6481 -0.4647
-3 19 18 -4.0082 0.0157
-3 19 19 -8.6346 -0.1555
-3 19 20 3.1368 -0.4244
-3 21 1 1.7139 0.1735
-3 21 2 0.9558 -0.4897
-3 21 3 -2.2154 0.0573
-3 21 4 0.2857 0.3407
-3 21 5 0.7856 -0.0100
-3 21 6 -1.8132 -0.3870
-3 21 7 -16.3276 0.3671
-3 21 8 -7.1834 0.1094
-3 21 9 7.6641 -0.5555
-3 21 10 3.0366 -0.1179
-3 21 11 -11.6735 0.8605
-3 21 12 -9.3616 0.0893
-3 21 13 -3.0171 -0.0464
-3 21 14 1.3378 -0.7321
-2 0 2 122.0070 -10.1843
-2 0 4 54.4220 -3.6561
-2 0 6 -143.8630 -0.0440
-2 0 8 14.4466 -3.4341
-2 0 10 -48.8863 4.0602
-2 0 12 8.1220 -11.5346
-2 0 14 27.4914 14.9572
-2 0 16 -37.6810 -14.6234
-2 0 18 50.2410 10.7753
-2 0 20 -22.6763 -6.6953
-2 0 22 9.0624 4.1505
-2 0 24 6.0340 -3.3461
-2 0 26 -12.2454 2.6016
-2 0 28 -7.3690 -1.8712
-2 0 30 5.6987 1.1851
-2 0 32 -1.4240 -0.7615
-2 0 34 26.4624 0.7645
-2 0 36 8.2178 -0.7201
-2 2 1 183.1868 2.4418
-2 2 4 -179.0936 -3.9909
-2 2 5 94.6612 2.5500
-2 2 7 -45.7272 -1.3190
-2 2 9 1.9646 -0.9004
-2 2 11 20.6463 0.3078
-2 2 12 6.5160 3.3068
-2 2 13 10.5782 1.3111
-2 2 14 3.0514 -3.8270
-2 2 15 4.6705 -1.5423
-2 2 16 -3.8326 4.1090
-2 2 17 -4.1639 1.2202
-2 2 18 -2.7464 -2.7283
-2 2 19 7.3713 0.2261
-2 2 20 -0.9588 1.3433
-2 2 21 7.5244 -0.3122
-2 2 22 0.4856 -0.1224
-2 2 23 2.8050 0.3236
-2 2 24 9.7812 -0.6115
-2 2 25 3.2500 0.3540
-2 2 26 7.7969 0.4403
-2 2 27 -12.5575 -0.4018
-2 2 28 0.6842 -0.3417
-2 2 29 6.9382 0.0787
-2 2 30 5.7123 -0.0703
-2 2 31 -2.1047 -0.0935
-2 2 32 -4.7197 0.2432
-2 2 33 2.6360 0.1170
-2 2 34 0.4829 -0.2356
-2 2 35 10.0284 -0.4850
-2 2 36 -1.5669 0.1238
-2 2 37 -0.1903 0.4526
-2 4 2 0.0691 -1.6954
-2 4 3 -55.9756 -2.0004
-2 4 4 -29.0961 1.5306
-2 4 5 -35.4414 2.2456
-2 4 6 -43.6041 -1.9193
-2 4 7 -72.0031 -3.3014
-2 4 8 1.5837 -0.0168
-2 4 9 66.8465 3.5503
-2 4 10 11.2010 0.2184
-2 4 11 -20.2168 -2.9167
-2 4 12 -5.8929 0.1124
-2 4 13 42.4974 0.8489
-2 4 14 -0.6431 0.1487
-2 4 15 -19.4793 -0.4811
-2 4 16 -23.8350 0.0976
-2 4 17 25.9304 0.9580
-2 4 18 1.5176 0.2797
-2 4 19 12.6441 -1.3890
-2 4 20 -24.1660 -0.2171
-2 4 21 -5.4649 0.9846
-2 4 22 -5.0521 -0.1444
-2 4 23 5.9003 -0.1012
-2 4 24 -3.7575 0.3679
-2 4 25 1.2909 -0.4829
-2 4 26 1.3903 -0.7969
-2 4 27 3.6626 0.5957
-2 4 28 -7.4124 0.2854
-2 4 29 18.4117 -0.2289
-2 4 30 13.4252 -0.0256
-2 4 31 9.8142 -0.1698
-2 4 32 -14.9196 -0.2837
-2 4 33 10.8343 0.3939
-2 4 34 9.4710 0.5133
-2 4 35 -8.8454 -0.1715
-2 4 36 -6.6098 -0.2863
-2 6 1 10.2085 -1.8648
-2 6 2 11.7320 1.2026
-2 6 3 47.4185 1.4782
-2 6 4 -25.0693 -1.0236
-2 6 5 -4.7048 -2.1098
-2 6 6 0.0114 0.5468
-2 6 7 16.1329 1.8106
-2 6 8 -5.7226 0.2706
-2 6 9 11.2427 -2.2295
-2 6 10 24.9747 0.2284
-2 6 11 31.5230 1.9368
-2 6 12 -2.4493 -0.0564
-2 6 13 -8.8806 -1.3868
-2 6 14 12.1934 -0.3504
-2 6 15 0.1882 1.4925
-2 6 16 -10.0236 1.3856
-2 6 17 -6.0748 -0.7609
-2 6 18 2.1184 -1.0010
-2 6 19 -1.0082 0.3063
-2 6 20 -13.6644 1.0052
-2 6 21 -9.3206 -0.1470
-2 6 22 -2.1766 -0.7150
-2 6 23 -2.0025 0.4309
-2 6 24 -9.9722 0.5255
-2 6 25 -2.7449 -0.5734
-2 6 26 0.5740 -0.2585
-2 6 27 3.5028 0.3023
-2 6 28 -11.5365 0.3515
-2 6 29 -4.5307 -0.1576
-2 6 30 -0.3448 -0.2373
-2 6 31 5.6957 -0.0195
-2 6 32 -4.9671 0.4552
-2 6 33 -11.7141 -0.2295
-2 6 34 2.2835 -0.3171
-2 6 35 -0.9602 0.4277
-2 6 36 -5.7972 0.0351
-2 8 1 18.0522 -0.2820
-2 8 2 -6.5118 -1.0387
-2 8 3 8.3393 0.1128
-2 8 4 30.4920 0.4088
-2 8 5 -10.2443 -0.4847
-2 8 6 12.2980 0.3155
-2 8 7 19.5112 0.3437
-2 8 8 -0.6449 -0.9263
-2 8 9 -20.1039 0.3811
-2 8 10 -0.6447 1.6365
-2 8 11 14.7246 -0.3416
-2 8 12 6.4318 -1.5754
-2 8 13 -13.2021 0.6944
-2 8 14 1.7961 1.2381
-2 8 15 -4.3973 -0.5456
-2 8 16 -9.0102 -1.0079
-2 8 17 2.3588 0.6271
-2 8 18 6.9194 0.7825
-2 8 19 -0.7374 -0.4831
-2 8 20 -17.8495 -0.8391
-2 8 21 -6.4552 0.3785
-2 8 22 12.7163 0.5261
-2 8 23 0.7338 -0.0512
-2 8 24 -10.7346 -0.1211
-2 8 25 4.1580 -0.2680
-2 8 26 -2.2102 -0.3331
-2 8 27 4.8508 0.1363
-2 8 28 -3.8622 0.1303
-2 8 29 -1.3695 -0.1667
-2 8 30 -15.4236 -0.0013
-2 8 31 -20.0283 -0.0670
-2 8 32 2.9294 -0.1802
-2 8 33 17.7763 0.0210
-2 8 34 -1.9194 -0.1617
-2 8 35 -10.9253 0.2402
-2 10 1 14.6780 0.0200
-2 10 2 13.0386 1.3773
-2 10 3 -22.3389 0.0843
-2 10 4 -6.1164 -1.1050
-2 10 5 29.0912 -0.2895
-2 10 6 -0.9645 0.4798
-2 10 7 -23.5749 0.5439
-2 10 8 -4.5554 -0.2304
-2 10 9 3.4307 -0.3680
-2 10 10 -15.4718 0.0475
-2 10 11 -10.7494 0.7191
-2 10 12 2.4965 0.0278
-2 10 13 -3.3749 -0.4849
-2 10 14 0.0182 0.2539
-2 10 15 11.2809 0.3228
-2 10 16 8.9481 -0.1606
-2 10 17 -9.1210 0.0101
-2 10 18 -7.4354 0.3920
-2 10 19 14.2470 -0.0918
-2 10 20 8.2874 -0.4664
-2 10 21 1.1844 0.0699
-2 10 22 7.6790 0.5470
-2 10 23 9.2429 -0.3661
-2 10 24 -10.2243 -0.5352
-2 10 25 4.9396 0.2433
-2 10 26 2.3056 0.3407
-2 10 27 4.4368 -0.4067
-2 10 28 7.3319 -0.3674
-2 10 29 -4.5704 0.3956
-2 10 30 -0.0430 0.2458
-2 10 31 5.3047 -0.2417
-2 10 32 -12.0595 0.3079
-2 10 33 2.8413 0.3938
-2 12 1 -6.2793 0.4343
-2 12 2 15.0758 -0.8301
-2 12 3 16.8089 -0.3376
-2 12 4 -4.5521 0.5695
-2 12 5 -5.0820 0.4468
-2 12 6 9.2931 -0.3594
-2 12 7 -4.4098 -0.5498
-2 12 8 4.0886 0.5076
-2 12 9 -1.1044 0.5927
-2 12 10 -3.7330 -0.3832
-2 12 11 -8.1688 -0.4735
-2 12 12 2.1405 0.4351
-2 12 13 4.1820 0.2342
-2 12 14 3.0520 -0.4195
-2 12 15 -3.2935 0.2598
-2 12 16 -7.4730 0.3528
-2 12 17 -1.3655 -0.3099
-2 12 18 11.4920 -0.4294
-2 12 19 -1.5542 0.1536
-2 12 20 -21.2135 0.2730
-2 12 21 -0.6770 -0.2299
-2 12 22 33.1361 -0.2367
-2 12 23 -0.6052 -0.0432
-2 12 24 -11.3272 -0.1202
-2 12 25 4.6682 0.1904
-2 12 26 -9.5825 0.0398
-2 12 27 -0.4741 -0.1855
-2 12 28 -4.1494 0.1066
-2 12 29 5.1323 0.2470
-2 12 30 -6.5240 -0.1017
-2 12 31 2.9397 -0.5098
-2 14 1 3.0541 -0.2806
-2 14 2 -10.4184 -0.0438
-2 14 3 -9.2916 0.3513
-2 14 4 3.9412 0.2186
-2 14 5 2.1232 -0.3167
-2 14 6 -0.0755 -0.2513
-2 14 7 2.5886 0.3111
-2 14 8 -3.4710 0.4975
-2 14 9 3.2578 -0.2516
-2 14 10 1.2490 -0.2328
-2 14 11 0.2359 0.3416
-2 14 12 -11.1658 0.4156
-2 14 13 8.0064 -0.1191
-2 14 14 7.2167 -0.1074
-2 14 15 0.3427 0.0096
-2 14 16 -1.6901 0.1165
-2 14 17 5.0749 0.0335
-2 14 18 -0.3869 0.1687
-2 14 19 3.4672 -0.0673
-2 14 20 -4.7422 -0.2673
-2 14 21 7.2637 -0.0031
-2 14 22 2.0817 0.1704
-2 14 23 9.8211 0.0677
-2 14 24 -0.4451 -0.1070
-2 14 25 9.4887 -0.2315
-2 14 26 5.8632 0.1631
-2 14 27 4.5890 0.1249
-2 14 28 -5.9917 -0.3720
-2 14 29 -10.6148 -0.1840
-2 16 1 4.6271 -0.5376
-2 16 2 -3.1588 -0.0741
-2 16 3 -2.0389 0.4607
-2 16 4 -3.1152 0.2132
-2 16 5 -6.1846 -0.5423
-2 16 6 1.5956 0.0028
-2 16 7 9.4832 0.4780
-2 16 8 -9.4026 0.1143
-2 16 9 -2.7099 -0.3905
-2 16 10 -0.4297 -0.0023
-2 16 11 9.2468 0.2288
-2 16 12 0.3217 -0.1191
-2 16 13 -9.4205 -0.1999
-2 16 14 -4.4319 -0.0505
-2 16 15 13.6223 0.2335
-2 16 16 -6.6057 0.1701
-2 16 17 1.5738 -0.2727
-2 16 18 -4.8968 -0.3243
-2 16 19 -7.4977 0.4039
-2 16 20 0.4514 0.5196
-2 16 21 -9.6501 -0.3683
-2 16 22 -4.7709 -0.7559
-2 16 23 -0.0431 0.3544
-2 16 24 9.8580 0.4915
-2 16 25 -2.0836 -0.4214
-2 16 26 -8.0370 -0.3055
-2 18 1 -0.6547 0.1787
-2 18 2 -3.2137 0.0603
-2 18 3 5.7256 -0.3023
-2 18 4 3.7613 -0.1757
-2 18 5 -1.0255 0.5518
-2 18 6 4.5404 0.0694
-2 18 7 3.7908 -0.5449
-2 18 8 -3.1063 -0.0244
-2 18 9 -2.5983 0.3754
-2 18 10 1.7014 -0.0683
-2 18 11 -9.8407 -0.2378
-2 18 12 -13.4851 -0.0260
-2 18 13 10.8718 0.2448
-2 18 14 4.7880 -0.0495
-2 18 15 4.7474 -0.2306
-2 18 16 -6.4030 -0.2316
-2 18 17 2.1685 0.3088
-2 18 18 5.1797 0.1161
-2 18 19 -5.0040 -0.6056
-2 18 20 5.5718 -0.3393
-2 18 21 -7.8271 0.1016
-2 18 22 3.0941 0.3079
-2 18 23 -0.9446 -0.0351
-2 20 1 11.1271 0.4752
-2 20 2 1.7748 -0.1552
-2 20 3 2.7191 -0.0743
-2 20 4 -7.3069 -0.0594
-2 20 5 -6.9728 -0.1702
-2 20 6 -6.0217 0.2771
-2 20 7 2.5765 -0.0325
-2 20 8 2.8533 0.1020
-2 20 9 0.9459 0.1937
-2 20 10 -9.1034 -0.0213
-2 20 11 -11.8836 -0.0447
-2 20 12 0.6781 0.3138
-2 20 13 10.5414 -0.2057
-2 20 14 -8.6648 -0.4107
-2 20 15 -9.3725 0.3153
-2 20 16 8.1210 0.2555
-2 20 17 4.4838 -0.2117
-2 20 18 -10.9784 -0.4057
-2 22 1 7.4957 -1.0552
-2 22 2 6.2285 -0.9722
-2 22 3 -1.9687 0.9504
-2 22 4 -4.2300 0.8117
-2 22 5 1.6103 -0.7543
-2 22 6 -10.8040 -0.5653
-2 22 7 -10.5949 0.4180
-2 22 8 -1.5925 0.5817
-2 22 9 2.0833 -0.3729
-1 1 2 444.6222 5.6826
-1 1 3 174.6033 -1.4039
-1 1 5 47.2042 -0.9217
-1 1 6 -3.1667 -0.3850
-1 1 7 84.8301 4.3457
-1 1 8 -12.1075 -1.7141
-1 1 9 -31.7614 -1.9662
-1 1 10 19.2863 1.9240
-1 1 11 26.9111 1.4317
-1 1 12 29.2411 -0.5751
-1 1 13 7.3827 -0.1337
-1 1 14 -14.5871 -0.7136
-1 1 15 5.7485 1.4183
-1 1 16 27.8892 1.5999
-1 1 17 4.9010 -1.1855
-1 1 18 -17.0527 -0.4405
-1 1 19 -4.6930 0.9059
-1 1 20 19.4063 -1.4049
-1 1 21 14.5113 -0.0026
-1 1 23 10.4677 -0.2153
-1 1 24 16.3577 -2.3979
-1 1 25 4.1487 -0.2493
-1 1 26 -5.8766 1.2887
-1 1 27 -3.6233 0.5004
-1 1 28 3.1422 -0.5156
-1 1 29 3.0354 -0.5589
-1 1 30 -7.7554 0.1805
-1 1 31 1.8216 0.0973
-1 1 32 5.2994 -0.1401
-1 1 33 -6.0554 0.1595
-1 1 34 8.1985 0.2787
-1 1 35 11.9693 -0.3895
-1 1 36 1.3011 -0.3619
-1 1 37 6.7963 0.0872
-1 3 1 152.9950 -0.7674
-1 3 2 -14.9541 -1.9494
-1 3 4 -84.0999 -0.3328
-1 3 5 17.6545 2.3832
-1 3 6 -13.7099 2.3671
-1 3 7 -72.1961 -4.2591
-1 3 8 -16.9017 -0.7986
-1 3 9 32.1884 4.4659
-1 3 10 40.9694 -0.6526
-1 3 11 -9.7879 -4.3074
-1 3 12 6.0626 2.5341
-1 3 13 16.0625 3.8215
-1 3 14 -16.1277 -1.6004
-1 3 15 3.3011 -2.7972
-1 3 16 12.0134 0.6792
-1 3 17 -6.8710 2.1429
-1 3 18 -14.5054 -0.5665
-1 3 19 3.2119 -0.9772
-1 3 20 -11.7496 0.5825
-1 3 22 7.0766 -1.2799
-1 3 23 -4.0139 0.1716
-1 3 24 6.5322 1.0778
-1 3 25 -6.1256 -0.2402
-1 3 26 6.8333 -1.1881
-1 3 27 -4.6313 -0.2468
-1 3 28 3.3198 0.6084
-1 3 29 -2.9229 0.5005
-1 3 30 0.0846 0.0220
-1 3 31 9.1096 -0.5512
-1 3 32 3.3150 -0.1424
-1 3 33 14.5129 0.1696
-1 3 34 -9.0668 0.4012
-1 3 35 2.6445 0.2961
-1 3 36 -4.8831 -0.1542
-1 5 1 -42.0993 -0.5555
-1 5 2 67.5619 0.6840
-1 5 3 8.1669 0.2755
-1 5 4 -42.0201 -0.1656
-1 5 5 -34.2392 -0.9292
-1 5 6 31.8522 -0.0144
-1 5 7 0.3692 1.7551
-1 5 8 -35.9516 0.0758
-1 5 9 -15.4730 -2.7355
-1 5 10 45.1508 0.9975
-1 5 11 54.1364 2.2005
-1 5 12 -7.3850 -0.3748
-1 5 13 -16.1278 -1.3183
-1 5 14 -0.2834 0.1455
-1 5 15 23.8177 0.4849
-1 5 16 -14.3397 0.5968
-1 5 17 -1.1101 0.3730
-1 5 18 -9.5673 -0.1994
-1 5 19 13.7111 -0.5060
-1 5 20 -11.5021 0.1980
-1 5 21 2.7038 0.0092
-1 5 22 -9.4955 -0.1352
-1 5 23 -7.8549 0.2595
-1 5 24 -9.1032 0.0465
-1 5 25 7.7106 -0.0440
-1 5 26 -6.7354 0.0046
-1 5 27 5.1055 -0.2006
-1 5 28 -2.8073 0.2467
-1 5 29 4.6017 0.3051
-1 5 30 -9.0146 -0.2646
-1 5 31 9.0468 0.0931
-1 5 32 9.3843 0.2232
-1 5 33 1.4182 -0.6096
-1 5 34 -14.1614 -0.0444
-1 5 35 -11.9351 0.9201
-1 5 36 11.9174 -0.0979
-1 7 1 25.9390 -1.2522
-1 7 2 -24.4559 -0.8719
-1 7 3 30.3227 0.9453
-1 7 4 26.2650 0.2450
-1 7 5 5.1589 -0.5024
-1 7 6 9.9505 0.8004
-1 7 7 11.5423 0.3804
-1 7 8 9.1335 -0.6052
-1 7 9 10.9637 0.2449
-1 7 10 5.9499 0.2645
-1 7 11 7.7895 0.6326
-1 7 12 5.4583 0.0101
-1 7 13 2.2047 -0.3660
-1 7 14 -0.1429 0.1687
-1 7 15 -13.3658 0.5987
-1 7 16 -3.5866 -0.1480
-1 7 17 -5.5125 -0.4666
-1 7 18 -0.7000 0.3996
-1 7 19 -8.0263 0.2280
-1 7 20 2.0123 -0.6027
-1 7 21 -4.2149 -0.2669
-1 7 22 -11.8855 -0.0675
-1 7 23 -5.6356 0.0161
-1 7 24 6.7787 0.5760
-1 7 25 -7.6510 -0.1088
-1 7 26 -5.1125 -0.6455
-1 7 27 2.7401 -0.1974
-1 7 28 -9.3893 0.3376
-1 7 29 -3.8987 -0.0866
-1 7 30 -13.6321 -0.0296
-1 7 31 -11.1905 0.1460
-1 7 32 3.7038 0.0671
-1 7 33 8.2779 -0.0088
-1 7 34 -8.6914 -0.2428
-1 7 35 -10.0515 0.1046
-1 9 1 6.5935 0.0665
-1 9 2 -17.1596 0.4506
-1 9 3 0.1140 0.0043
-1 9 4 12.4206 -0.2936
-1 9 5 -13.3304 -0.2630
-1 9 6 13.0632 0.2294
-1 9 7 22.3549 0.4664
-1 9 8 -12.5658 0.0354
-1 9 9 -30.3809 -0.3308
-1 9 10 -1.5937 0.0388
-1 9 11 6.2266 0.4167
-1 9 12 -3.3185 -0.1956
-1 9 13 -12.6379 -0.1311
-1 9 14 2.8419 0.5817
-1 9 15 1.8724 -0.1335
-1 9 16 -2.5208 -0.9298
-1 9 17 -3.7203 0.3114
-1 9 18 -1.5611 0.9137
-1 9 19 9.4236 -0.4008
-1 9 20 5.8669 -0.9997
-1 9 21 3.2646 0.2923
-1 9 22 4.3359 0.9610
-1 9 23 16.0063 -0.2265
-1 9 24 -3.3768 -0.8095
-1 9 25 10.8929 0.0674
-1 9 26 -3.0550 0.4517
-1 9 27 10.8399 -0.0634
-1 9 28 -3.1680 -0.3489
-1 9 29 4.5628 0.1853
-1 9 30 -6.1617 0.2280
-1 9 31 -9.2293 0.0237
-1 9 32 1.6017 0.2794
-1 9 33 14.6693 0.1425
-1 9 34 0.8529 -0.6872
-1 11 1 17.7391 -0.0904
-1 11 2 0.8763 -0.1604
-1 11 3 -3.5608 -0.0652
-1 11 4 1.3823 -0.0611
-1 11 5 7.3222 0.2921
-1 11 6 -6.8219 0.0548
-1 11 7 -8.7809 0.0298
-1 11 8 -10.4807 -0.1903
-1 11 9 7.9913 0.0079
-1 11 10 -4.8450 0.1531
-1 11 11 -13.4816 0.0791
-1 11 12 -6.2847 0.1888
-1 11 13 7.2325 -0.3196
-1 11 14 8.3809 -0.3621
-1 11 15 6.2777 0.3084
-1 11 16 1.6501 0.3595
-1 11 17 -1.6353 -0.5021
-1 11 18 -2.6224 -0.5873
-1 11 19 -0.3849 0.3164
-1 11 20 10.0325 0.4796
-1 11 21 11.5491 -0.6634
-1 11 22 -1.7119 -0.3443
-1 11 23 -1.6211 0.4275
-1 11 24 15.7545 -0.0626
-1 11 25 2.3639 -0.3134
-1 11 26 -1.8210 0.2070
-1 11 27 -0.2396 0.0783
-1 11 28 -2.8112 -0.2536
-1 11 29 0.5991 0.1377
-1 11 30 2.7988 0.2602
-1 11 31 4.1193 -0.5425
-1 11 32 -11.3430 -0.3274
-1 13 1 -0.6115 0.2834
-1 13 2 8.7522 -0.1539
-1 13 3 5.6677 -0.2715
-1 13 4 0.8824 0.6070
-1 13 5 2.6555 0.2988
-1 13 6 11.9837 -0.3363
-1 13 7 -1.1829 -0.4264
-1 13 8 -4.3332 0.7503
-1 13 9 0.0545 0.5549
-1 13 10 4.7579 -0.4219
-1 13 11 2.9495 -0.4529
-1 13 12 -7.4356 0.4052
-1 13 13 -9.0817 0.6341
-1 13 14 5.1496 -0.2952
-1 13 15 9.2511 -0.6072
-1 13 16 5.6119 0.3168
-1 13 17 -2.3303 0.4855
-1 13 18 -0.2230 -0.0133
-1 13 19 5.3583 -0.5633
-1 13 20 11.3942 -0.2257
-1 13 21 -5.7738 0.3880
-1 13 22 -0.3794 0.0719
-1 13 23 13.0567 -0.1072
-1 13 24 17.6452 -0.0145
-1 13 25 9.8750 -0.1371
-1 13 26 -8.5531 -0.0465
-1 13 27 0.3804 0.1462
-1 13 28 -8.2406 0.0125
-1 13 29 8.8356 0.1711
-1 13 30 -4.7432 0.1372
-1 15 1 0.5837 -0.4809
-1 15 2 -3.3854 -0.0821
-1 15 3 -4.4176 0.4059
-1 15 4 -19.9615 -0.0538
-1 15 5 0.5873 -0.3650
-1 15 6 -0.5798 0.1086
-1 15 7 1.7837 0.2923
-1 15 8 -1.3978 -0.1032
-1 15 9 11.3420 -0.4097
-1 15 10 -13.3177 0.0257
-1 15 11 5.4466 0.4340
-1 15 12 10.2136 -0.0703
-1 15 13 0.3548 -0.5534
-1 15 14 -1.1857 -0.1625
-1 15 15 7.7192 0.6210
-1 15 16 1.8582 0.1815
-1 15 17 2.0960 -0.6803
-1 15 18 -1.4633 -0.4559
-1 15 19 10.6420 0.7378
-1 15 20 -2.8815 0.3371
-1 15 21 -5.3363 -0.6635
-1 15 22 -0.5699 -0.5388
-1 15 23 8.8026 0.2788
-1 15 24 -2.2516 0.4860
-1 15 25 2.2650 -0.0238
-1 15 26 11.7523 -0.2171
-1 15 27 4.1480 -0.1682
-1 15 28 0.5825 0.2220
-1 17 1 2.9036 -0.0402
-1 17 2 18.2288 0.0624
-1 17 3 -6.4084 0.0904
-1 17 4 -12.2485 0.1552
-1 17 5 2.7059 0.0530
-1 17 6 9.1456 -0.0870
-1 17 7 -2.0977 0.0690
-1 17 8 2.7694 0.2343
-1 17 9 -6.5213 0.1166
-1 17 10 -6.2383 -0.1253
-1 17 11 -3.0785 -0.1912
-1 17 12 8.2996 0.0428
-1 17 13 -2.6701 0.2920
-1 17 14 -5.5564 0.0044
-1 17 15 15.0936 -0.2483
-1 17 16 4.1059 -0.0313
-1 17 17 -3.1442 0.5202
-1 17 18 2.3160 0.1085
-1 17 19 -6.5145 -0.6395
-1 17 20 2.6636 0.0081
-1 17 21 -3.9390 0.5366
-1 17 22 7.0082 -0.0080
-1 17 23 -13.6193 -0.0950
-1 17 24 -2.7282 0.3128
-1 19 1 -4.3819 0.2312
-1 19 2 -4.3807 0.1761
-1 19 3 11.3923 -0.2896
-1 19 4 -0.4080 -0.3059
-1 19 5 0.0459 0.3561
-1 19 6 -11.2978 0.3506
-1 19 7 10.1575 -0.3072
-1 19 8 2.8275 -0.1636
-1 19 9 -5.3027 0.3057
-1 19 10 -3.3592 0.0007
-1 19 11 0.1406 -0.2384
-1 19 12 -9.6205 -0.3878
-1 19 13 3.5832 0.2775
-1 19 14 -1.3042 -0.0003
-1 19 15 0.4927 -0.3431
-1 19 16 0.9050 -0.1533
-1 19 17 7.8681 -0.3657
-1 19 18 -2.4720 -0.3266
-1 19 19 0.4565 0.1124
-1 21 1 -1.2347 -0.3802
-1 21 2 -4.0194 -0.2571
-1 21 3 4.1434 0.3512
-1 21 4 -0.5674 0.2968
-1 21 5 -1.2431 -0.3867
-1 21 6 -2.2158 -0.1372
-1 21 7 -5.7701 -0.0745
-1 21 8 -7.9809 0.2806
-1 21 9 -10.8739 -0.2457
-1 21 10 7.2916 0.0493
-1 21 11 10.8596 0.3817
-1 21 12 -3.0130 -0.0750
-1 21 13 -12.0388 -0.0457
-1 21 14 5.5124 0.0968
0 0 4 835.6460 -5.2903
0 0 6 -394.8844 5.0756
0 0 8 209.1827 -2.5922
0 0 10 -46.0980 0.1193
0 0 12 66.9361 1.1288
0 0 14 2.8584 2.3043
0 0 16 -2.3505 -5.8941
0 0 18 5.8608 8.0302
0 0 20 7.8130 -8.0750
0 0 24 1.0826 -4.1594
0 0 26 16.2678 2.7968
0 0 28 -16.5795 -2.1320
0 0 30 0.7355 1.8066
0 0 32 -2.3506 -1.4009
0 0 34 5.1316 0.7917
0 0 36 8.8212 -0.4997
0 2 1 166.0546 -1.4184
0 2 2 165.2514 -0.0323
0 2 3 149.6835 0.4228
0 2 4 -37.3863 0.8480
0 2 5 100.2499 3.2339
0 2 6 -74.0732 -0.7292
0 2 7 -5.0054 -3.2957
0 2 8 35.0201 1.2820
0 2 9 -4.8913 4.6258
0 2 10 16.5285 0.2163
0 2 11 4.6655 -2.5354
0 2 12 30.7566 -0.8616
0 2 13 -5.4739 2.2167
0 2 14 -3.3715 1.1477
0 2 15 8.7947 -1.1086
0 2 16 -5.0969 -0.3437
0 2 17 -17.1550 1.1186
0 2 18 3.7952 -1.9991
0 2 19 3.4855 -0.8014
0 2 20 -4.4434 3.0578
0 2 22 11.4132 -3.1028
0 2 23 11.1307 -0.1935
0 2 24 5.4582 1.8171
0 2 25 3.9603 -0.1650
0 2 26 11.5584 -0.3764
0 2 27 -7.9133 -0.0638
0 2 28 -5.8704 -0.3410
0 2 29 -2.4677 0.0375
0 2 30 2.7490 0.6753
0 2 31 2.3907 -0.0261
0 2 32 6.5327 -0.1928
0 2 33 7.4935 -0.1278
0 2 34 -8.2533 -0.0534
0 2 35 4.8938 0.2606
0 2 36 -2.3428 0.0187
0 4 0 -55.8749 -0.9537
0 4 1 -59.1009 -1.1722
0 4 2 42.1421 0.7386
0 4 3 37.8734 -1.4557
0 4 4 -25.2704 -0.1468
0 4 5 -42.0448 -0.5945
0 4 6 -37.8340 0.1633
0 4 7 -54.6715 1.7144
0 4 8 22.3902 1.2393
0 4 9 -17.4953 -1.2275
0 4 10 5.8249 -0.4114
0 4 11 24.7236 0.0039
0 4 12 25.9415 0.6768
0 4 13 -1.5863 1.1256
0 4 14 0.9515 -0.2908
0 4 15 -1.1756 -1.1348
0 4 16 -8.1729 -0.0350
0 4 17 11.3948 1.1055
0 4 18 -3.1001 -0.1500
0 4 19 -3.8289 -0.9706
0 4 20 -6.5691 -0.0947
0 4 21 11.0728 1.1689
0 4 22 -3.2311 -0.0027
0 4 23 -1.9216 -1.0857
0 4 24 3.0137 -0.0731
0 4 25 -11.2459 0.9376
0 4 26 -1.5900 -0.0443
0 4 27 7.6182 -0.5855
0 4 28 1.6823 0.4104
0 4 29 -11.5263 0.0936
0 4 30 -6.0753 -0.4252
0 4 31 2.4099 0.5650
0 4 32 -4.8023 0.5466
0 4 33 9.6966 -0.7029
0 4 34 -1.7144 -0.2384
0 4 35 -4.5563 0.4514
0 4 36 -7.7126 0.0871
0 6 0 41.6541 1.8039
0 6 1 -18.6560 -1.0093
0 6 2 61.1786 -1.1673
0 6 3 34.3911 2.0199
0 6 4 -2.3493 0.8926
0 6 5 -3.3421 -1.5785
0 6 6 29.2484 0.8042
0 6 7 -7.6771 1.1931
0 6 8 -2.1315 -0.3089
0 6 9 16.3259 -0.9786
0 6 10 19.1519 0.4105
0 6 11 -14.2628 1.2899
0 6 12 3.8676 -0.3451
0 6 13 22.5576 -1.3249
0 6 14 -21.4996 0.5662
0 6 15 -19.1667 1.8452
0 6 16 2.7609 -0.1371
0 6 17 15.4592 -1.9871
0 6 18 -16.2718 0.2072
0 6 19 -12.6875 1.2310
0 6 20 6.2336 -0.1389
0 6 21 4.6937 -0.7630
0 6 22 -12.2430 -0.2425
0 6 23 -2.0102 0.1218
0 6 24 -2.9052 0.3573
0 6 25 -6.1340 -0.2053
0 6 26 -6.2690 -0.2381
0 6 27 -1.5431 0.0620
0 6 28 -4.4397 0.2707
0 6 29 -5.0445 0.0889
0 6 30 -4.8881 -0.0143
0 6 31 8.6229 -0.1331
0 6 32 -6.3724 -0.0256
0 6 33 -11.6010 0.1970
0 6 34 4.0342 -0.2553
0 6 35 -0.5381 0.2434
0 8 0 23.5982 -0.5613
0 8 1 -47.3148 0.0280
0 8 2 -30.1913 0.4233
0 8 3 40.1929 -0.1157
0 8 4 34.9957 -0.2040
0 8 5 -15.7712 0.4591
0 8 6 0.0231 -0.5907
0 8 7 15.5491 0.2832
0 8 8 24.9462 0.6387
0 8 9 6.9876 0.3547
0 8 10 0.0996 -0.9310
0 8 11 -3.2474 -0.3311
0 8 12 -1.0317 0.3944
0 8 13 4.3712 0.5708
0 8 14 5.8396 0.1516
0 8 15 -18.2584 -0.6365
0 8 16 -3.4936 -0.6026
0 8 17 -5.6405 0.4771
0 8 18 2.0576 0.4840
0 8 19 -1.5912 -0.5079
0 8 20 2.6109 -0.8552
0 8 21 3.1659 0.2107
0 8 22 8.5556 0.7318
0 8 23 2.6081 -0.0880
0 8 24 -2.7716 -0.3668
0 8 25 6.5587 0.0796
0 8 26 5.5384 0.3189
0 8 27 -4.0874 0.0099
0 8 28 -15.4096 -0.2844
0 8 29 4.1112 0.2443
0 8 30 -6.7653 -0.0007
0 8 31 1.3475 -0.2674
0 8 32 -9.3128 0.2450
0 8 33 -1.1278 0.3274
0 8 34 11.8845 -0.5007
0 10 0 -9.1094 -0.6748
0 10 1 17.9125 0.2105
0 10 2 0.5615 0.7818
0 10 3 -3.1139 -0.3057
0 10 4 -14.3992 -0.2065
0 10 5 -16.9641 0.2715
0 10 6 -10.7004 0.7574
0 10 7 12.6087 0.0715
0 10 8 -8.9629 -0.3896
0 10 9 -25.8821 -0.1400
0 10 10 -8.8956 0.4348
0 10 11 8.5679 0.3068
0 10 12 -8.1365 -0.0515
0 10 13 -10.5793 -0.6908
0 10 14 8.2823 -0.0658
0 10 15 4.9162 0.7389
0 10 16 0.8071 0.0103
0 10 17 -3.2773 -0.9534
0 10 18 -2.5235 -0.0704
0 10 19 2.6654 0.7723
0 10 20 6.7107 -0.0057
0 10 21 0.2489 -0.6184
0 10 22 -1.0550 0.0718
0 10 23 16.5324 0.3764
0 10 24 8.2357 -0.2409
0 10 25 9.3967 -0.0807
0 10 26 -9.0898 0.0937
0 10 27 2.2135 -0.1377
0 10 28 4.7212 -0.2589
0 10 29 0.7075 0.0054
0 10 30 -1.6675 0.5492
0 10 31 -0.7235 0.2409
0 10 32 -2.4251 -0.3285
0 10 33 2.5820 -0.1367
0 12 0 10.9980 0.5287
0 12 1 -2.6767 0.2469
0 12 2 4.1034 -0.5607
0 12 3 12.6212 -0.2434
0 12 4 13.8041 0.5422
0 12 5 9.3394 0.2301
0 12 6 -4.0631 -0.6885
0 12 7 -0.1924 -0.4429
0 12 8 6.6691 0.6883
0 12 9 3.6001 0.4309
0 12 10 -15.3195 -0.6410
0 12 11 -3.5096 -0.8746
0 12 12 0.3374 0.4535
0 12 13 7.8519 0.9735
0 12 14 2.5179 -0.5171
0 12 15 -9.8049 -1.0703
0 12 16 12.4059 0.2383
0 12 17 17.1700 0.6992
0 12 18 -9.9224 -0.1638
0 12 19 -10.3892 -0.7921
0 12 20 15.4811 0.1134
0 12 21 8.8870 0.4160
0 12 22 4.7236 -0.1564
0 12 23 -11.7673 -0.0293
0 12 24 15.1305 0.1308
0 12 25 8.9819 -0.3170
0 12 26 5.3012 -0.0285
0 12 27 -11.6713 0.5988
0 12 28 -3.4234 0.1496
0 12 29 7.7064 -0.1525
0 12 30 -6.7151 0.0811
0 12 31 0.9876 -0.1320
0 14 0 9.2887 0.0114
0 14 1 1.7102 0.0178
0 14 2 -12.8250 0.0923
0 14 3 -4.4157 -0.1147
0 14 4 -0.5691 0.1007
0 14 5 -1.6184 0.2015
0 14 6 3.5681 0.2359
0 14 7 9.9729 -0.0224
0 14 8 0.6870 -0.2669
0 14 9 3.6914 -0.0408
0 14 10 4.1945 0.2099
0 14 11 2.9119 0.3217
0 14 12 2.6904 -0.1631
0 14 13 5.6578 -0.3178
0 14 14 2.2441 0.0721
0 14 15 -3.5917 0.1322
0 14 16 17.3417 0.0355
0 14 17 6.8793 -0.1629
0 14 18 -0.2361 -0.2322
0 14 19 5.1485 0.2116
0 14 20 5.2234 0.2332
0 14 21 9.4051 -0.1958
0 14 22 5.1736 -0.3865
0 14 23 -3.1371 0.1618
0 14 24 5.3849 0.5866
0 14 25 14.5517 -0.0302
0 14 26 -3.1475 -0.2578
0 14 27 1.1246 -0.2799
0 14 28 4.9294 0.0829
0 14 29 -6.0517 0.4426
0 16 0 -5.5473 0.1919
0 16 1 4.9636 -0.2533
0 16 2 -3.5196 -0.1172
0 16 3 -6.4503 0.3781
0 16 4 -5.0336 0.1708
0 16 5 6.5688 -0.1063
0 16 6 -14.4379 -0.2206
0 16 7 0.3630 0.1361
0 16 8 0.3285 0.1194
0 16 9 -0.7439 0.0289
0 16 10 0.7485 -0.1245
0 16 11 2.5957 0.0644
0 16 12 -0.0859 -0.0442
0 16 13 3.9398 -0.1250
0 16 14 8.2166 -0.1214
0 16 15 1.0382 0.2147
0 16 16 0.4826 0.0416
0 16 17 7.9754 -0.1116
0 16 18 2.4897 -0.2070
0 16 19 -7.4581 -0.0300
0 16 20 -2.2239 0.1674
0 16 21 -2.1559 0.1228
0 16 22 1.7154 -0.3118
0 16 23 2.2154 -0.0625
0 16 24 0.1854 0.1886
0 16 25 -1.7279 0.0314
0 16 26 2.6579 -0.1213
0 18 0 8.2281 -0.4386
0 18 1 -2.6767 0.2751
0 18 2 -4.6065 0.4686
0 18 3 11.4228 -0.1695
0 18 4 4.7805 -0.3434
0 18 5 -9.8015 0.1365
0 18 6 7.5140 0.3031
0 18 7 3.3313 -0.0853
0 18 8 6.1713 -0.2751
0 18 9 1.4452 0.0294
0 18 10 0.1294 0.0984
0 18 11 -16.9672 -0.2315
0 18 12 -0.4296 -0.2440
0 18 13 4.8754 0.2738
0 18 14 0.0657 0.0315
0 18 15 0.6844 -0.3146
0 18 16 1.4624 -0.1310
0 18 17 9.5203 0.4324
0 18 18 3.4139 0.2741
0 18 19 -5.6092 -0.6361
0 18 20 2.8763 -0.2981
0 18 21 6.9109 0.1244
0 18 22 -1.9218 0.5826
0 20 0 3.6553 -0.0533
0 20 1 3.4881 0.0721
0 20 2 -11.0060 0.0563
0 20 3 7.9038 -0.3247
0 20 4 -0.0996 -0.0475
0 20 5 0.3254 0.2718
0 20 6 -9.1257 0.2443
0 20 7 -5.7568 -0.3224
0 20 8 2.3704 -0.1805
0 20 9 18.9236 0.2635
0 20 10 -0.8634 0.1452
0 20 11 -14.9835 -0.0484
0 20 12 9.3954 -0.2114
0 20 13 5.3312 -0.1418
0 20 14 -3.9044 0.2991
0 20 15 4.4461 -0.1081
0 20 16 4.2900 -0.5060
0 20 17 -4.2758 -0.4528
0 22 0 -5.5433 1.3181
0 22 1 8.1667 -1.6540
0 22 2 4.3033 -1.2427
0 22 3 -3.8748 1.6187
0 22 4 1.1550 1.2218
0 22 5 -3.6317 -1.3730
0 22 6 -8.1130 -0.7390
0 22 7 -3.3622 0.6521
0 22 8 6.4517 0.4149
0 22 9 -17.1041 -0.2471
1 1 2 716.9524 14.2486
1 1 3 95.4315 1.7755
1 1 4 -157.0891 -2.7515
1 1 5 83.4080 3.9766
1 1 6 233.1617 3.4824
1 1 7 16.9188 -0.9739
1 1 8 -182.3841 -3.7165
1 1 9 -4.3144 0.4309
1 1 11 -11.3895 0.6529
1 1 12 -49.6733 -4.1468
1 1 13 -6.9553 -0.5394
1 1 14 39.8415 2.3515
1 1 15 3.6753 0.2907
1 1 16 -24.2246 -0.3597
1 1 17 -6.5277 -0.8320
1 1 18 -2.4542 -1.0169
1 1 19 4.1462 0.2622
1 1 20 2.6881 0.8308
1 1 21 2.4480 -0.3225
1 1 22 12.4883 -0.3430
1 1 23 18.3869 -0.0755
1 1 24 -0.0173 -0.3629
1 1 25 5.5761 -0.3289
1 1 26 4.8830 0.8019
1 1 27 3.0404 0.5765
1 1 28 0.1594 -0.6953
1 1 29 0.8455 -0.4710
1 1 30 -2.1133 0.5143
1 1 31 8.6500 0.4175
1 1 32 2.5902 -0.5217
1 1 33 -4.0883 -0.2553
1 1 34 -1.7788 0.3197
1 1 35 -3.2156 0.2677
1 1 36 -0.0890 -0.5905
1 3 0 -0.2533 1.6187
1 3 1 124.6473 -1.6738
1 3 2 -136.2548 -2.2964
1 3 3 -4.1119 1.1071
1 3 4 45.4368 4.5597
1 3 5 79.3421 -0.4472
1 3 6 -155.3271 -4.2587
1 3 7 -88.8157 -0.3898
1 3 8 40.5359 3.0042
1 3 9 -3.4761 1.6621
1 3 10 10.4998 -0.9591
1 3 11 -16.7223 -1.6306
1 3 12 16.0167 0.2073
1 3 13 13.2338 2.4814
1 3 14 10.3571 -1.0069
1 3 15 -16.5861 -2.4004
1 3 16 -9.1773 0.4895
1 3 17 -3.4662 2.3661
1 3 18 7.0675 -0.7130
1 3 19 -11.4236 -2.2528
1 3 20 1.4446 0.2839
1 3 21 9.5610 2.1622
1 3 22 -8.3501 -0.0262
1 3 23 3.7687 -1.6872
1 3 24 15.5285 0.3129
1 3 25 2.9390 0.7974
1 3 26 -8.2989 -0.3625
1 3 27 -15.5655 -0.1167
1 3 28 5.8986 1.0604
1 3 29 -3.6104 -0.0268
1 3 30 -5.9732 -0.8289
1 3 31 -5.7133 0.0802
1 3 32 -0.6421 0.6330
1 3 33 -2.2757 0.2217
1 3 34 -0.8547 -0.1145
1 3 35 15.2154 0.0006
1 3 36 -10.4195 -0.1838
1 5 0 48.9213 -0.0448
1 5 1 -18.3011 0.1502
1 5 2 66.8215 0.4762
1 5 3 16.8878 0.9384
1 5 4 20.7510 -0.5406
1 5 5 -28.8611 -0.2263
1 5 6 14.2002 0.7058
1 5 7 -15.2841 1.0670
1 5 8 -6.2698 0.5205
1 5 9 -17.8502 -1.3019
1 5 10 10.5689 -0.1884
1 5 11 -16.4974 2.4203
1 5 12 19.4508 -0.2954
1 5 13 4.3256 -2.7087
1 5 14 -20.8833 0.3882
1 5 15 5.6946 2.1644
1 5 16 7.1869 -0.4246
1 5 17 -18.0292 -1.4006
1 5 18 -15.5229 0.2673
1 5 19 27.2281 0.6566
1 5 20 5.1547 -0.2085
1 5 21 -11.1912 -0.3909
1 5 22 -8.5350 -0.0286
1 5 23 3.2253 0.2673
1 5 24 -0.0514 0.1723
1 5 25 2.8434 -0.2355
1 5 26 -4.6996 -0.0510
1 5 27 -10.3897 0.0449
1 5 28 -4.0263 -0.1225
1 5 29 2.7121 0.3203
1 5 30 1.7616 0.2436
1 5 31 -4.9607 -0.4579
1 5 32 -7.4526 -0.0786
1 5 33 -3.8877 0.3118
1 5 34 -8.6695 -0.5117
1 5 35 -6.7131 0.0924
1 7 0 26.5647 1.8035
1 7 1 17.0906 -1.2992
1 7 2 -2.3997 -1.9658
1 7 3 -31.6328 0.9927
1 7 4 15.2296 2.4485
1 7 5 57.4998 -0.3368
1 7 6 10.4295 -1.5185
1 7 7 -35.7148 0.3283
1 7 8 40.7249 0.7258
1 7 9 31.2021 0.1874
1 7 10 -2.8605 -0.9095
1 7 11 -8.5251 -0.4178
1 7 12 5.1682 0.4494
1 7 13 5.0681 0.2496
1 7 14 -2.1627 -0.1475
1 7 15 -4.4995 -0.2060
1 7 16 -12.0358 0.0907
1 7 17 -17.1737 -0.3329
1 7 18 8.5388 -0.1105
1 7 19 5.8497 0.3256
1 7 20 3.2568 -0.3882
1 7 21 -2.6375 -0.6020
1 7 22 1.9488 0.2986
1 7 23 2.9263 0.6438
1 7 24 2.6201 0.1054
1 7 25 -2.1274 -0.3387
1 7 26 1.2029 -0.1086
1 7 27 -15.3186 -0.0802
1 7 28 -1.9944 0.1226
1 7 29 -2.8175 0.5513
1 7 30 -7.3147 -0.0560
1 7 31 -0.5239 -0.2932
1 7 32 -2.5091 -0.1290
1 7 33 7.8603 -0.1899
1 7 34 7.2898 -0.0039
1 9 0 11.7233 -1.4101
1 9 1 -6.9117 1.0765
1 9 2 -5.1327 1.5602
1 9 3 3.1388 -0.3429
1 9 4 -19.1538 -1.1346
1 9 5 -22.2611 0.4447
1 9 6 8.4752 1.2662
1 9 7 5.3727 -0.0292
1 9 8 -5.6386 -1.0362
1 9 9 -0.5354 0.0327
1 9 10 -5.3897 0.8102
1 9 11 -8.5492 -0.1244
1 9 12 5.5752 -0.4789
1 9 13 -1.2050 -0.1618
1 9 14 -4.8193 0.2507
1 9 15 -11.6237 0.4307
1 9 16 -0.9130 -0.1016
1 9 17 -1.4848 -0.5074
1 9 18 -2.1858 -0.1844
1 9 19 -20.5026 0.2786
1 9 20 1.5748 0.2267
1 9 21 22.4801 -0.0935
1 9 22 -5.8125 0.2084
1 9 23 -8.9864 -0.0444
1 9 24 12.4117 -0.5891
1 9 25 10.6826 0.2600
1 9 26 -12.8558 0.5806
1 9 27 5.4241 -0.0038
1 9 28 -6.9577 -0.6000
1 9 29 -3.1585 -0.2330
1 9 30 -7.5789 0.5721
1 9 31 0.2098 0.3335
1 9 32 -6.3847 -0.2161
1 9 33 3.6400 0.0434
1 11 0 1.0098 0.2881
1 11 1 11.8364 -0.2181
1 11 2 6.5061 -0.2812
1 11 3 4.0579 -0.2223
1 11 4 -2.8051 0.5808
1 11 5 6.1330 0.2517
1 11 6 -0.0559 -0.5970
1 11 7 -9.4319 -0.6753
1 11 8 -17.9720 0.6075
1 11 9 2.5120 0.7285
1 11 10 -0.5739 -0.5099
1 11 11 1.8796 -1.0565
1 11 12 -10.9837 0.2376
1 11 13 -5.2873 0.7169
1 11 14 7.3936 -0.1595
1 11 15 7.5748 -0.5498
1 11 16 -1.6687 -0.1375
1 11 17 -1.9890 0.1501
1 11 18 13.6724 0.0151
1 11 19 -5.0061 -0.0420
1 11 20 -9.2188 0.1549
1 11 21 -5.0515 0.1214
1 11 22 15.6536 -0.3455
1 11 23 5.0954 0.2676
1 11 24 -1.9259 0.3683
1 11 25 -12.6665 -0.2959
1 11 26 11.5771 -0.1535
1 11 27 5.5203 0.4628
1 11 28 -1.8402 0.0035
1 11 29 -15.2080 -0.3512
1 11 30 3.9806 0.0717
1 11 31 4.5165 0.1104
1 11 32 2.4025 0.0006
1 13 0 -3.2729 0.0903
1 13 1 3.1822 0.8706
1 13 2 9.1348 0.0959
1 13 3 2.8049 -0.4227
1 13 4 2.8850 0.1406
1 13 5 3.7485 0.4565
1 13 6 14.7354 -0.0263
1 13 7 9.4155 -0.1682
1 13 8 3.8007 0.0804
1 13 9 7.4297 0.0129
1 13 10 -1.1728 -0.2663
1 13 11 2.1084 0.1256
1 13 12 7.0313 0.1312
1 13 13 -1.8373 0.0467
1 13 14 -1.0558 -0.2319
1 13 15 2.4235 -0.4461
1 13 16 11.1327 0.3938
1 13 17 4.1424 0.4840
1 13 18 4.5315 -0.3413
1 13 19 4.0881 -0.6003
1 13 20 3.8981 0.2727
1 13 21 5.2828 0.6431
1 13 22 8.4697 0.0051
1 13 23 -1.2796 -0.6067
1 13 24 7.4531 0.1572
1 13 25 -10.1227 0.4518
1 13 26 7.8050 -0.1435
1 13 27 4.8308 -0.4771
1 13 28 -7.5628 0.2943
1 13 29 -3.5687 0.3658
1 13 30 0.0277 -0.3191
1 15 0 -5.0229 0.3567
1 15 1 2.0877 -0.4247
1 15 2 -1.4065 -0.3427
1 15 3 -3.3195 0.2403
1 15 4 -15.8536 0.0076
1 15 5 -6.5411 -0.1950
1 15 6 -5.7625 -0.0921
1 15 7 9.0317 0.1872
1 15 8 -2.2158 -0.2018
1 15 9 3.0670 -0.0843
1 15 10 -5.2130 0.0810
1 15 11 2.8945 0.0645
1 15 12 1.8788 -0.3004
1 15 13 4.1540 -0.1268
1 15 14 13.4876 0.1715
1 15 15 3.1943 0.2935
1 15 16 0.3400 -0.4367
1 15 17 0.7380 -0.5604
1 15 18 0.0910 0.1552
1 15 19 1.4363 0.6687
1 15 20 3.9529 -0.0722
1 15 21 4.4102 -0.5825
1 15 22 2.1665 -0.2165
1 15 23 8.0896 0.2685
1 15 24 -4.0360 0.3278
1 15 25 -0.7453 -0.1203
1 15 26 9.0366 -0.1451
1 15 27 0.9105 0.2168
1 17 0 -4.3796 -0.1692
1 17 1 2.5647 0.0317
1 17 2 -0.2836 0.2470
1 17 3 2.2057 0.1375
1 17 4 6.9234 -0.1864
1 17 5 10.0768 -0.0352
1 17 6 0.2565 0.1736
1 17 7 -7.5026 0.1403
1 17 8 6.8818 -0.2775
1 17 9 5.8477 -0.2627
1 17 10 7.0015 0.1131
1 17 11 -6.5943 0.1286
1 17 12 -2.0793 0.1341
1 17 13 -4.7806 -0.0503
1 17 14 5.4527 -0.0639
1 17 15 11.7281 -0.3151
1 17 16 -1.6535 0.2906
1 17 17 -2.4690 0.5319
1 17 18 8.1559 -0.0465
1 17 19 -1.4882 -0.5586
1 17 20 -3.9412 0.1016
1 17 21 -6.3864 0.3824
1 17 22 0.0996 0.2014
1 17 23 8.0568 -0.0331
1 17 24 -6.3133 -0.4144
1 19 0 -10.0114 -0.5219
1 19 1 -10.4061 0.1797
1 19 2 2.4187 0.6273
1 19 3 8.5172 -0.4070
1 19 4 -2.9564 -0.2695
1 19 5 0.1815 0.3270
1 19 6 1.2805 0.2005
1 19 7 -6.0742 -0.4101
1 19 8 -0.1070 -0.3399
1 19 9 5.5976 0.4788
1 19 10 5.4106 0.3024
1 19 11 -2.2656 -0.2940
1 19 12 -0.4058 -0.6757
1 19 13 -8.6529 0.1892
1 19 14 -1.9194 0.5289
1 19 15 1.7300 0.1030
1 19 16 0.2559 -0.8113
1 19 17 0.5129 -0.6138
1 19 18 -1.3223 0.7158
1 19 19 8.8916 0.5104
1 21 0 6.0672 0.3680
1 21 1 1.3920 -0.1813
1 21 2 1.0888 -0.4656
1 21 3 -4.1932 -0.0471
1 21 4 -0.3649 0.6031
1 21 5 9.2147 0.0239
1 21 6 -0.4407 -0.4080
1 21 7 -12.8810 0.2890
1 21 8 -2.3029 0.2809
1 21 9 -0.5750 -1.0365
1 21 10 9.2056 -0.4200
1 21 11 -5.2218 0.4416
1 21 12 6.8962 0.3606
1 21 13 3.2672 -0.9639
1 21 14 -3.0184 -0.1126
2 0 2 566.9288 34.5186
2 0 6 102.9806 31.0017
2 0 8 -46.6745 -23.7830
2 0 10 -7.5898 15.9243
2 0 12 33.1831 -6.8209
2 0 14 -18.1418 1.4484
2 0 16 -10.9337 -0.9353
2 0 18 -6.7762 2.0338
2 0 20 0.8121 -3.7940
2 0 22 2.5303 3.5981
2 0 24 4.4184 -3.1061
2 0 26 -1.0118 2.4484
2 0 28 -0.3379 -1.9198
2 0 30 13.1082 1.3691
2 0 32 -9.6350 -1.0126
2 0 34 5.7025 0.7616
2 0 36 -6.1599 -0.8122
2 2 0 46.0838 7.8700
2 2 2 9.1260 -4.6045
2 2 3 251.1457 3.3822
2 2 4 52.3214 4.5124
2 2 5 -156.0544 0.8136
2 2 6 -141.1251 -4.3527
2 2 8 23.2371 2.1662
2 2 9 -182.7349 -0.1920
2 2 10 -3.1466 -2.7882
2 2 11 89.5902 -0.0142
2 2 12 10.4809 1.6837
2 2 13 -70.9301 0.4289
2 2 14 2.1591 -1.1451
2 2 15 34.7498 -1.6475
2 2 16 -23.7270 -0.4503
2 2 17 -31.9566 1.7216
2 2 18 2.8964 1.2947
2 2 19 9.6121 -2.1138
2 2 20 0.4041 -0.6599
2 2 21 -0.5829 1.3554
2 2 22 -5.6283 0.2569
2 2 23 12.4000 -0.5964
2 2 24 -1.6860 1.2660
2 2 25 10.2990 0.2619
2 2 26 -2.8845 -1.5577
2 2 27 -1.4617 -0.0801
2 2 28 1.2390 1.7657
2 2 29 -5.8210 0.5504
2 2 30 -0.5900 -0.9884
2 2 31 3.2130 -0.2300
2 2 32 5.4276 0.1089
2 2 33 0.3920 0.0088
2 2 34 -3.6074 0.2496
2 2 35 -3.3123 0.4882
2 2 36 3.6116 -0.4520
2 4 0 -20.5668 1.2754
2 4 1 52.1617 1.9588
2 4 3 16.8010 0.1116
2 4 4 -30.0042 -0.2972
2 4 5 4.4591 0.5611
2 4 6 -3.3004 1.2731
2 4 7 -38.7787 -0.0027
2 4 8 -14.2678 -0.5202
2 4 9 -15.1939 -0.0474
2 4 10 3.3470 0.0693
2 4 11 -12.2626 1.2063
2 4 12 10.9517 0.4651
2 4 13 9.6315 -0.6657
2 4 14 9.3654 -1.3563
2 4 15 -12.1338 -0.2497
2 4 16 -4.5514 0.8244
2 4 17 -0.5043 0.3920
2 4 18 8.1971 -0.4263
2 4 19 -9.5928 -0.0093
2 4 20 -3.9685 -0.2223
2 4 21 2.9898 0.1298
2 4 22 0.9879 0.7699
2 4 23 9.3189 -0.2618
2 4 24 -8.0428 -0.8395
2 4 25 -6.3031 0.4649
2 4 26 2.9252 0.6564
2 4 27 -7.8810 -0.6609
2 4 28 -5.4464 -0.2264
2 4 29 6.4185 0.8709
2 4 30 3.5094 -0.2188
2 4 31 -18.2980 -0.8467
2 4 32 -11.0318 0.1227
2 4 33 -3.0048 0.2517
2 4 34 -5.8752 -0.1816
2 4 35 1.0058 0.4150
2 6 0 4.4156 0.8585
2 6 1 -15.8452 -0.5757
2 6 2 38.4178 -2.0937
2 6 3 -16.3674 1.0689
2 6 4 23.3709 2.4376
2 6 5 32.9605 -0.3553
2 6 6 -16.3462 -2.3007
2 6 7 -29.2778 0.4290
2 6 8 34.8832 1.5187
2 6 9 -2.3462 -0.1535
2 6 10 -9.1862 -1.4558
2 6 11 -3.7564 0.0557
2 6 12 14.2093 0.4673
2 6 13 -21.7204 -0.8966
2 6 14 -19.5268 -0.1814
2 6 15 5.5708 0.8752
2 6 16 -3.9641 -0.2464
2 6 17 -1.8968 -1.2796
2 6 18 7.4362 0.1892
2 6 19 -3.1052 1.1654
2 6 20 -8.6724 0.2318
2 6 21 5.4198 -1.0945
2 6 22 14.5894 -0.7175
2 6 23 4.2287 0.9013
2 6 24 -5.3527 0.6246
2 6 25 -1.8142 -0.4947
2 6 26 -3.8961 -0.0247
2 6 27 -4.0025 0.2005
2 6 28 7.4168 -0.3266
2 6 29 -13.4467 0.0885
2 6 30 -1.9799 0.1580
2 6 31 11.2249 0.0907
2 6 32 6.0533 0.0344
2 6 33 -6.7572 -0.1520
2 6 34 -1.7773 -0.2396
2 6 35 -0.2716 -0.1439
2 8 0 -2.7731 0.1807
2 8 1 4.0663 0.1661
2 8 2 4.2465 0.8066
2 8 3 -13.2133 -0.3130
2 8 4 -20.2549 -0.7758
2 8 5 0.9985 0.2865
2 8 6 36.5415 0.5189
2 8 7 0.0569 -0.1021
2 8 8 -18.2626 -0.6675
2 8 9 11.2636 -0.3462
2 8 10 31.8319 0.1548
2 8 11 -1.7861 0.0830
2 8 12 -12.3686 0.1386
2 8 13 0.5822 -0.3703
2 8 14 -3.5129 -0.1981
2 8 15 -8.9079 0.0607
2 8 16 5.7503 0.3363
2 8 17 -14.9391 0.3858
2 8 18 -6.1122 -0.4758
2 8 19 -4.9097 -0.5118
2 8 20 0.3689 0.2232
2 8 21 -1.3106 0.2345
2 8 22 -0.8997 0.2145
2 8 23 9.6105 0.1918
2 8 24 -1.3049 -0.1582
2 8 25 -6.6023 -0.2045
2 8 26 3.6028 0.1236
2 8 27 -13.3034 0.3852
2 8 28 -4.8333 -0.3035
2 8 29 -3.7025 -0.3237
2 8 30 -14.1585 0.3405
2 8 31 2.6231 -0.0828
2 8 32 2.6445 -0.1799
2 8 33 -2.5159 0.0051
2 8 34 1.0639 -0.2032
2 10 0 -16.9137 -0.2725
2 10 1 -5.0269 -0.2486
2 10 2 9.7880 0.4195
2 10 3 11.4109 -0.0215
2 10 4 -8.0113 -0.1911
2 10 5 -14.7865 0.5792
2 10 6 -23.4539 0.9122
2 10 7 1.3189 -0.8877
2 10 8 2.0757 -0.7755
2 10 9 -10.9498 0.7429
2 10 10 -12.4081 0.9107
2 10 11 5.4004 -0.7122
2 10 12 -0.8949 -0.8936
2 10 13 -5.7011 0.5279
2 10 14 -3.5967 0.7200
2 10 15 4.2791 -0.1262
2 10 16 1.1895 -0.6273
2 10 17 -9.4508 -0.1185
2 10 18 -3.8270 0.4459
2 10 19 2.9275 0.1258
2 10 20 -2.2032 -0.0733
2 10 21 -13.6838 0.0414
2 10 22 14.9826 -0.0072
2 10 23 2.4577 0.4324
2 10 24 -15.1952 -0.0943
2 10 25 -2.1356 -0.5467
2 10 26 12.9603 0.1865
2 10 27 -2.2796 0.3653
2 10 28 -13.2047 -0.1183
2 10 29 -5.0637 -0.2459
2 10 30 -0.5193 0.0142
2 10 31 -1.5402 0.0138
2 10 32 2.5273 0.1399
2 12 0 1.6249 0.2998
2 12 1 -3.1845 0.7016
2 12 2 3.9113 -0.1714
2 12 3 -1.9416 -0.3046
2 12 4 10.3727 0.2199
2 12 5 16.4291 0.1742
2 12 6 7.5154 -0.5049
2 12 7 -3.6219 -0.2357
2 12 8 3.8079 0.2666
2 12 9 5.6247 0.0533
2 12 10 -4.9990 -0.5547
2 12 11 6.4797 -0.2153
2 12 12 -4.4494 0.4975
2 12 13 -3.0805 0.3413
2 12 14 4.0770 -0.7438
2 12 15 -1.2821 -0.5658
2 12 16 -0.0639 0.8889
2 12 17 4.9953 0.6514
2 12 18 3.0512 -0.7573
2 12 19 -0.1230 -0.7066
2 12 20 8.9756 0.4605
2 12 21 -3.7028 0.9391
2 12 22 4.1588 -0.0787
2 12 23 -7.9457 -0.8667
2 12 24 10.4353 0.0235
2 12 25 1.1640 0.6187
2 12 26 1.3351 -0.2677
2 12 27 -20.7519 -0.3994
2 12 28 12.8062 0.3086
2 12 29 4.2996 0.5705
2 12 30 3.2571 -0.1435
2 14 0 6.5882 -0.0543
2 14 1 3.0124 0.3633
2 14 2 -6.8385 -0.0465
2 14 3 0.1998 -0.2680
2 14 4 5.6909 -0.0161
2 14 5 -4.6885 0.2294
2 14 6 -8.1104 -0.0639
2 14 7 -3.4779 -0.0542
2 14 8 8.5624 -0.1424
2 14 9 10.7287 0.1403
2 14 10 -5.3895 0.0400
2 14 11 3.3272 -0.0578
2 14 12 3.8418 -0.1558
2 14 13 -1.4411 -0.1969
2 14 14 5.8153 0.3800
2 14 15 2.7550 0.2944
2 14 16 7.4746 -0.6261
2 14 17 2.2655 -0.3192
2 14 18 -0.5736 0.5748
2 14 19 3.7120 0.3250
2 14 20 -2.0385 -0.3401
2 14 21 6.8789 -0.1254
2 14 22 11.4813 0.1752
2 14 23 4.4566 0.0131
2 14 24 0.2899 0.2792
2 14 25 -7.7955 -0.1830
2 14 26 0.1082 -0.1385
2 14 27 -1.9266 -0.1244
2 14 28 1.3357 -0.0547
2 16 0 3.7991 0.0710
2 16 1 5.0419 -0.4266
2 16 2 -5.4387 -0.0049
2 16 3 4.0116 0.5432
2 16 4 4.9288 0.0203
2 16 5 -7.2390 -0.7090
2 16 6 -22.2708 -0.1966
2 16 7 24.9372 0.5843
2 16 8 16.9595 0.0669
2 16 9 -6.6631 -0.5005
2 16 10 -14.9652 -0.1008
2 16 11 4.9233 0.3640
2 16 12 3.3572 0.0364
2 16 13 8.2747 -0.2405
2 16 14 3.0133 -0.0893
2 16 15 2.6855 0.1303
2 16 16 -2.6659 0.1887
2 16 17 2.7511 -0.2017
2 16 18 4.4933 -0.1810
2 16 19 0.9202 -0.1004
2 16 20 -8.3467 0.2546
2 16 21 -9.3047 0.1292
2 16 22 5.3677 -0.0900
2 16 23 14.7242 0.0077
2 16 24 -1.9827 -0.3287
2 16 25 2.4967 -0.0208
2 18 0 4.5460 -0.0840
2 18 1 -1.6903 0.0962
2 18 2 4.4562 0.2861
2 18 3 -3.6791 -0.1271
2 18 4 -2.8107 -0.4520
2 18 5 1.6736 0.0010
2 18 6 5.2529 0.5643
2 18 7 -3.4484 -0.2672
2 18 8 4.6597 -0.6421
2 18 9 -9.9757 0.2617
2 18 10 4.7410 0.4872
2 18 11 4.1337 -0.4438
2 18 12 -5.7068 -0.1332
2 18 13 -11.2159 0.2146
2 18 14 -2.4876 0.3812
2 18 15 2.8634 0.0351
2 18 16 -0.4753 -0.4395
2 18 17 1.6868 -0.1336
2 18 18 -1.5718 0.6605
2 18 19 -0.9236 0.4458
2 18 20 2.3225 -0.3081
2 18 21 4.9914 -0.3716
2 18 22 -9.8719 0.2718
2 20 0 -2.8111 -0.1117
2 20 1 10.8265 0.5353
2 20 2 5.4054 0.2133
2 20 3 0.0864 -0.5569
2 20 4 -4.3372 -0.0505
2 20 5 3.8816 0.2315
2 20 6 6.7506 0.1159
2 20 7 2.5992 0.0247
2 20 8 -11.6844 -0.2980
2 20 9 -0.7270 0.0065
2 20 10 9.5813 -0.3175
2 20 11 3.8056 0.2008
2 20 12 -3.3410 0.4653
2 20 13 -11.3461 -0.8970
2 20 14 9.8431 -0.3943
2 20 15 0.1882 0.7976
2 20 16 -10.0693 0.3669
2 20 17 2.1586 -0.8949
2 22 0 -1.4214 1.1885
2 22 1 0.4889 -1.3704
2 22 2 -2.8823 -1.2989
2 22 3 3.2279 1.5353
2 22 4 3.1259 0.9813
2 22 5 -11.1048 -1.3729
2 22 6 2.4271 -0.7707
2 22 7 3.9140 1.3004
2 22 8 -6.3037 0.5709
3 1 0 102.1505 4.1768
3 1 1 -105.3322 -3.5821
3 1 3 26.4822 3.4252
3 1 4 83.8225 1.3902
3 1 5 44.9309 -2.6167
3 1 6 -83.8915 -1.5915
3 1 7 -14.7792 -0.0256
3 1 8 44.4524 -1.0253
3 1 9 28.2422 -1.6788
3 1 10 -77.9189 3.0185
3 1 11 -49.4638 -0.3905
3 1 12 45.5779 -4.8743
3 1 13 16.6680 -0.0117
3 1 14 -45.8168 4.5886
3 1 15 -18.9063 -0.7963
3 1 16 9.9394 -3.6772
3 1 17 10.5982 -0.2588
3 1 18 -19.7995 2.3140
3 1 19 -10.7334 1.0728
3 1 20 -0.3665 -0.5874
3 1 21 5.3990 -1.0909
3 1 22 8.0335 -0.1214
3 1 23 4.6627 0.6041
3 1 24 -8.2619 0.4268
3 1 25 3.7394 0.5420
3 1 26 -7.9599 0.0036
3 1 27 5.9536 -0.4311
3 1 28 9.0057 -0.0811
3 1 29 -1.3047 0.1791
3 1 30 6.1733 -0.1965
3 1 31 -5.3413 0.2410
3 1 32 1.6131 0.2917
3 1 33 5.7240 -0.3462
3 1 34 0.7530 -0.0102
3 1 35 -11.2129 0.3399
3 1 36 -0.2861 -0.2158
3 3 0 -8.6471 1.5090
3 3 1 -35.2463 6.0588
3 3 3 69.7753 -0.7582
3 3 4 -112.9523 -0.5992
3 3 5 54.8243 1.5090
3 3 6 34.2001 -1.8025
3 3 7 -65.2075 0.2117
3 3 8 -69.5760 1.9396
3 3 9 26.1800 -0.7107
3 3 10 45.4574 -2.4577
3 3 11 -37.6945 0.8627
3 3 12 -8.1323 2.0879
3 3 13 33.7631 0.5695
3 3 14 2.6849 -2.2207
3 3 15 -23.2340 -1.1633
3 3 16 3.5346 2.0827
3 3 17 14.8028 0.7139
3 3 18 -8.0198 -0.6834
3 3 19 -24.9964 -0.5147
3 3 20 12.5725 0.1021
3 3 21 4.6610 0.8227
3 3 22 -16.3820 0.6429
3 3 23 6.2739 -1.2265
3 3 24 -4.3498 -0.2393
3 3 25 1.8493 1.3808
3 3 26 -7.5966 0.1121
3 3 27 -7.1123 -1.0831
3 3 28 9.4149 -0.3374
3 3 29 2.1848 0.7246
3 3 30 -2.3553 0.1594
3 3 31 -3.6101 -0.3583
3 3 32 2.6695 -0.0568
3 3 33 -2.1843 0.0624
3 3 34 -2.8624 -0.4814
3 3 35 -1.6015 0.0338
3 5 0 52.6533 0.2682
3 5 1 86.4257 -0.3485
3 5 2 -30.5703 -0.2908
3 5 3 -62.2186 0.2753
3 5 4 59.6715 0.5806
3 5 5 18.5145 0.7982
3 5 7 4.6576 -1.7166
3 5 8 23.6789 0.0048
3 5 9 -29.6510 1.4754
3 5 10 -27.2469 -0.1646
3 5 11 6.9273 -0.5148
3 5 12 6.8364 -0.4096
3 5 13 -20.2613 -1.3059
3 5 14 -8.5468 0.0408
3 5 15 5.1275 1.2277
3 5 16 -1.2377 -0.3024
3 5 17 -6.9429 -1.0617
3 5 18 3.9997 -0.0449
3 5 19 -2.0184 0.8243
3 5 20 -3.8105 0.3308
3 5 21 6.5834 -0.4435
3 5 22 7.8888 -0.2919
3 5 23 -0.8806 0.5129
3 5 24 -14.7916 -0.1351
3 5 25 -0.9285 -0.5660
3 5 26 13.0353 0.1365
3 5 27 5.0038 0.5365
3 5 28 -18.0060 -0.1543
3 5 29 -5.2906 -0.2441
3 5 30 12.6046 0.0603
3 5 31 -1.0047 0.0041
3 5 32 1.1346 -0.3644
3 5 33 2.0318 -0.0694
3 5 34 -13.5222 0.3411
3 5 35 -13.8479 -0.1579
3 7 0 -12.2004 0.3182
3 7 1 15.3470 -0.1327
3 7 2 0.2213 0.1838
3 7 3 -17.8221 0.4285
3 7 4 -18.2199 0.1994
3 7 5 19.2938 -1.1092
3 7 6 19.7019 -0.6264
3 7 7 6.7341 1.2592
3 7 8 -6.9001 0.6591
3 7 9 -6.9613 -1.4052
3 7 10 24.3177 -0.8590
3 7 11 2.4418 0.5136
3 7 12 -10.7554 1.1435
3 7 13 1.7342 -0.2396
3 7 14 0.2805 -1.2424
3 7 15 -12.1591 -0.3969
3 7 16 -0.0973 1.3761
3 7 17 -5.3841 0.4870
3 7 18 -1.7102 -0.9641
3 7 19 -4.1034 0.1760
3 7 20 8.9895 0.4744
3 7 21 -4.6158 -0.3752
3 7 22 -3.4881 0.0062
3 7 23 9.2987 0.4278
3 7 24 -1.3079 0.0045
3 7 25 -4.3453 -0.1456
3 7 26 1.3658 -0.1133
3 7 27 -1.8186 0.2286
3 7 28 -0.9484 0.0700
3 7 29 -11.9737 -0.3174
3 7 30 5.5538 -0.3027
3 7 31 -2.3714 0.0059
3 7 32 -0.4057 0.2286
3 7 33 7.0761 -0.1228
3 7 34 9.6528 -0.1158
3 9 0 4.1725 -0.2383
3 9 1 -19.4936 0.3397
3 9 2 6.8331 0.6155
3 9 3 6.4274 -0.6209
3 9 4 -6.8119 -0.9495
3 9 5 -11.8223 0.8049
3 9 6 -7.3029 1.1410
3 9 7 -8.3647 -1.1062
3 9 8 -1.0923 -1.4838
3 9 9 5.0312 0.6873
3 9 10 1.5192 1.6012
3 9 11 1.1498 -0.7655
3 9 12 -0.9352 -1.4145
3 9 13 -3.3257 0.5006
3 9 14 -3.5233 1.0740
3 9 15 -5.0142 -0.0490
3 9 16 0.2225 -1.0415
3 9 17 -2.5213 -0.0164
3 9 18 -5.3029 0.9668
3 9 19 0.1605 -0.2746
3 9 20 -4.6956 -0.5244
3 9 21 -3.1067 0.0382
3 9 22 -4.7608 0.1857
3 9 23 6.8189 0.2837
3 9 24 1.4554 0.1026
3 9 25 -7.3167 -0.4875
3 9 26 -1.6252 -0.2057
3 9 27 -7.5212 0.2907
3 9 28 -7.6889 0.1860
3 9 29 -4.1993 -0.4393
3 9 30 -5.4639 0.1161
3 9 31 -1.5489 0.2842
3 9 32 -5.0992 0.0452
3 9 33 -1.8498 -0.0921
3 11 0 -2.5528 -0.1574
3 11 1 -12.8748 0.0571
3 11 2 -1.2505 0.1036
3 11 3 15.0870 0.0593
3 11 4 -3.4368 -0.1776
3 11 5 -5.2978 -0.3903
3 11 6 1.7517 -0.0735
3 11 7 4.0366 0.5034
3 11 8 -10.4189 0.1354
3 11 9 1.0819 -0.5097
3 11 10 3.1065 -0.5056
3 11 11 -3.6782 0.2232
3 11 12 -7.9713 0.4983
3 11 13 7.3336 0.3101
3 11 14 -2.8230 -0.4523
3 11 15 -1.1121 -0.4381
3 11 16 -3.4705 0.4318
3 11 17 3.9024 0.6223
3 11 18 1.3041 -0.2820
3 11 19 -0.6433 -0.3578
3 11 20 9.2533 -0.0013
3 11 21 -9.8480 0.6022
3 11 22 13.7835 0.0275
3 11 23 -2.5970 -0.4891
3 11 24 9.7255 0.0639
3 11 25 -9.3092 0.2990
3 11 26 0.8449 -0.2514
3 11 27 0.9516 -0.2665
3 11 28 9.4687 0.1500
3 11 29 -6.1752 0.2766
3 11 30 5.1495 -0.1782
3 11 31 -1.4419 -0.2311
3 13 0 10.4567 0.4119
3 13 1 10.2523 0.5492
3 13 2 -2.2968 -0.3383
3 13 3 -4.8973 -0.3073
3 13 4 -2.1998 0.1445
3 13 5 -3.2569 0.5321
3 13 6 11.6782 0.0732
3 13 7 1.2826 -0.5410
3 13 8 6.4534 -0.3385
3 13 9 5.9926 0.5476
3 13 10 -6.4837 0.1218
3 13 11 0.2650 -0.3437
3 13 12 11.1546 -0.0095
3 13 13 2.8474 0.0583
3 13 14 -1.3172 0.1440
3 13 15 -0.0632 -0.1097
3 13 16 -2.1030 -0.1698
3 13 17 2.6240 0.0092
3 13 18 3.6364 0.3011
3 13 19 3.8951 0.0199
3 13 20 0.7800 -0.1124
3 13 21 5.6595 -0.0638
3 13 22 2.9013 0.0505
3 13 23 -2.1904 -0.1006
3 13 24 9.7999 0.1177
3 13 25 -6.3413 0.1962
3 13 26 -5.6708 -0.1622
3 13 27 -5.8328 -0.6352
3 13 28 9.9711 -0.1691
3 13 29 -4.4382 0.6645
3 15 0 -2.4916 -0.1129
3 15 1 -18.7555 -0.4748
3 15 2 1.9149 -0.0492
3 15 3 13.3708 0.5719
3 15 4 -4.8756 0.1242
3 15 5 -10.9578 -0.7376
3 15 6 1.0951 -0.3410
3 15 7 -2.6871 0.4217
3 15 8 -16.0981 0.2012
3 15 9 13.0300 -0.5329
3 15 10 6.4845 -0.0118
3 15 11 1.6008 0.3983
3 15 12 -10.7854 0.0512
3 15 13 1.6328 -0.3335
3 15 14 5.0049 -0.0939
3 15 15 8.4417 0.3115
3 15 16 6.8933 0.0016
3 15 17 3.2589 -0.1458
3 15 18 -3.4622 -0.0873
3 15 19 -3.1515 0.2227
3 15 20 -1.7977 0.0335
3 15 21 3.2587 -0.2517
3 15 22 7.2209 0.2061
3 15 23 3.2470 0.1698
3 15 24 10.5322 -0.5265
3 15 25 2.0176 -0.1154
3 15 26 -2.7473 0.3206
3 17 0 4.1295 0.1420
3 17 1 0.5332 -0.2763
3 17 2 0.5087 0.0429
3 17 3 -1.9997 -0.0940
3 17 4 -6.8303 -0.3017
3 17 8 -14.3921 -0.2286
3 17 9 7.5956 -0.0650
3 17 10 17.3707 0.1651
3 17 11 -2.1883 0.2206
3 17 12 -16.8181 0.0612
3 17 13 -1.4727 -0.4611
3 17 14 3.9090 0.1103
3 17 15 10.3638 0.2550
3 17 16 -5.9102 0.0535
3 17 17 0.5344 -0.1547
3 17 18 1.9275 0.1776
3 17 19 -4.8165 -0.1696
3 17 20 1.6256 0.1095
3 17 21 -2.0565 0.2950
3 17 22 -2.3841 -0.1917
3 17 23 5.4068 0.0991
3 19 0 0.0204 -0.0650
3 19 1 -0.8629 0.3844
3 19 2 -3.5967 0.1484
3 19 3 -2.3951 -0.2604
3 19 4 20.5104 -0.0588
3 19 5 10.9260 0.0600
3 19 6 -18.3155 0.0738
3 19 7 -6.0835 -0.1042
3 19 8 10.5182 -0.2215
3 19 9 0.4104 0.2248
3 19 10 -11.3195 0.2226
3 19 11 -2.5729 0.0679
3 19 12 1.9430 -0.1132
3 19 13 -1.0812 0.1270
3 19 14 -8.1164 0.1967
3 19 15 -10.0188 0.1295
3 19 16 2.1256 -0.0847
3 19 17 11.9903 0.1548
3 19 18 -3.2060 -0.2007
3 19 19 -6.5422 0.5009
3 21 0 3.4874 0.3156
3 21 1 -2.7025 -0.2325
3 21 2 2.7971 -0.2128
3 21 3 4.8005 0.3077
3 21 4 -6.8677 0.0138
3 21 5 -0.6020 -0.3910
3 21 6 0.0680 -0.1967
3 21 7 1.8017 0.9352
3 21 8 2.3547 0.4565
3 21 9 -0.8130 -0.8005
3 21 10 -11.8471 -0.6624
3 21 11 -0.8287 -0.0958
3 21 12 13.7552 0.7852
3 21 13 -11.0925 -0.6558
4 0 0 -62.5139 6.0395
4 0 2 91.1289 -1.8556
4 0 6 10.8488 6.4639
4 0 8 -31.4377 -13.5062
4 0 10 -9.2484 16.1444
4 0 12 -19.4349 -17.6280
4 0 14 -8.9607 13.5794
4 0 16 -5.7083 -8.5709
4 0 18 -9.6922 4.2127
4 0 20 6.6799 -2.3747
4 0 22 1.3126 2.0750
4 0 24 3.1527 -1.9585
4 0 26 -1.7901 1.5793
4 0 28 -6.9046 -1.2437
4 0 30 11.4281 1.1117
4 0 32 3.4956 -0.7527
4 0 34 -0.2568 0.5814
4 2 0 26.3309 -6.0801
4 2 1 -115.3353 0.9329
4 2 2 -158.8692 1.4540
4 2 3 99.6011 2.3508
4 2 4 -7.7655 0.3421
4 2 5 21.8692 -1.2729
4 2 6 -68.9015 -5.0353
4 2 7 6.4746 -1.5312
4 2 8 -6.2771 4.9360
4 2 9 22.2916 0.7381
4 2 10 26.3436 -3.6729
4 2 11 -30.3303 -1.2469
4 2 12 -24.9118 3.2824
4 2 13 16.0679 0.4111
4 2 14 17.2501 -1.7051
4 2 15 -8.9233 0.4928
4 2 16 -9.4954 1.4567
4 2 17 9.2249 -0.8858
4 2 18 -0.3137 0.2696
4 2 19 -21.6858 0.5612
4 2 20 2.5817 -0.3223
4 2 21 5.3181 0.6480
4 2 22 6.0920 0.4164
4 2 23 -11.2552 -0.9043
4 2 24 -19.2501 -0.2620
4 2 25 3.6361 0.8079
4 2 26 1.4476 0.0308
4 2 27 4.5747 -0.1469
4 2 28 11.0932 -0.1751
4 2 29 -5.6341 0.0833
4 2 30 8.9649 -0.3422
4 2 31 1.6996 -0.5994
4 2 32 7.8747 0.5803
4 2 33 -1.9983 0.6121
4 2 34 2.2342 -0.3964
4 2 35 -0.0969 -0.3994
4 4 0 -21.9805 1.8596
4 4 1 69.3793 5.0492
4 4 2 -54.5433 -1.0697
4 4 3 33.2696 -2.9338
4 4 4 6.8486 0.0761
4 4 5 -16.3022 2.4889
4 4 6 -14.2455 0.1925
4 4 7 4.8717 -3.1094
4 4 8 12.8629 -1.4050
4 4 9 -11.2733 2.0742
4 4 10 2.6918 0.8000
4 4 11 15.3698 -0.2895
4 4 12 -15.0723 -0.6185
4 4 13 -20.3026 -0.7411
4 4 14 2.2937 0.0918
4 4 15 28.1843 -0.1622
4 4 16 3.6888 0.3289
4 4 17 -21.7181 0.8407
4 4 18 1.8108 -0.8484
4 4 19 10.1653 -0.4270
4 4 20 0.2762 1.1561
4 4 21 -13.8945 -0.3776
4 4 22 -11.4977 -0.9151
4 4 23 12.6264 0.6603
4 4 24 1.6846 0.0441
4 4 25 -4.4151 -0.3144
4 4 26 -16.0073 0.4298
4 4 27 -3.6310 -0.3323
4 4 28 9.1625 -0.8953
4 4 29 0.7733 0.4726
4 4 30 -0.0863 0.4929
4 4 31 6.6384 -0.4437
4 4 32 -4.0354 -0.2964
4 4 33 -11.9598 0.0542
4 4 34 -1.0799 0.0407
4 4 35 7.3967 -0.0494
4 6 0 14.0362 -0.6558
4 6 1 -30.1949 -1.7420
4 6 2 -19.9890 0.6058
4 6 3 9.0823 1.7654
4 6 4 19.9911 0.0221
4 6 5 -16.2766 -1.9232
4 6 6 -28.4900 -0.9373
4 6 7 25.2800 1.7356
4 6 8 6.8206 1.1078
4 6 9 -12.7706 -1.3343
4 6 10 -8.3004 -1.0893
4 6 11 8.1675 0.6451
4 6 12 -7.8959 1.3809
4 6 13 -12.6487 -0.5677
4 6 14 -2.6017 -1.4497
4 6 15 -5.2465 0.4490
4 6 16 -7.2272 1.0955
4 6 17 11.2001 -0.1552
4 6 18 4.4658 -0.2848
4 6 19 -21.3846 0.5679
4 6 20 6.1145 0.1044
4 6 21 10.6665 -0.3799
4 6 22 -6.7454 -0.1620
4 6 23 -9.9241 0.3797
4 6 24 15.3573 0.3311
4 6 25 4.1319 -0.3413
4 6 26 -13.5844 -0.4987
4 6 27 4.4567 0.4167
4 6 28 2.3593 0.3070
4 6 29 -0.2327 -0.4418
4 6 30 5.6514 -0.1108
4 6 31 -2.6894 0.3315
4 6 32 5.5857 -0.0360
4 6 33 2.8862 -0.4393
4 6 34 5.2554 0.0582
4 8 0 -31.8541 0.4665
4 8 1 10.9644 -0.1566
4 8 2 15.2629 0.2562
4 8 3 -7.2221 -0.4034
4 8 4 -12.2699 -1.2954
4 8 5 8.0325 0.0134
4 8 6 -3.3682 1.3635
4 8 7 -1.6712 -1.1394
4 8 8 17.0177 -1.5674
4 8 9 6.4569 0.8489
4 8 10 -14.9076 1.3297
4 8 11 1.6214 -1.0147
4 8 12 16.0420 -0.6232
4 8 13 -0.7728 0.3569
4 8 14 -7.3568 0.5493
4 8 15 -6.7932 0.1595
4 8 16 7.2068 -0.8702
4 8 17 -2.2088 -0.0722
4 8 18 -1.8135 0.7739
4 8 19 -11.3402 -0.1781
4 8 20 5.0052 -0.1440
4 8 21 10.5015 0.1281
4 8 22 -15.4600 -0.5259
4 8 23 -4.9092 -0.0758
4 8 24 0.6057 0.5353
4 8 25 12.1089 -0.1265
4 8 26 -8.1873 -0.2821
4 8 27 -11.7111 0.0245
4 8 28 -2.2242 -0.1036
4 8 29 -0.3095 -0.1512
4 8 30 -1.0739 0.2251
4 8 31 -4.4839 0.0909
4 8 32 -1.2935 0.0715
4 8 33 0.9266 -0.1735
4 10 0 -22.3163 -1.1744
4 10 1 -24.9110 -0.0536
4 10 2 -0.1099 0.6677
4 10 3 10.3990 0.6012
4 10 4 9.1709 -0.3051
4 10 5 -10.9219 -0.6195
4 10 6 -14.9213 -0.0873
4 10 7 2.3052 0.7664
4 10 8 -1.2223 0.1094
4 10 9 -5.9938 -0.3841
4 10 10 3.6582 -0.0436
4 10 11 1.6932 0.2718
4 10 12 4.2580 -0.4121
4 10 13 2.5458 0.4191
4 10 14 -2.8416 0.5301
4 10 15 1.9787 -0.5688
4 10 16 -7.5176 -0.3188
4 10 17 9.9664 0.4724
4 10 18 3.5780 0.3822
4 10 19 0.9692 -0.3128
4 10 20 -5.5662 -0.3811
4 10 21 9.0241 0.2240
4 10 22 17.9658 0.3836
4 10 23 -5.7493 -0.2569
4 10 24 2.9393 -0.2523
4 10 25 1.6169 0.0876
4 10 26 13.4122 0.3183
4 10 27 -8.3995 -0.1829
4 10 28 1.3908 -0.0809
4 10 29 1.2629 -0.1351
4 10 30 -1.4344 -0.2841
4 10 31 -3.0632 0.0718
4 10 32 5.8294 0.3141
4 12 0 -2.0294 0.5023
4 12 1 -1.6200 0.5241
4 12 2 -0.1885 -0.5646
4 12 3 -0.4929 -0.5698
4 12 4 -12.4266 0.0941
4 12 5 -4.3649 0.5517
4 12 6 8.0980 -0.2621
4 12 7 9.0635 -0.5868
4 12 8 0.5073 0.1587
4 12 9 -1.7312 0.3096
4 12 10 6.7986 -0.2600
4 12 11 2.7873 0.0397
4 12 12 -5.9358 0.2334
4 12 13 0.1884 -0.3980
4 12 14 6.8111 -0.0683
4 12 15 -1.0211 0.4873
4 12 16 -6.8574 0.0712
4 12 17 5.1024 -0.1343
4 12 18 -2.1829 -0.4299
4 12 19 8.2773 -0.2316
4 12 20 9.9011 0.3899
4 12 21 -15.9699 0.3796
4 12 22 14.8266 -0.3520
4 12 23 6.1987 -0.3791
4 12 24 7.2425 0.0835
4 12 25 -7.2327 0.1384
4 12 26 0.5076 -0.2230
4 12 27 -0.0614 -0.0934
4 12 28 6.8067 -0.0391
4 12 29 0.7693 0.5911
4 12 30 10.5450 0.0681
4 14 0 -2.5861 0.1506
4 14 1 8.2024 -0.2308
4 14 2 4.2432 -0.0904
4 14 3 -10.0830 0.2056
4 14 4 -10.0260 0.1522
4 14 5 1.5869 -0.3594
4 14 6 6.1404 -0.1926
4 14 7 -13.0486 0.3397
4 14 8 -3.2331 0.0996
4 14 9 5.0392 -0.3669
4 14 10 4.5148 0.0934
4 14 11 -0.1908 0.0547
4 14 12 -4.2535 -0.0673
4 14 13 5.7396 0.1641
4 14 14 12.2381 0.3684
4 14 15 0.3325 -0.2807
4 14 16 3.2593 -0.3258
4 14 17 7.4165 0.1318
4 14 18 -12.1010 0.4057
4 14 19 2.9573 0.2697
4 14 20 14.9765 -0.2621
4 14 21 -1.2630 -0.3435
4 14 22 -10.1605 0.2728
4 14 23 3.5811 0.2217
4 14 24 19.8162 -0.2944
4 14 25 -5.0848 -0.2046
4 14 26 -6.0066 0.3535
4 14 27 -7.5340 0.2384
4 16 0 2.5479 0.0614
4 16 1 -6.7376 -0.6349
4 16 2 -11.6769 -0.0596
4 16 3 2.2703 0.3445
4 16 4 9.6973 -0.0596
4 16 5 -0.3158 -0.3392
4 16 6 -11.5582 0.2964
4 16 7 -4.1152 0.1874
4 16 8 -0.5715 -0.1723
4 16 9 18.1833 -0.3897
4 16 10 -7.9779 0.1172
4 16 11 -0.8921 0.4512
4 16 12 5.1343 0.2066
4 16 13 10.5370 -0.5072
4 16 14 -11.2158 -0.5533
4 16 15 1.7256 0.4909
4 16 16 6.5874 0.5252
4 16 17 6.4723 -0.4582
4 16 18 3.7104 -0.4285
4 16 19 -1.1216 0.1123
4 16 20 -1.0128 0.4785
4 16 21 -7.9499 -0.0013
4 16 22 7.9671 -0.4921
4 16 23 -4.9577 0.2247
4 16 24 8.2830 0.2176
4 16 25 15.6143 0.0749
4 18 0 6.7900 -0.0466
4 18 1 1.6041 0.4112
4 18 2 2.1965 0.0396
4 18 3 -1.8734 -0.3461
4 18 6 6.5760 -0.3130
4 18 7 9.5023 -0.0914
4 18 8 -11.0554 0.3720
4 18 9 -11.8995 0.2284
4 18 10 3.1978 0.0410
4 18 11 -3.0484 -0.1900
4 18 12 -3.0239 -0.1268
4 18 13 -1.5506 0.4526
4 18 14 -0.0966 0.4464
4 18 15 3.8950 -0.4128
4 18 16 -0.6815 -0.4906
4 18 17 -4.1042 0.5991
4 18 18 7.8800 0.3846
4 18 19 4.6019 0.1682
4 18 20 -1.2002 -0.1894
4 18 21 -6.0358 -0.0458
4 20 0 2.0182 -0.1798
4 20 1 -6.4312 0.0273
4 20 2 4.7182 0.1363
4 20 3 7.7586 0.0057
4 20 4 -10.0751 -0.2466
4 20 5 6.9495 -0.0917
4 20 6 9.5152 -0.0387
4 20 7 4.8812 0.2069
4 20 8 -8.3782 0.1578
4 20 9 4.3781 0.2387
4 20 10 -8.2132 -0.3194
4 20 11 -4.0096 0.1526
4 20 12 0.0972 0.1161
4 20 13 -1.0663 -0.6327
4 20 14 -8.3456 -0.0098
4 20 15 -8.3061 0.2675
4 20 16 2.6429 -0.1990
4 22 0 3.5750 0.8046
4 22 1 1.3746 -0.6989
4 22 2 -3.7572 -1.1143
4 22 3 2.2012 0.9452
4 22 4 -2.2812 1.2993
4 22 5 -1.8060 -0.8387
4 22 6 0.0052 -1.0831
4 22 7 0.6180 0.3334
5 1 0 -145.7233 -10.7769
5 1 1 -108.2576 -5.7730
5 1 2 -11.2335 -1.2054
5 1 3 54.1458 2.1141
5 1 4 -53.6724 -0.8002
5 1 5 -13.6907 -3.2075
5 1 6 -3.2505 -0.8976
5 1 8 -0.5952 0.1385
5 1 9 -28.1504 -1.6024
5 1 10 7.6676 0.0454
5 1 11 33.2910 0.8655
5 1 12 -16.7172 0.4845
5 1 13 -29.2522 -0.6096
5 1 14 12.6638 0.0891
5 1 15 19.0963 0.8813
5 1 16 -9.0820 -1.0672
5 1 17 -9.0948 0.2512
5 1 18 6.4293 2.8761
5 1 19 6.7145 -0.1599
5 1 20 -1.2674 -3.3838
5 1 21 -17.5947 0.2719
5 1 22 9.9504 2.3188
5 1 23 -3.6036 0.6233
5 1 24 2.9131 -0.9455
5 1 25 2.0031 -0.8767
5 1 26 -9.0359 -0.1138
5 1 27 -4.6528 0.4111
5 1 28 9.1088 0.0420
5 1 29 10.0241 0.1079
5 1 30 4.5616 0.1495
5 1 31 -8.5085 -0.6202
5 1 32 9.6378 -0.0958
5 1 33 -7.5899 0.2892
5 1 34 -0.8151 0.2525
5 1 35 3.3771 0.0356
5 3 0 53.5049 -0.2498
5 3 1 151.0800 7.6215
5 3 2 -100.6134 1.1390
5 3 3 -72.1745 -5.6417
5 3 4 -81.9159 -2.1392
5 3 5 134.2386 5.3455
5 3 6 23.8797 0.5916
5 3 7 -80.3082 -5.1758
5 3 8 -3.0093 1.3808
5 3 9 56.4931 3.3997
5 3 10 24.3759 -1.7668
5 3 11 -37.2155 -1.7016
5 3 12 2.9951 1.8583
5 3 13 25.1091 1.1731
5 3 14 -6.7449 -0.5175
5 3 15 -8.8520 -1.0949
5 3 16 16.6023 0.9690
5 3 17 -0.8165 0.6479
5 3 18 4.1123 -1.4301
5 3 19 0.9531 -0.0421
5 3 20 5.8267 1.3005
5 3 21 -14.9913 -0.4706
5 3 22 2.6464 -0.9717
5 3 23 -2.8632 0.0996
5 3 24 -9.9087 0.0529
5 3 25 4.9190 0.3117
5 3 26 -0.7741 -0.1358
5 3 27 -7.4304 -0.7251
5 3 28 7.7334 -0.1106
5 3 29 -4.4031 0.4850
5 3 30 18.9956 0.0645
5 3 31 10.8973 -0.3484
5 3 32 -5.8876 -0.2594
5 3 33 -5.0875 0.0044
5 3 34 6.7931 0.4989
5 3 35 8.4132 -0.1157
5 5 0 -21.1578 0.2825
5 5 1 -44.2602 -1.4581
5 5 2 17.0020 -0.3376
5 5 3 19.7383 0.9100
5 5 4 -24.6938 0.6393
5 5 5 -43.8154 -3.1510
5 5 6 44.1326 -1.0351
5 5 7 4.6322 2.3656
5 5 8 -35.0653 -0.1518
5 5 9 9.0760 -1.5783
5 5 10 19.2078 0.6492
5 5 11 -6.6289 0.2494
5 5 12 -30.8155 0.0797
5 5 13 7.6924 0.3103
5 5 14 3.3133 -0.9059
5 5 15 -8.1650 -0.2596
5 5 16 -9.6710 0.7893
5 5 17 8.3037 0.3795
5 5 18 0.7177 -0.1835
5 5 19 3.6196 0.2950
5 5 20 1.1040 -0.1794
5 5 21 -6.8118 -0.3851
5 5 22 -6.7894 0.0199
5 5 23 1.3434 0.2438
5 5 24 -4.8332 0.2712
5 5 25 3.5798 -0.1825
5 5 26 -1.1857 -0.4178
5 5 27 -1.5005 0.2246
5 5 28 2.0785 0.3538
5 5 29 8.1946 -0.3794
5 5 30 -16.7573 0.0181
5 5 31 -3.1158 0.4080
5 5 32 15.7665 -0.0926
5 5 33 -2.7325 -0.4679
5 5 34 -10.4848 0.2612
5 7 0 -36.7933 0.3376
5 7 1 -3.0441 -0.5784
5 7 2 21.7967 0.2753
5 7 3 7.1781 0.2210
5 7 4 -19.1686 -0.5913
5 7 5 3.4536 -0.0786
5 7 6 6.7286 0.3574
5 7 7 15.4221 -0.3547
5 7 8 -5.6841 -0.0494
5 7 9 8.4954 0.2076
5 7 10 -1.4093 0.5740
5 7 11 0.4054 0.3821
5 7 12 -0.1381 -0.5029
5 7 13 1.2344 -0.7497
5 7 14 -5.7184 0.4982
5 7 15 4.4332 0.9999
5 7 16 4.0465 -0.1922
5 7 17 -16.1296 -0.2816
5 7 18 8.4979 -0.1618
5 7 19 7.5136 0.1264
5 7 20 -8.3234 0.7818
5 7 21 -20.6891 -0.2856
5 7 22 15.7136 -1.1879
5 7 23 -0.5264 0.2938
5 7 24 -6.0417 0.6344
5 7 25 -0.2993 -0.2556
5 7 26 -9.6287 -0.1491
5 7 27 3.6356 -0.2015
5 7 28 3.3011 -0.1640
5 7 29 1.9258 0.2129
5 7 30 -3.0475 -0.1295
5 7 31 -3.3919 -0.0403
5 7 32 9.8690 0.4791
5 7 33 -5.9928 -0.1671
5 9 0 6.8888 -1.1588
5 9 1 -14.7711 -0.5005
5 9 2 -17.7390 0.5509
5 9 3 -5.8288 0.5226
5 9 4 20.1018 -0.7140
5 9 5 -4.0213 -0.4396
5 9 6 -16.0927 0.4761
5 9 7 -6.3371 0.2640
5 9 8 13.8749 -0.5737
5 9 9 -2.2018 -0.0267
5 9 10 -4.6394 0.7703
5 9 11 6.4964 -0.2334
5 9 12 15.8572 -1.0193
5 9 13 -3.6709 0.6670
5 9 14 2.4203 0.7919
5 9 15 1.0941 -0.7215
5 9 16 0.0698 -0.6090
5 9 17 2.6322 0.3607
5 9 18 3.6857 0.7355
5 9 19 6.8758 -0.4449
5 9 20 -5.6788 -0.9995
5 9 21 4.2716 0.3556
5 9 22 5.2744 1.0463
5 9 23 14.6434 -0.4390
5 9 24 -5.3917 -0.7234
5 9 25 3.6241 0.2192
5 9 26 7.8040 0.3630
5 9 27 6.0550 0.0917
5 9 28 1.0301 0.1219
5 9 29 -5.8456 -0.3352
5 9 30 1.3795 -0.3522
5 9 31 8.3015 0.3779
5 9 32 -3.4218 0.3606
5 11 0 -1.2994 -0.1861
5 11 1 7.9429 -0.0063
5 11 2 -12.5877 0.0199
5 11 3 -20.8619 -0.2316
5 11 4 -3.3867 -0.3140
5 11 5 19.4853 0.2119
5 11 6 -1.9555 -0.0991
5 11 7 -11.0657 -0.1371
5 11 8 -0.5627 0.0293
5 11 9 5.4959 0.2046
5 11 10 9.7181 -0.3501
5 11 11 -4.4350 0.3482
5 11 12 0.1210 0.5736
5 11 13 0.9049 -0.6556
5 11 14 6.1084 -0.4787
5 11 15 1.5012 0.6817
5 11 16 -7.2775 0.4244
5 11 17 11.6413 -0.3504
5 11 18 2.7997 -0.4565
5 11 19 -4.0345 0.1583
5 11 20 0.5289 0.1848
5 11 21 9.2023 0.0947
5 11 22 15.8114 -0.1684
5 11 23 -17.3766 -0.3928
5 11 24 20.5971 0.0338
5 11 25 4.2483 0.3036
5 11 26 5.3439 0.1407
5 11 27 -9.5571 -0.3273
5 11 28 6.3772 -0.1539
5 11 29 4.1138 0.5686
5 11 30 10.9535 0.0194
5 13 0 -5.7760 0.5595
5 13 1 -0.8015 0.4894
5 13 2 -1.6841 -0.7012
5 13 3 1.2887 -0.4957
5 13 4 -0.5976 0.7998
5 13 5 -3.3781 0.1031
5 13 6 -8.7652 -0.5968
5 13 7 -2.7309 -0.1431
5 13 8 9.9023 0.5148
5 13 9 4.5859 0.1127
5 13 10 8.6550 -0.0483
5 13 11 2.4968 -0.4383
5 13 12 1.7475 -0.0329
5 13 13 -5.7584 0.5613
5 13 14 10.6990 0.0833
5 13 15 3.6528 -0.4888
5 13 16 1.3575 -0.0759
5 13 17 11.7654 0.2502
5 13 18 -9.8361 0.2628
5 13 19 -5.1900 -0.0855
5 13 20 5.1204 -0.3105
5 13 21 5.6944 -0.2026
5 13 22 6.9188 0.2869
5 13 23 -10.9198 0.3900
5 13 24 -2.4969 -0.0436
5 13 25 7.1682 -0.0751
5 13 26 5.8792 -0.1525
5 13 27 -4.0308 0.0539
5 13 28 -10.4785 0.1185
5 15 0 0.9698 -0.0975
5 15 1 -3.4840 -0.6690
5 15 2 -6.4699 0.2892
5 15 3 1.2003 0.6733
5 15 4 -5.1033 -0.3675
5 15 5 -4.9946 -0.5687
5 15 6 4.6597 0.2744
5 15 7 -6.9534 0.4891
5 15 8 -1.7998 -0.0178
5 15 9 2.4633 -0.5943
5 15 10 -7.2557 -0.1123
5 15 11 8.6761 0.6470
5 15 12 9.9900 0.2874
5 15 13 -1.1844 -0.7329
5 15 14 -5.4341 -0.1937
5 15 15 10.4948 0.8355
5 15 16 11.2228 0.1156
5 15 17 0.8781 -0.5150
5 15 18 -8.9987 -0.2815
5 15 19 6.2072 0.2133
5 15 20 12.0252 0.5608
5 15 21 -13.4615 0.1650
5 15 22 -0.6911 -0.5596
5 15 23 2.5885 -0.0085
5 15 24 18.0570 0.1186
5 15 25 -14.9838 -0.0455
5 15 26 5.5153 0.2381
5 17 0 -2.0056 0.2467
5 17 1 -1.4351 0.0240
5 17 2 -10.7024 -0.1861
5 17 3 -3.8589 -0.1306
5 17 4 6.2327 0.0644
5 17 5 8.6489 0.1542
5 17 6 -5.2772 -0.0406
5 17 7 -4.6854 0.0036
5 17 8 -1.3121 0.1811
5 17 9 2.8945 0.3066
5 17 10 -4.5871 -0.0971
5 17 11 8.5386 -0.4592
5 17 12 2.2227 0.0523
5 17 13 -10.1581 0.5561
5 17 14 1.8108 -0.1284
5 17 15 10.0224 -0.6666
5 17 16 4.1724 -0.0808
5 17 17 6.2503 0.3836
5 17 18 8.7758 0.1986
5 17 19 -16.8850 -0.0738
5 17 20 1.8688 -0.0836
5 17 21 9.3636 -0.2983
5 17 22 8.9909 -0.1467
5 19 0 -7.1047 -0.2192
5 19 1 -6.6089 0.1874
5 19 2 1.1262 -0.1399
5 19 3 0.0635 -0.2321
5 19 4 6.1892 -0.0943
5 19 5 7.3925 0.3348
5 19 6 1.5790 0.0089
5 19 7 10.2040 -0.1501
5 19 8 -1.7452 -0.1915
5 19 9 -2.5813 0.2583
5 19 10 3.5190 0.1477
5 19 11 -11.7790 -0.0340
5 19 12 -7.6572 0.0663
5 19 13 -1.3543 0.0535
5 19 14 3.3675 -0.2060
5 19 15 -6.1026 0.5078
5 19 16 7.0691 -0.1764
5 19 17 4.3141 -0.2384
5 19 18 1.4421 0.1530
5 21 0 0.1946 0.5108
5 21 1 -1.3241 0.1573
5 21 2 -2.3555 -0.4803
5 21 3 -4.2421 -0.1949
5 21 4 -5.4640 0.2657
5 21 5 6.8052 0.0033
5 21 6 -5.5486 0.0651
5 21 7 -0.1227 0.4004
5 21 8 7.7058 0.4760
5 21 9 2.6359 -0.2116
5 21 10 -3.0780 -0.1903
5 21 11 1.3636 0.7329
5 21 12 -8.2524 0.2698
6 0 2 -210.4864 -10.2134
6 0 4 148.3359 0.3524
6 0 6 -134.5513 1.2229
6 0 10 -64.1380 3.8948
6 0 12 38.6937 -6.4286
6 0 14 -13.9854 8.8062
6 0 16 17.5846 -9.1864
6 0 18 -20.5336 7.9174
6 0 20 23.9908 -5.1819
6 0 22 -11.2663 2.9770
6 0 24 13.9399 -1.7712
6 0 26 2.3762 1.5783
6 0 28 -12.3795 -1.3115
6 0 30 11.9914 0.9645
6 0 32 -6.6793 -0.5066
6 0 34 9.4284 0.3465
6 2 0 -110.5343 -2.2658
6 2 1 80.0000 1.5219
6 2 2 44.5447 1.6841
6 2 3 -40.0754 -2.6459
6 2 4 -161.1580 -1.8207
6 2 5 45.6887 2.6601
6 2 6 47.8659 2.0627
6 2 7 10.5920 -3.1607
6 2 8 -34.7802 0.7127
6 2 9 12.7804 2.3721
6 2 10 39.3016 0.0387
6 2 11 -13.1582 -0.7653
6 2 12 -7.0331 1.4927
6 2 13 2.0355 0.8996
6 2 14 -1.7767 -2.4182
6 2 15 -5.7010 -0.9131
6 2 16 8.8472 3.5475
6 2 17 8.8481 1.1882
6 2 18 9.9648 -3.6411
6 2 19 -8.4361 -0.4031
6 2 20 6.5000 1.2630
6 2 21 -3.4770 -0.4476
6 2 22 8.2079 0.0575
6 2 23 -8.2572 0.3648
6 2 24 0.4353 -1.1600
6 2 25 -1.9420 -0.1290
6 2 26 0.3130 0.6552
6 2 27 3.0794 -0.3416
6 2 28 -3.3077 -0.2306
6 2 29 9.2216 0.0028
6 2 30 26.4772 0.0175
6 2 31 -9.0433 0.0255
6 2 32 0.6745 0.2341
6 2 33 10.5129 -0.1409
6 2 34 -0.9531 -0.0495
6 4 0 -37.6540 -0.5614
6 4 1 38.9606 -0.4135
6 4 2 11.4328 -0.9177
6 4 3 8.4742 -1.3263
6 4 4 -40.0078 1.4072
6 4 5 -45.1605 -0.9756
6 4 6 29.9014 -1.8816
6 4 7 26.1429 -0.4906
6 4 8 18.3580 0.4989
6 4 9 -46.2103 1.5115
6 4 10 6.0441 -0.0620
6 4 11 40.3766 -2.0901
6 4 12 -7.3453 -0.0975
6 4 13 -24.0449 1.5825
6 4 14 -0.1867 0.2099
6 4 15 2.9407 -0.9514
6 4 16 -2.5022 -0.4653
6 4 17 9.7840 0.8019
6 4 18 14.7095 0.3750
6 4 19 -6.2848 -0.9499
6 4 20 -10.3645 -0.2281
6 4 21 1.2763 0.7457
6 4 22 10.2511 -0.3063
6 4 23 -2.0942 -0.3478
6 4 24 -15.5518 0.7549
6 4 25 8.2317 -0.3129
6 4 26 8.8463 -0.6398
6 4 27 -3.4197 0.5834
6 4 28 -3.6537 0.3822
6 4 29 -3.8525 -0.4798
6 4 30 4.6743 0.1725
6 4 31 2.4777 0.2984
6 4 32 -3.2444 -0.2551
6 4 33 -7.0635 0.0611
6 4 34 -9.2206 0.4187
6 6 0 6.7346 0.6480
6 6 1 -21.5635 -1.6784
6 6 2 2.9477 0.6890
6 6 3 -26.4075 1.4110
6 6 4 16.0454 -1.0304
6 6 5 -2.7525 -0.6898
6 6 6 16.3691 0.9668
6 6 7 3.9044 0.7152
6 6 8 -13.4399 0.1074
6 6 9 11.8440 -1.0600
6 6 10 5.2021 0.1485
6 6 11 -0.0642 2.2332
6 6 12 -8.0126 0.1268
6 6 13 9.8993 -2.2338
6 6 14 -5.3422 -0.0878
6 6 15 -7.1848 2.1317
6 6 16 -3.7090 0.0148
6 6 17 13.0569 -0.7019
6 6 18 -0.3722 -0.2533
6 6 19 -9.5147 -0.0354
6 6 20 2.7766 0.7505
6 6 21 1.7858 -0.0478
6 6 22 -1.7560 -1.0088
6 6 23 -14.9165 -0.0224
6 6 24 1.1403 0.4957
6 6 25 0.0119 -0.0621
6 6 26 -4.4525 -0.0811
6 6 27 1.1092 -0.2096
6 6 28 -12.0608 0.1452
6 6 29 10.4887 0.0338
6 6 30 3.7591 -0.2883
6 6 31 -6.8972 0.1515
6 6 32 -1.9108 0.5684
6 6 33 -0.7253 -0.4786
6 8 0 -23.4261 -0.3940
6 8 1 -5.3640 -0.0062
6 8 2 -6.2315 -0.9130
6 8 3 10.4690 -0.1590
6 8 4 5.8076 0.7631
6 8 5 -13.0657 -0.2028
6 8 6 -8.6024 -0.6612
6 8 7 9.2167 0.1099
6 8 8 3.2991 -0.0933
6 8 9 0.7337 0.2294
6 8 10 -4.2856 0.9236
6 8 11 7.6265 -0.5399
6 8 12 5.8197 -1.2375
6 8 13 -0.5545 0.9007
6 8 14 -0.4165 0.7310
6 8 15 -0.8890 -0.9027
6 8 16 5.6414 -0.4253
6 8 17 -0.3185 0.5157
6 8 18 -0.6724 0.5509
6 8 19 -1.0892 -0.1900
6 8 20 5.1630 -0.9600
6 8 21 -9.6864 -0.1578
6 8 22 5.6631 0.6297
6 8 23 7.5459 0.2102
6 8 24 -0.5609 -0.1595
6 8 25 -2.5546 -0.1238
6 8 26 5.7750 -0.1792
6 8 27 19.5908 0.0630
6 8 28 -6.6161 0.2878
6 8 29 -8.0409 0.2750
6 8 30 5.6692 -0.2682
6 8 31 10.2857 -0.1392
6 8 32 5.9751 0.2884
6 10 0 3.6666 -1.1113
6 10 1 -8.6828 0.2769
6 10 2 -7.9589 1.1191
6 10 3 -9.5745 0.0030
6 10 4 6.1158 -1.0791
6 10 5 -4.1995 -0.2848
6 10 6 6.2732 0.7266
6 10 7 -2.1302 0.7442
6 10 8 -0.6069 -0.2575
6 10 9 -1.8349 -0.5603
6 10 10 9.6915 -0.2457
6 10 11 -3.8554 0.9656
6 10 12 17.3001 0.2219
6 10 13 -1.2876 -1.0640
6 10 14 3.0938 0.0403
6 10 15 14.5141 0.5920
6 10 16 0.8190 0.0091
6 10 17 -8.2971 -0.1831
6 10 18 -1.3916 0.1865
6 10 19 9.4995 -0.1879
6 10 20 2.9578 -0.1886
6 10 21 2.2991 0.2366
6 10 22 -7.0744 0.2698
6 10 23 6.2525 -0.0882
6 10 24 19.3678 -0.3499
6 10 25 -0.4902 -0.0440
6 10 26 0.2123 0.5825
6 10 27 -1.1956 0.0460
6 10 28 18.0116 -0.5588
6 10 29 -0.9274 0.3029
6 10 30 -0.4450 0.1039
6 10 31 0.8564 -0.1861
6 12 0 4.8838 0.6594
6 12 1 -1.5355 0.0280
6 12 2 -15.2413 -0.9817
6 12 3 -2.1573 -0.4806
6 12 4 -1.8716 0.8236
6 12 5 3.4413 0.4484
6 12 6 -6.2628 -0.6181
6 12 7 7.0841 -0.7027
6 12 8 8.9003 0.5229
6 12 9 3.8162 0.7713
6 12 10 0.3539 -0.2165
6 12 11 -0.8076 -0.9904
6 12 12 12.9757 0.3439
6 12 13 -5.0765 0.8906
6 12 14 2.6408 -0.3840
6 12 15 1.4689 -0.4559
6 12 16 4.6139 0.1444
6 12 17 -1.2124 0.1713
6 12 18 -5.1896 -0.1820
6 12 19 11.0705 0.2130
6 12 20 5.9608 -0.0365
6 12 21 -16.3148 -0.4399
6 12 22 3.6182 0.0936
6 12 23 -4.9902 0.4848
6 12 24 11.7172 0.1877
6 12 25 -6.3210 -0.0019
6 12 26 -0.6264 -0.2823
6 12 27 2.5144 -0.1280
6 12 28 1.2773 0.3375
6 12 29 -2.4466 0.4585
6 14 0 -6.1740 -0.0328
6 14 1 4.0495 -0.0776
6 14 2 4.1244 0.2009
6 14 3 3.2255 0.0361
6 14 4 -8.1373 -0.1697
6 14 5 -4.3168 -0.1340
6 14 6 0.2701 0.1731
6 14 7 -9.6064 0.1251
6 14 8 0.0000 0.1504
6 14 9 4.2245 -0.2790
6 14 10 0.7034 -0.2450
6 14 11 3.7343 0.4999
6 14 12 11.8346 0.3229
6 14 13 -4.3216 -0.5068
6 14 14 3.4994 -0.2215
6 14 15 2.9268 0.4059
6 14 16 -1.4710 0.2239
6 14 17 8.6533 -0.1477
6 14 18 5.6062 -0.0566
6 14 19 6.1591 -0.1355
6 14 20 -25.4576 0.2538
6 14 21 -13.5989 0.3007
6 14 23 1.3564 -0.2269
6 14 24 -19.2231 -0.0017
6 14 25 -7.1697 0.4003
6 14 26 13.0450 0.3516
6 14 27 1.7645 -0.2982
6 16 0 0.6952 0.1537
6 16 1 -2.9064 -0.2139
6 16 2 -6.4466 -0.3243
6 16 3 1.1254 0.3491
6 16 4 -7.6943 0.1926
6 16 5 6.3139 -0.1410
6 16 6 7.5590 -0.1843
6 16 7 2.3903 0.3090
6 16 8 -4.5631 0.1223
6 16 9 -7.7560 -0.1397
6 16 10 -4.4841 0.0026
6 16 11 14.5979 0.1058
6 16 12 -2.0166 -0.1110
6 16 13 4.0300 -0.0003
6 16 14 2.8095 -0.1399
6 16 15 1.2667 -0.0003
6 16 16 -3.7868 0.3182
6 16 17 3.5701 -0.0162
6 16 18 2.9258 -0.3330
6 16 19 6.5427 0.0242
6 16 20 6.5818 0.2206
6 16 21 -16.4651 -0.1319
6 16 22 -1.2814 -0.0604
6 16 23 -2.6507 0.3432
6 16 24 12.0035 0.1619
6 18 0 -5.7841 -0.2187
6 18 1 0.3807 0.0382
6 18 2 -3.9925 0.1783
6 18 3 3.7191 0.1696
6 18 4 -3.4388 -0.1170
6 18 5 -4.5943 0.1130
6 18 6 12.0185 -0.1361
6 18 7 19.2585 -0.2940
6 18 8 1.6357 0.1559
6 18 9 -8.2529 0.5597
6 18 10 0.4274 -0.1308
6 18 11 -8.2770 -0.4818
6 18 12 3.0602 -0.0558
6 18 13 -5.0414 0.2296
6 18 14 10.2795 0.1014
6 18 15 -6.2086 -0.1954
6 18 16 5.8063 -0.3037
6 18 17 4.0878 0.5681
6 18 18 19.3187 0.2353
6 18 19 -4.0451 -0.3076
6 18 20 -3.7289 0.0239
6 20 0 -5.0045 0.1191
6 20 1 -1.6888 0.2179
6 20 2 -4.5542 0.1447
6 20 3 -7.0085 -0.1530
6 20 4 -4.1283 -0.7185
6 20 5 -0.0059 0.2688
6 20 6 0.3279 0.5270
6 20 7 9.1035 -0.3200
6 20 8 5.2525 0.0176
6 20 9 -5.0693 0.2728
6 20 10 0.4751 -0.0430
6 20 11 1.5398 -0.0969
6 20 12 -1.6235 -0.2684
6 20 13 -14.4276 -0.4995
6 20 14 -2.8228 0.1025
6 20 15 6.5368 0.2230
6 22 0 9.2537 0.9190
6 22 1 -0.7921 -1.2657
6 22 2 -9.7079 -0.7290
6 22 3 9.7775 1.0271
6 22 4 8.5334 0.8868
6 22 5 -4.8783 -0.8621
6 22 6 1.2832 0.1742
7 1 0 77.4371 -15.8640
7 1 1 -19.5537 0.3427
7 1 2 -116.9495 3.7636
7 1 3 -50.3847 -4.2194
7 1 4 13.1328 -1.5983
7 1 5 37.3761 3.1518
7 1 6 -29.2712 3.6500
7 1 7 -44.3521 1.0158
7 1 8 13.0363 -2.1651
7 1 9 52.3920 -1.9046
7 1 10 -7.5071 1.7961
7 1 11 -40.4282 2.3547
7 1 12 11.7177 -0.7217
7 1 13 5.8140 -0.5631
7 1 14 -10.8334 -0.3857
7 1 15 -4.5279 0.3363
7 1 16 3.8685 0.8211
7 1 17 6.5292 -0.5558
7 1 18 4.6950 -0.9654
7 1 19 5.8965 0.5658
7 1 20 -7.0579 -0.1181
7 1 21 -5.0137 -0.6845
7 1 22 18.8403 0.9539
7 1 23 -1.8684 -0.0837
7 1 24 -6.6803 -1.2368
7 1 25 -5.5087 -0.3207
7 1 26 -3.3083 1.0108
7 1 27 1.9096 0.3931
7 1 28 4.7355 -0.5969
7 1 29 5.6796 -0.6424
7 1 30 -4.7673 0.4096
7 1 31 -0.7919 0.3052
7 1 32 10.7998 -0.3798
7 1 33 -4.3297 -0.0178
7 1 34 -0.4869 0.0783
7 3 0 -14.4768 3.6912
7 3 1 39.2856 -2.6444
7 3 2 12.0603 -3.1859
7 3 3 -38.6546 0.0749
7 3 4 -23.5958 3.8991
7 3 5 22.4683 -0.0781
7 3 6 -29.2875 -1.2384
7 3 7 -10.7902 -1.8736
7 3 8 44.5549 -0.2672
7 3 9 -15.5129 3.0947
7 3 10 -7.7907 0.3226
7 3 11 14.1507 -3.7161
7 3 12 4.6768 0.3217
7 3 13 -19.2478 3.1760
7 3 14 1.9555 -1.2911
7 3 15 1.4159 -2.6648
7 3 16 -7.6552 0.6511
7 3 17 -5.1001 1.8710
7 3 18 12.4815 -0.6099
7 3 19 2.1569 -1.5369
7 3 20 11.2386 0.2395
7 3 21 -0.8273 0.7484
7 3 22 -8.1497 -0.7313
7 3 23 3.6470 -0.0430
7 3 24 15.6922 1.0374
7 3 25 -0.1764 -0.2266
7 3 26 -15.0093 -0.5839
7 3 27 26.6454 0.0132
7 3 28 11.9240 0.3740
7 3 29 -17.7928 0.2816
7 3 30 -4.1107 0.2724
7 3 31 10.6026 -0.0910
7 3 32 -0.2735 -0.2124
7 3 33 2.4947 0.0243
7 3 34 -5.7177 0.3159
7 5 0 -19.5011 -0.6957
7 5 1 -70.4026 -0.7102
7 5 2 32.5557 0.8728
7 5 3 9.4999 -0.0943
7 5 4 -5.6976 -1.1383
7 5 5 -47.4520 -0.6409
7 5 6 37.2612 0.3827
7 5 7 1.6345 1.6356
7 5 8 11.4420 0.2535
7 5 9 3.7495 -1.8312
7 5 10 -17.3283 0.3872
7 5 11 1.4669 2.5528
7 5 12 22.7454 -0.5113
7 5 13 12.9214 -2.0417
7 5 14 -27.0292 0.4300
7 5 15 -6.0675 1.1935
7 5 16 15.4984 -0.0349
7 5 17 13.0471 0.0851
7 5 18 -14.1801 -0.3606
7 5 19 1.4818 -0.7384
7 5 20 7.8991 0.3577
7 5 21 -3.0771 0.0940
7 5 22 -1.5893 0.0828
7 5 23 0.1721 0.0878
7 5 24 -14.0890 -0.2074
7 5 25 -7.1202 0.0580
7 5 26 -1.1148 0.1922
7 5 27 11.1859 -0.4520
7 5 28 -2.2657 0.2084
7 5 29 -5.4152 0.2781
7 5 30 -0.6299 -0.4638
7 5 31 -3.3978 0.2235
7 5 32 -7.5003 0.6148
7 5 33 -1.5466 -0.6824
7 7 0 11.6735 1.0223
7 7 1 -16.8911 -0.3917
7 7 2 -17.1513 -1.5188
7 7 3 -4.1011 0.4951
7 7 4 30.0897 0.8804
7 7 5 -4.3462 -0.3396
7 7 6 -15.9192 -0.3790
7 7 7 2.6706 0.3550
7 7 8 10.1311 0.1552
7 7 9 2.7407 0.2085
7 7 10 -8.8596 -0.0572
7 7 11 6.9485 -0.5035
7 7 12 -3.8394 -0.2127
7 7 13 -6.4433 0.6001
7 7 14 5.1013 -0.1612
7 7 15 3.8565 0.1342
7 7 16 -5.1743 -0.0475
7 7 17 -3.5902 -0.8932
7 7 18 -1.2165 0.5220
7 7 19 0.9922 0.8076
7 7 20 6.6958 -0.7092
7 7 21 -14.5926 -0.4603
7 7 22 7.6033 -0.0311
7 7 23 -4.3964 0.0124
7 7 24 4.1230 0.5513
7 7 25 -2.4270 0.1201
7 7 26 0.2933 -0.4764
7 7 27 -5.2168 -0.0156
7 7 28 -11.0460 0.1952
7 7 29 12.8242 0.0999
7 7 30 1.5757 0.1834
7 7 31 -8.0441 0.0892
7 7 32 0.2016 0.0006
7 9 0 0.6187 -0.9180
7 9 1 -6.8614 0.3443
7 9 2 -13.7927 0.6731
7 9 3 2.2182 0.0861
7 9 4 14.9970 -0.6718
7 9 5 -6.4786 -0.1957
7 9 6 -6.7903 0.6206
7 9 7 -3.3268 0.3425
7 9 8 5.1236 -0.0918
7 9 9 9.7087 -0.1097
7 9 10 3.9455 -0.1776
7 9 11 -3.2131 0.4160
7 9 12 5.1407 0.1109
7 9 13 14.5567 -0.7293
7 9 14 13.5342 0.2531
7 9 15 -5.8365 0.3099
7 9 16 -11.5832 -0.4278
7 9 17 7.0845 0.1923
7 9 18 4.5282 0.5992
7 9 19 -0.6172 -0.4007
7 9 20 -1.4719 -0.5664
7 9 21 -11.1364 0.4525
7 9 22 3.4185 0.5010
7 9 23 13.8905 -0.1239
7 9 24 5.0483 -0.4290
7 9 25 -0.4517 0.1744
7 9 26 4.2761 0.5799
7 9 27 12.4760 0.0998
7 9 28 10.9880 -0.5722
7 9 29 3.3273 0.0597
7 9 30 7.6465 -0.0014
7 9 31 3.4411 0.0537
7 11 0 -2.4069 0.2837
7 11 1 2.3649 -0.0058
7 11 2 5.0926 -0.4191
7 11 3 -8.9902 -0.3797
7 11 4 -9.6998 0.6003
7 11 5 3.6964 0.0424
7 11 6 8.3069 -0.2889
7 11 7 6.3143 -0.0634
7 11 8 -2.6617 0.0215
7 11 9 -2.3551 0.2229
7 11 10 14.3930 0.2468
7 11 11 -2.2045 -0.4067
7 11 12 1.7299 -0.1114
7 11 13 0.4518 0.1910
7 11 14 6.5570 -0.0449
7 11 15 -5.3114 0.0570
7 11 16 7.3363 0.3330
7 11 17 8.7547 -0.3371
7 11 18 -2.2935 -0.4372
7 11 19 -10.5363 0.5393
7 11 20 -2.2011 0.3902
7 11 21 -0.2175 -0.5657
7 11 22 1.9909 -0.1210
7 11 23 -6.6638 0.4739
7 11 24 -3.4259 0.0789
7 11 25 -0.6344 -0.3099
7 11 26 15.0469 0.0085
7 11 27 -16.8118 0.1541
7 11 28 -0.2410 0.0190
7 11 29 3.2538 0.2278
7 13 0 -8.0009 0.0905
7 13 1 -2.0654 0.3069
7 13 2 0.8481 -0.1260
7 13 3 2.4246 -0.3255
7 13 4 -7.7068 0.0638
7 13 5 -0.0848 0.2683
7 13 6 0.7660 -0.0053
7 13 7 5.5887 -0.2442
7 13 8 -3.7629 0.5635
7 13 9 0.1682 0.1706
7 13 10 0.6461 -0.5559
7 13 11 7.8701 -0.2132
7 13 12 5.1745 0.3785
7 13 13 -6.8803 0.4223
7 13 14 5.4017 -0.2567
7 13 15 0.2203 -0.4582
7 13 16 2.3711 -0.0473
7 13 17 0.0578 0.6463
7 13 18 -4.7895 0.1286
7 13 19 -0.1347 -0.6857
7 13 20 -1.5437 0.0653
7 13 21 -1.3111 0.4920
7 13 22 0.8971 -0.2245
7 13 23 -24.9457 -0.1172
7 13 24 4.7477 0.0889
7 13 25 7.0471 0.2587
7 13 26 -13.2488 0.1820
7 13 27 3.1728 -0.2577
7 15 0 -4.3905 -0.0015
7 15 1 -1.9722 -0.0328
7 15 2 -1.2082 -0.0921
7 15 3 2.4790 0.0236
7 15 4 5.1692 -0.1131
7 15 5 7.4486 0.0372
7 15 6 -10.9151 0.0925
7 15 7 -9.3256 0.2181
7 15 8 5.2111 -0.2438
7 15 9 3.7807 -0.1025
7 15 10 -8.6581 0.1712
7 15 11 -1.1276 0.2591
7 15 12 -2.9067 -0.0444
7 15 13 3.9465 -0.2044
7 15 14 8.9476 -0.0189
7 15 15 -0.9972 0.5171
7 15 16 -10.1025 0.3304
7 15 17 6.5162 -0.5959
7 15 18 -7.4914 -0.3582
7 15 19 3.9623 0.5553
7 15 20 0.1837 0.3034
7 15 21 -4.0591 -0.2972
7 15 22 -6.9361 -0.1255
7 15 23 -9.5347 0.1186
7 15 24 11.2880 0.1802
7 15 25 -4.3073 -0.0838
7 17 0 2.5982 -0.0339
7 17 1 -0.6111 -0.0325
7 17 2 -19.8505 -0.0634
7 17 3 13.6904 0.2311
7 17 4 -3.5348 0.2186
7 17 5 6.6666 -0.1339
7 17 6 9.5524 -0.1843
7 17 7 10.1206 0.1484
7 17 8 -0.1738 0.2970
7 17 9 2.2752 -0.0862
7 17 10 -5.4436 -0.5105
7 17 11 4.2666 -0.1010
7 17 12 -1.4251 0.3796
7 17 13 -1.4571 0.2162
7 17 14 -1.9339 -0.2073
7 17 15 1.3648 -0.6498
7 17 16 4.9547 -0.2013
7 17 17 10.5188 0.6553
7 17 18 3.9689 0.4469
7 17 19 -8.2944 -0.4025
7 17 20 2.5426 -0.1435
7 17 21 4.6927 -0.1729
7 19 0 -7.1445 -0.4049
7 19 1 -1.4629 0.3741
7 19 2 -5.4193 0.0497
7 19 3 0.3050 -0.6088
7 19 4 -6.4761 -0.1184
7 19 5 -8.1734 0.6785
7 19 6 7.9815 0.1735
7 19 7 5.3355 -0.4809
7 19 8 3.4328 -0.5502
7 19 9 1.3137 0.0417
7 19 10 3.6178 0.6049
7 19 11 -17.4382 -0.0393
7 19 12 7.1847 -0.5838
7 19 13 -4.6160 -0.3196
7 19 14 -2.0774 0.5480
7 19 15 -16.7786 0.5180
7 19 16 11.0682 -0.3297
7 19 17 4.5512 -0.0504
7 21 0 -5.4951 0.0237
7 21 1 3.1585 -0.3822
7 21 2 7.9751 -0.0673
7 21 3 -6.6308 0.3320
7 21 4 -10.1080 0.4954
7 21 5 1.1476 -0.8075
7 21 6 6.1972 0.1246
7 21 7 -1.3120 0.8034
7 21 8 10.0856 0.5329
7 21 9 3.6723 -1.0442
7 21 10 1.5025 0.2964
8 0 0 48.1581 -34.6627
8 0 2 -22.2746 30.8607
8 0 4 -82.7492 -20.5578
8 0 6 68.5535 13.2712
8 0 8 -69.9981 -3.7683
8 0 10 23.0985 0.3796
8 0 12 -26.7697 0.1451
8 0 14 11.2129 1.1537
8 0 16 -5.6903 -2.7191
8 0 18 -1.4626 4.1693
8 0 20 0.3158 -4.4775
8 0 22 8.1356 3.8250
8 0 24 -7.7338 -2.4162
8 0 26 -4.6174 1.4484
8 0 28 -6.6192 -1.1458
8 0 30 0.0088 0.7735
8 0 32 5.0847 -0.8655
8 2 0 68.9794 4.0624
8 2 1 28.5907 -2.1271
8 2 2 -30.7877 -1.5542
8 2 3 -33.7860 -0.5017
8 2 4 16.6766 3.2370
8 2 5 -40.4681 0.7653
8 2 6 -19.4195 -1.0296
8 2 7 43.7949 0.2736
8 2 8 -20.5020 0.7476
8 2 9 -40.1352 1.1205
8 2 10 18.4452 -1.2386
8 2 11 28.4332 -2.3491
8 2 12 -13.9865 -0.7732
8 2 13 -39.5859 2.2118
8 2 14 -13.4437 0.8792
8 2 15 9.1405 -1.5594
8 2 16 -3.2508 -1.4816
8 2 17 -4.2303 0.5980
8 2 18 -10.8379 -0.4891
8 2 19 6.1151 -0.7384
8 2 20 7.7986 1.9012
8 2 21 4.9580 0.3046
8 2 22 3.4630 -2.3135
8 2 23 0.7101 -0.0193
8 2 24 1.6187 1.9609
8 2 25 9.4155 -0.1485
8 2 26 -4.7709 -0.5592
8 2 27 -0.4241 0.0346
8 2 28 -6.5976 0.0311
8 2 29 16.8220 0.1656
8 2 30 0.6506 0.5923
8 2 31 -6.1239 0.1755
8 2 32 -1.9492 -0.5991
8 2 33 6.4037 -0.1815
8 2 34 -5.7471 0.2665
8 4 0 -8.3859 -1.2202
8 4 1 -69.9576 -1.1401
8 4 2 5.6290 1.0807
8 4 3 5.3479 -0.5496
8 4 4 35.2722 -0.9425
8 4 5 -28.6731 0.8610
8 4 6 -1.4458 0.4587
8 4 7 -18.9160 0.4681
8 4 8 30.8289 0.4996
8 4 9 17.8688 -1.1310
8 4 10 -9.2505 -1.0976
8 4 11 -15.6476 1.4236
8 4 12 13.4602 1.2081
8 4 13 25.2740 -0.2195
8 4 14 -8.7513 -0.4676
8 4 15 -12.0748 -1.1260
8 4 16 5.1714 -0.0108
8 4 17 4.2957 1.2894
8 4 18 -6.1907 0.5391
8 4 19 -1.6817 -1.1098
8 4 20 3.4642 -0.4843
8 4 21 -1.7736 0.8358
8 4 22 -4.3280 0.7874
8 4 23 -7.4201 -0.8302
8 4 24 -2.9475 -0.3156
8 4 25 11.0909 0.9687
8 4 26 -11.2411 -0.1985
8 4 27 5.0241 -0.6855
8 4 28 5.6539 0.5854
8 4 29 8.9304 0.0923
8 4 30 -1.8504 -0.5862
8 4 31 -9.2395 0.4829
8 4 32 -7.8077 0.1891
8 4 33 -1.1660 -0.6888
8 6 0 18.5948 1.8696
8 6 1 -23.3442 0.0163
8 6 2 1.7773 -2.4159
8 6 3 -20.3901 1.1718
8 6 4 20.1284 1.4487
8 6 5 1.2272 -0.8481
8 6 6 6.0966 -0.5172
8 6 7 -14.9902 0.8147
8 6 8 5.6468 -0.3319
8 6 9 11.5487 -0.3153
8 6 10 -10.5507 0.7098
8 6 11 0.5394 0.0282
8 6 12 -5.6791 -0.8136
8 6 13 -2.9266 -0.6378
8 6 14 13.8284 -0.2369
8 6 15 3.4341 1.3586
8 6 16 -23.7409 0.4206
8 6 17 1.5118 -1.8941
8 6 18 13.9553 -0.1722
8 6 19 0.3811 1.1327
8 6 20 -2.6873 -0.0340
8 6 21 -6.5213 -0.7773
8 6 22 4.0290 -0.0908
8 6 23 -3.9158 0.4613
8 6 24 6.4626 0.2315
8 6 25 0.6230 -0.1400
8 6 26 -30.2779 0.0797
8 6 27 -7.4400 -0.1262
8 6 28 8.8135 -0.1052
8 6 29 -2.7716 0.4925
8 6 30 -16.4857 -0.0088
8 6 31 0.8792 -0.2926
8 6 32 6.8198 0.3717
8 8 0 -4.2165 -0.1676
8 8 1 12.8443 -0.4361
8 8 2 -9.4303 0.1486
8 8 3 -8.4728 0.0015
8 8 4 6.4174 -0.1040
8 8 5 5.9988 -0.0036
8 8 6 2.8417 0.0688
8 8 7 -2.0828 0.1985
8 8 8 -9.7624 0.4735
8 8 9 6.9301 0.1001
8 8 10 2.9201 -0.6700
8 8 11 2.1466 0.1512
8 8 12 1.1787 0.3002
8 8 13 -0.3313 0.0050
8 8 14 0.4520 0.2359
8 8 15 4.7353 -0.5256
8 8 16 -2.6368 -0.0684
8 8 17 -8.6306 0.9369
8 8 18 -9.2866 -0.0581
8 8 19 2.4439 -0.6398
8 8 20 9.1574 -0.2623
8 8 21 -6.9652 0.2717
8 8 22 2.4852 0.6318
8 8 23 -12.9116 0.4006
8 8 24 10.8754 -0.5299
8 8 25 5.3132 -0.2651
8 8 26 6.3023 0.4335
8 8 27 3.9484 0.1725
8 8 28 6.2460 -0.2173
8 8 29 4.9123 0.1420
8 8 30 -1.8265 -0.0852
8 8 31 1.1286 -0.1842
8 10 0 3.1035 -0.3422
8 10 1 3.7104 0.2337
8 10 2 -1.8016 0.4016
8 10 3 -7.6919 -0.5200
8 10 4 9.1019 -0.2654
8 10 5 0.7961 0.4444
8 10 6 1.2300 0.6257
8 10 7 7.6863 -0.4695
8 10 8 -5.2614 -0.6320
8 10 9 1.9562 0.1721
8 10 10 14.7220 0.6295
8 10 11 5.0687 -0.1650
8 10 12 -2.1970 -0.3184
8 10 13 2.9142 -0.4386
8 10 14 6.8486 0.0329
8 10 15 9.2836 0.6818
8 10 16 -0.9594 0.1461
8 10 17 -5.7831 -0.7569
8 10 18 -5.8812 -0.0454
8 10 19 -5.3437 0.7338
8 10 20 6.3219 -0.0656
8 10 21 -2.9006 -0.4579
8 10 22 -6.8064 0.1910
8 10 23 -0.6888 0.2214
8 10 24 -7.0235 -0.1857
8 10 25 6.7828 -0.0383
8 10 26 8.8641 -0.0800
8 10 27 -6.0236 0.0147
8 10 28 -1.6699 0.1216
8 10 29 2.3105 0.0966
8 10 30 11.2726 0.0267
8 12 0 -3.5082 0.2942
8 12 1 2.3949 -0.0502
8 12 2 1.9128 -0.1812
8 12 3 4.6955 0.1359
8 12 4 -7.2760 0.3706
8 12 5 -3.8397 0.0559
8 12 6 0.8634 -0.3509
8 12 7 12.0394 -0.1465
8 12 8 -3.5707 0.7564
8 12 9 0.9051 0.2670
8 12 10 0.6846 -0.6873
8 12 11 -4.4710 -0.3836
8 12 12 1.3949 0.5129
8 12 13 -0.8951 0.6567
8 12 14 -3.1292 -0.4211
8 12 15 -1.4647 -0.7133
8 12 16 3.4889 0.3040
8 12 17 -4.9509 0.9484
8 12 18 0.6807 -0.1161
8 12 19 -0.1729 -0.9265
8 12 20 3.0135 0.1184
8 12 21 -5.0965 0.4436
8 12 22 -10.5177 0.0216
8 12 23 -17.1134 0.0131
8 12 24 6.2583 0.0498
8 12 25 2.1598 -0.1616
8 12 26 -6.8496 -0.0638
8 12 27 -6.9097 -0.1666
8 12 28 3.3845 -0.0224
8 14 0 -0.4624 -0.1503
8 14 1 0.5384 0.5249
8 14 2 -0.5315 -0.0951
8 14 3 -0.6152 -0.3629
8 14 4 0.4410 -0.0304
8 14 5 1.0906 0.2976
8 14 6 6.8684 0.1525
8 14 7 -7.4504 0.0026
8 14 8 -22.9252 -0.3628
8 14 9 5.8013 0.0558
8 14 10 4.4659 0.5143
8 14 11 4.3875 0.1744
8 14 12 -13.2961 -0.6229
8 14 13 0.6889 -0.2362
8 14 14 6.3941 0.5104
8 14 15 -8.9025 0.3446
8 14 16 0.7829 -0.2309
8 14 17 9.2766 -0.4638
8 14 18 -10.6309 -0.1619
8 14 19 -4.3927 0.3521
8 14 20 4.5026 0.2783
8 14 21 -10.6335 -0.0819
8 14 23 -3.5948 -0.1101
8 14 24 1.6716 0.0561
8 14 25 -6.9382 0.0223
8 14 26 -4.4445 -0.0948
8 16 0 10.4803 0.2760
8 16 1 5.2241 -0.3962
8 16 2 -7.7766 -0.2476
8 16 3 -2.5853 0.3695
8 16 4 -5.0825 0.1682
8 16 5 25.5708 -0.3242
8 16 6 7.5676 -0.1626
8 16 7 0.0553 0.1525
8 16 8 -1.8051 0.1528
8 16 9 8.6903 -0.0047
8 16 10 -13.4144 -0.2353
8 16 11 -1.6530 -0.0269
8 16 12 -1.2458 0.2028
8 16 13 1.0534 -0.0201
8 16 14 -6.1629 -0.1619
8 16 15 11.3636 -0.0302
8 16 16 -2.9674 0.2987
8 16 17 -6.2073 0.2628
8 16 18 -14.6433 -0.2500
8 16 19 18.2572 -0.2805
8 16 20 2.0840 0.1171
8 16 21 -5.5704 -0.1084
8 16 22 -7.0014 0.0586
8 16 23 -4.8762 0.1625
8 18 0 -8.9134 -0.3952
8 18 1 -0.4654 0.2954
8 18 2 -6.2550 0.3949
8 18 3 4.1054 -0.2891
8 18 4 -13.7093 -0.2132
8 18 5 17.0361 0.3564
8 18 6 -3.0427 0.4334
8 18 7 -12.2642 -0.5215
8 18 8 7.2198 -0.2243
8 18 9 19.4732 0.2266
8 18 10 -2.0728 0.1323
8 18 11 -14.1065 -0.0752
8 18 12 -6.8310 -0.1212
8 18 13 -3.0594 -0.0760
8 18 14 6.9493 0.3144
8 18 15 1.8838 0.4252
8 18 16 -4.0401 0.0284
8 18 17 -12.7247 -0.4575
8 18 18 12.0060 -0.0548
8 18 19 13.9959 0.5612
8 20 0 0.3631 -0.3293
8 20 1 -3.0971 0.3306
8 20 2 -10.7583 0.3278
8 20 3 -1.8448 0.0681
8 20 4 7.6603 -0.1042
8 20 5 -3.5111 -0.3549
8 20 6 -9.2153 0.1009
8 20 7 -4.8638 0.4401
8 20 8 10.1846 0.1342
8 20 9 1.0863 -0.6910
8 20 10 0.9610 -0.0795
8 20 11 -1.6098 0.0015
8 20 12 3.4530 0.0155
8 20 13 -5.9812 -0.6381
8 22 0 -3.4491 0.5013
8 22 1 3.3104 -1.8029
8 22 2 3.8335 -0.3206
8 22 3 -1.0258 0.4792
9 1 0 12.3774 -5.9404
9 1 1 35.1543 -4.7722
9 1 2 2.1973 1.9365
9 1 3 -39.0133 4.0552
9 1 4 -13.2846 2.5191
9 1 5 -16.6868 -1.2369
9 1 6 -0.4030 1.2215
9 1 7 19.9250 -0.6634
9 1 8 -17.6660 -5.1267
9 1 9 -23.3459 2.0687
9 1 10 -16.9597 4.7810
9 1 11 29.6096 -1.3800
9 1 12 -20.2615 -3.7711
9 1 13 -45.1528 -0.6357
9 1 14 8.9245 1.3161
9 1 15 13.7379 0.8260
9 1 16 -25.2939 -0.1908
9 1 17 -13.5759 -0.9319
9 1 18 2.6792 -0.2969
9 1 19 18.2682 -0.1052
9 1 20 -0.8129 0.5159
9 1 21 -6.2007 0.0317
9 1 22 9.5496 -0.1090
9 1 23 -1.1834 -0.1079
9 1 24 -2.5765 -0.0034
9 1 25 -3.3419 0.0754
9 1 26 -7.3208 0.0881
9 1 27 -1.0253 0.3628
9 1 28 -3.9228 -0.0217
9 1 29 -9.0461 -0.4006
9 1 30 -1.0642 -0.0223
9 1 31 9.9127 0.5628
9 1 32 -1.3072 -0.5573
9 1 33 -8.7224 -0.1084
9 3 0 -12.0370 1.8558
9 3 1 -38.2395 0.1650
9 3 2 63.1656 1.3352
9 3 3 -2.0396 0.6353
9 3 4 -7.1204 0.1233
9 3 5 -29.6844 0.2206
9 3 6 49.2536 -1.9426
9 3 7 13.2471 0.2706
9 3 8 -27.7654 2.5625
9 3 9 -3.5144 0.0643
9 3 10 19.4451 -2.4209
9 3 11 6.5612 -1.0999
9 3 12 -0.0027 0.9012
9 3 13 7.5944 1.5844
9 3 14 -2.8558 -0.3138
9 3 15 -6.2697 -1.3406
9 3 16 -12.0889 0.4514
9 3 17 -5.1204 1.2008
9 3 18 -15.1942 -0.0603
9 3 19 3.5453 -1.1072
9 3 20 1.8214 -0.0620
9 3 21 -8.9978 1.5953
9 3 22 -7.7872 0.6437
9 3 23 5.4132 -1.1167
9 3 24 -7.9598 -0.0245
9 3 25 5.2536 0.7516
9 3 26 -2.1579 -0.5422
9 3 27 12.9289 -0.3321
9 3 28 -10.4363 0.8764
9 3 29 15.7644 0.0687
9 3 30 -9.1451 -0.8582
9 3 31 1.8492 0.0541
9 3 32 -7.3378 0.5373
9 3 33 1.1235 -0.2026
9 5 0 -27.0613 -0.5605
9 5 1 -53.2910 0.5110
9 5 2 5.3800 -0.7508
9 5 3 -14.9103 -0.5027
9 5 4 40.7728 0.3159
9 5 5 -4.9520 1.2681
9 5 6 -16.5858 0.1041
9 5 7 -16.2404 0.0077
9 5 8 29.6117 -0.3353
9 5 9 12.4979 -0.8234
9 5 10 -27.0521 0.2135
9 5 11 -5.3701 1.2341
9 5 12 1.4813 0.0419
9 5 13 14.9340 -1.8571
9 5 14 4.2030 -0.0147
9 5 15 -1.1636 1.4899
9 5 16 -9.1547 -0.2340
9 5 17 2.3859 -1.5445
9 5 18 -1.8233 0.4339
9 5 19 -0.0607 0.5640
9 5 20 -0.8595 0.0712
9 5 21 -8.2212 -0.2223
9 5 22 21.9956 -0.2614
9 5 23 -7.1763 0.2439
9 5 24 -24.1029 0.0959
9 5 25 -1.5988 0.0010
9 5 26 3.0629 0.2340
9 5 27 0.9972 -0.1938
9 5 28 -14.6513 -0.6444
9 5 29 -6.6260 0.5449
9 5 30 17.7254 0.5001
9 5 31 -1.0955 -0.2874
9 5 32 -3.3407 -0.2925
9 7 0 2.2994 1.3209
9 7 1 1.6020 -1.0881
9 7 2 11.1063 -1.3507
9 7 3 -0.9197 1.0133
9 7 4 -5.8093 1.2467
9 7 5 6.1799 -0.4008
9 7 6 21.0360 -0.7034
9 7 7 -9.3333 0.1042
9 7 8 -23.8247 0.8323
9 7 9 9.9284 0.0577
9 7 10 7.7385 -1.1441
9 7 11 -8.3342 0.1311
9 7 12 -3.4505 0.7351
9 7 13 -8.0095 0.1906
9 7 14 2.7427 -0.3270
9 7 15 -3.4760 -0.5010
9 7 16 -4.4544 0.2851
9 7 17 -4.0655 0.4455
9 7 18 -5.9920 -0.0593
9 7 19 -9.5328 0.1556
9 7 20 6.9252 -0.1800
9 7 21 -5.3987 -0.3405
9 7 22 -2.5744 0.3253
9 7 23 -7.3328 0.5252
9 7 24 5.0857 0.1174
9 7 25 6.2551 -0.2134
9 7 26 -11.9630 -0.1821
9 7 27 -6.7284 0.0994
9 7 28 -7.1866 0.2421
9 7 29 -2.2763 0.1010
9 7 30 -0.8124 -0.2042
9 7 31 0.6794 -0.0904
9 9 0 -1.1824 -0.6753
9 9 1 11.8666 0.4693
9 9 2 5.9157 1.0910
9 9 3 -2.4611 -0.7763
9 9 4 -7.4989 -1.0056
9 9 5 14.3036 0.2858
9 9 6 10.5441 1.2252
9 9 7 -1.9638 -0.1426
9 9 8 -8.2362 -1.3290
9 9 9 20.4789 0.0101
9 9 10 3.8402 1.0890
9 9 11 5.9421 -0.2929
9 9 12 1.1033 -0.4399
9 9 13 5.9193 -0.0692
9 9 14 -1.7972 0.1649
9 9 15 6.6122 0.3857
9 9 16 -5.6624 -0.1185
9 9 17 0.0417 -0.3339
9 9 18 -5.7600 0.0102
9 9 19 -5.5862 0.3769
9 9 20 -1.0019 -0.0932
9 9 21 -3.3029 -0.2467
9 9 22 14.5119 0.0798
9 9 23 -2.3671 0.2413
9 9 24 -5.1514 -0.0743
9 9 25 -4.4125 -0.1481
9 9 26 7.1556 0.1289
9 9 27 8.3093 0.0233
9 9 28 1.7010 -0.2643
9 9 29 -0.9336 -0.1546
9 9 30 11.0550 0.3298
9 11 0 -0.1183 0.0343
9 11 1 -22.7772 -0.3543
9 11 2 6.4082 -0.0646
9 11 3 5.3610 0.3422
9 11 4 -2.4558 0.3999
9 11 5 0.8808 0.0672
9 11 6 -4.4828 -0.2601
9 11 7 2.6259 -0.1503
9 11 8 -0.1876 0.6361
9 11 9 -2.8465 0.3033
9 11 10 -7.0118 -0.5865
9 11 11 7.0109 -0.5456
9 11 12 3.2867 0.4250
9 11 13 -10.0469 0.7371
9 11 14 -2.0961 -0.1347
9 11 15 -1.3909 -0.5858
9 11 16 -5.8917 -0.0254
9 11 17 5.8338 0.5543
9 11 18 5.5815 0.0959
9 11 19 -16.9439 -0.5047
9 11 20 -2.6891 0.0551
9 11 21 5.3902 0.1559
9 11 22 -8.5361 -0.0558
9 11 23 -0.0453 0.1512
9 11 24 -11.6750 0.0381
9 11 25 0.9220 -0.3563
9 11 26 -6.6314 -0.1416
9 11 27 6.8300 -0.0692
9 11 28 5.9739 -0.1097
9 13 0 8.2097 -0.0647
9 13 1 0.6993 0.8998
9 13 2 -16.3893 -0.0438
9 13 3 0.8990 -0.4804
9 13 4 13.0556 -0.1285
9 13 5 -0.1840 0.5805
9 13 6 -10.2895 0.2269
9 13 7 2.7826 -0.3005
9 13 8 4.6083 -0.3881
9 13 9 -7.1633 0.2173
9 13 10 -13.1349 0.1675
9 13 11 10.5267 0.0393
9 13 12 -7.2348 -0.1846
9 13 13 -2.7989 -0.1568
9 13 14 -1.9643 -0.1064
9 13 15 -1.3347 0.1057
9 13 16 -6.8677 0.1514
9 13 17 7.4516 -0.1665
9 13 18 3.4090 -0.1493
9 13 19 -9.5923 -0.1045
9 13 20 7.1492 0.0993
9 13 21 -6.8211 0.3498
9 13 22 6.7748 -0.2297
9 13 23 -10.8184 -0.6423
9 13 24 -0.4644 -0.0274
9 13 25 -10.6407 0.5895
9 13 26 -3.9423 -0.0287
9 15 0 -7.0907 0.1212
9 15 1 -1.1592 -0.5345
9 15 2 11.2140 -0.2092
9 15 3 -1.2603 0.5491
9 15 4 3.1612 0.2248
9 15 5 5.9875 -0.4302
9 15 6 8.6069 -0.1534
9 15 7 3.1438 0.2612
9 15 8 -15.0686 -0.0086
9 15 9 2.0180 -0.1098
9 15 10 -6.5949 0.0624
9 15 11 4.2188 0.1364
9 15 12 -7.5852 -0.1452
9 15 13 -0.6163 -0.1649
9 15 14 -0.3851 0.4056
9 15 15 -5.5105 0.1841
9 15 16 -1.6240 -0.3107
9 15 17 0.2154 -0.0770
9 15 18 3.6230 0.0434
9 15 19 8.6731 0.2293
9 15 20 -16.0262 -0.2047
9 15 21 -10.5474 -0.4325
9 15 22 21.7758 0.2843
9 15 23 0.4691 0.5027
9 15 24 -10.2615 -0.0675
9 17 0 10.2561 -0.0584
9 17 1 -9.3232 -0.0003
9 17 2 -10.4401 0.3219
9 17 3 28.2797 -0.0748
9 17 4 -9.1886 -0.0665
9 17 5 -13.7088 -0.1219
9 17 6 -10.3724 0.3293
9 17 7 42.7110 -0.0051
9 17 8 11.7124 0.0266
9 17 9 -21.6709 -0.1087
9 17 10 -23.1067 -0.0012
9 17 11 19.8945 -0.0164
9 17 12 10.0737 0.1351
9 17 13 0.7332 0.0991
9 17 14 -21.1588 -0.0619
9 17 15 -8.5657 -0.2803
9 17 16 9.7195 0.0717
9 17 17 26.2720 0.2780
9 17 18 -18.0185 -0.2308
9 17 19 -13.8374 -0.1603
9 17 20 5.2770 0.4788
9 19 0 1.4973 -0.1613
9 19 1 4.7107 0.3874
9 19 2 -9.6416 0.0779
9 19 3 7.1510 0.0748
9 19 4 -5.9992 -0.1364
9 19 5 -3.9936 -0.1192
9 19 6 -2.7282 0.4820
9 19 7 0.4354 -0.0799
9 19 8 -9.6498 -0.5999
9 19 9 -5.7395 0.1411
9 19 10 4.0868 0.2254
9 19 11 -3.6462 -0.2147
9 19 12 -0.9334 -0.2325
9 19 13 0.6541 0.0862
9 19 14 6.0273 0.3515
9 19 15 -5.7357 0.3501
9 19 16 -3.4862 0.0841
9 21 0 5.7322 -0.0331
9 21 1 2.8241 -1.2434
9 21 2 -4.8161 -0.0242
9 21 3 1.4830 0.9797
9 21 4 0.2184 0.5892
9 21 5 -8.0483 -1.1660
9 21 6 3.6707 -0.3768
9 21 7 7.7329 0.6552
9 21 8 -2.7626 1.2121
9 21 9 0.0389 -0.4600
10 0 0 5.9389 6.7241
10 0 2 10.0566 1.2384
10 0 4 -8.1975 -11.6805
10 0 6 -2.7960 19.3471
10 0 8 9.7005 -19.4408
10 0 10 -39.2786 13.3429
10 0 12 -1.0638 -7.2968
10 0 14 -10.6035 3.8112
10 0 16 10.4371 -2.0421
10 0 18 -9.8316 1.3629
10 0 20 7.4869 -1.3371
10 0 22 3.4644 1.4600
10 0 24 8.4352 -1.7863
10 0 26 -17.4188 1.4067
10 0 28 -2.5322 -1.1266
10 0 30 6.4166 0.6804
10 0 32 -7.8426 -0.3475
10 2 0 -33.4380 2.9619
10 2 1 -45.3676 -3.3263
10 2 2 68.3625 -2.8869
10 2 3 42.4002 -0.5338
10 2 4 -6.1674 4.6372
10 2 5 -51.3200 4.6114
10 2 6 31.9896 -5.9085
10 2 7 34.4419 -3.0796
10 2 8 -11.4195 2.1917
10 2 9 11.8209 -0.5205
10 2 10 -10.2790 -1.7996
10 2 11 -7.4204 1.4221
10 2 12 8.2416 1.1222
10 2 13 17.6949 -0.6158
10 2 14 -8.0721 -0.7286
10 2 15 -27.4913 -0.8770
10 2 16 -14.5755 0.1855
10 2 17 14.1906 1.6231
10 2 18 -15.5339 1.0996
10 2 19 -4.3479 -1.2639
10 2 20 -3.0614 -0.6132
10 2 21 -0.0889 1.2559
10 2 22 11.3942 0.1448
10 2 23 -6.8653 -0.5576
10 2 24 -5.5447 0.6711
10 2 25 -5.6509 0.4722
10 2 26 3.8294 -0.9462
10 2 27 -2.0970 -0.1435
10 2 28 -6.4749 0.7449
10 2 29 6.1310 0.2727
10 2 30 -1.8990 -0.7341
10 2 31 -4.1011 -0.0983
10 2 32 -7.7862 0.0920
10 2 33 7.6420 -0.1595
10 4 0 19.4908 -0.3209
10 4 1 -31.5244 2.9869
10 4 2 -31.0064 -0.0999
10 4 3 -36.3438 0.1804
10 4 4 78.1342 -0.2417
10 4 5 5.3323 0.1820
10 4 6 -15.2344 1.1624
10 4 7 -11.9756 0.0760
10 4 8 19.8335 -1.0065
10 4 9 0.1032 -0.1030
10 4 10 -12.5783 1.0564
10 4 11 4.1682 0.1104
10 4 12 3.6275 0.2810
10 4 13 5.5082 -0.3462
10 4 14 2.3077 -0.7164
10 4 15 9.7651 0.3232
10 4 16 -7.3944 1.2207
10 4 17 -11.7730 -0.3485
10 4 18 -6.7365 -0.8121
10 4 19 6.9764 0.4068
10 4 20 -4.8275 0.2452
10 4 21 -15.9456 -0.2062
10 4 22 -0.7904 0.3949
10 4 23 1.5992 0.1063
10 4 24 3.5077 -1.0559
10 4 25 -2.6242 0.3335
10 4 26 -22.6830 0.7079
10 4 27 9.2235 -0.7271
10 4 28 1.1478 -0.5170
10 4 29 12.7755 0.7202
10 4 30 2.6175 -0.0706
10 4 31 5.6597 -0.4751
10 4 32 -3.9665 0.3449
10 6 0 20.6441 0.2929
10 6 1 23.3957 -1.2639
10 6 2 -12.8953 -0.5711
10 6 3 -19.4044 1.0991
10 6 4 9.6795 1.2068
10 6 5 10.5143 -0.4176
10 6 6 12.9237 -1.5786
10 6 7 3.1259 0.1412
10 6 8 -19.9582 1.6921
10 6 9 -7.7731 -0.4714
10 6 10 1.6234 -1.6086
10 6 11 6.9923 0.2773
10 6 12 -13.9008 0.4201
10 6 13 -7.6650 -0.2498
10 6 14 5.9369 0.3521
10 6 15 0.7685 0.0700
10 6 16 -8.1308 -0.2420
10 6 17 -5.2712 -0.3100
10 6 18 -17.3620 0.0326
10 6 19 -9.0059 0.6795
10 6 20 21.8645 0.4361
10 6 21 -9.1940 -0.5084
10 6 22 -6.6458 -0.3734
10 6 23 -8.2156 0.6141
10 6 24 5.8459 0.3983
10 6 25 2.6043 -0.5158
10 6 26 -18.0049 -0.0984
10 6 27 -1.2119 0.5077
10 6 28 -9.5152 -0.1769
10 6 29 -20.5213 -0.1536
10 6 30 3.9648 0.3228
10 6 31 -4.8794 0.1672
10 8 0 -1.8078 -0.4431
10 8 1 9.5732 0.4003
10 8 2 9.5529 1.1201
10 8 3 4.3354 -0.7753
10 8 4 4.8421 -0.5910
10 8 5 6.9561 0.5093
10 8 6 2.8693 0.5154
10 8 7 11.1057 -0.3237
10 8 8 3.9341 -0.5232
10 8 9 1.2414 0.2579
10 8 10 -6.4937 0.2511
10 8 11 4.8574 0.0459
10 8 12 11.6756 0.0942
10 8 13 -3.5686 -0.3051
10 8 14 -3.9542 0.2350
10 8 15 -1.3944 0.6096
10 8 16 2.0106 -0.3295
10 8 17 -3.3838 -0.1746
10 8 18 -11.4186 -0.0762
10 8 19 -4.2674 -0.1912
10 8 20 2.9229 0.2804
10 8 21 0.9503 0.3828
10 8 22 7.1389 -0.3700
10 8 23 -10.3585 -0.2620
10 8 24 -7.5202 0.3866
10 8 25 4.0534 -0.1070
10 8 26 -2.0807 -0.1867
10 8 27 -0.9918 0.0790
10 8 28 4.1707 -0.1058
10 8 29 5.4836 -0.3416
10 8 30 -6.2454 0.1247
10 10 0 -15.1910 -0.5922
10 10 1 -2.3149 -0.6813
10 10 2 17.9243 0.4074
10 10 3 -7.2116 0.6314
10 10 4 -18.3851 -0.0671
10 10 5 3.7733 0.0684
10 10 6 3.7406 0.2459
10 10 7 0.9665 -0.2962
10 10 8 -11.9209 -0.1774
10 10 9 7.1574 0.3825
10 10 10 -3.7615 0.4314
10 10 11 13.3220 -0.5720
10 10 12 -1.6073 -0.5302
10 10 13 -2.0664 0.6361
10 10 14 -8.6237 0.4435
10 10 15 2.0190 -0.3880
10 10 16 -4.6616 -0.4713
10 10 17 -5.5831 0.1786
10 10 18 6.7497 0.1945
10 10 19 -3.0742 0.0400
10 10 20 -9.4108 -0.1815
10 10 21 -9.3777 -0.2688
10 10 22 12.9030 0.1976
10 10 23 9.3655 0.3239
10 10 24 -12.0128 -0.3547
10 10 25 0.8841 -0.2875
10 10 26 -2.2888 0.1506
10 10 27 5.4484 0.0063
10 10 28 -7.7213 0.0843
10 10 29 -1.8359 -0.1367
10 12 0 3.8390 0.3932
10 12 1 -7.4131 0.8677
10 12 2 -6.0356 -0.2875
10 12 3 5.4461 -0.3373
10 12 4 12.4787 -0.0978
10 12 5 -5.0899 0.2116
10 12 6 -10.3560 -0.0496
10 12 7 7.7853 -0.0321
10 12 8 4.4000 -0.1399
10 12 9 -5.5275 -0.0581
10 12 10 -5.0995 -0.2002
10 12 11 -10.5210 0.0585
10 12 12 0.1555 0.2391
10 12 13 -1.4232 0.1183
10 12 14 -11.4344 -0.3498
10 12 15 1.4923 -0.2879
10 12 16 0.7575 0.5053
10 12 17 -3.5296 0.4100
10 12 18 -7.8426 -0.3293
10 12 19 9.7404 -0.6248
10 12 20 5.5016 0.3635
10 12 21 -2.3804 0.4794
10 12 22 -0.1762 -0.3265
10 12 23 -5.5195 -0.4467
10 12 24 -17.7823 0.2588
10 12 25 4.4367 0.4681
10 12 26 -3.5616 -0.0946
10 12 27 1.9948 -0.5779
10 14 0 -20.6808 0.0361
10 14 1 -1.6368 0.0284
10 14 2 9.2675 0.2062
10 14 3 -1.9980 0.1538
10 14 4 1.4248 -0.0730
10 14 5 -3.1398 0.1057
10 14 6 9.4265 0.2236
10 14 7 -0.3476 0.0104
10 14 8 -3.9605 -0.1669
10 14 9 -0.8372 0.0801
10 14 10 -16.0065 -0.0096
10 14 11 9.0979 -0.0638
10 14 12 2.8699 -0.0714
10 14 13 4.1404 -0.0599
10 14 14 -15.4967 0.3223
10 14 15 -0.5162 0.0446
10 14 16 5.1879 -0.5161
10 14 17 1.0271 -0.2785
10 14 18 6.4581 0.2088
10 14 19 -1.3819 0.5339
10 14 20 13.8946 -0.2887
10 14 21 -11.2412 -0.3188
10 14 22 14.2645 0.2827
10 14 23 -13.7343 0.1508
10 14 24 16.6243 -0.1833
10 14 25 0.6101 -0.0645
10 16 0 0.4697 0.0945
10 16 1 -0.7596 -0.4200
10 16 2 4.7229 0.0831
10 16 3 -2.6471 0.1533
10 16 4 1.6184 0.0500
10 16 5 15.5411 -0.4815
10 16 6 -0.4972 0.0586
10 16 7 0.6561 0.3870
10 16 8 -0.3075 0.1001
10 16 9 8.7036 -0.5180
10 16 10 -5.8768 -0.3367
10 16 11 -0.6880 0.3770
10 16 12 -10.0635 0.5078
10 16 13 -3.6847 -0.3531
10 16 14 16.0339 -0.4545
10 16 15 0.3684 -0.0158
10 16 16 -14.1629 0.1015
10 16 17 -0.0687 0.2388
10 16 18 -1.6946 0.0974
10 16 19 12.4974 -0.3314
10 16 20 -1.9173 -0.2136
10 16 21 -4.7923 0.0707
10 18 0 -1.0199 0.1897
10 18 1 4.5697 0.2869
10 18 2 -0.6227 0.0229
10 18 3 3.9040 -0.0874
10 18 4 -7.9481 -0.1165
10 18 5 14.7959 0.1945
10 18 6 -18.7207 0.2858
10 18 7 -11.4577 -0.3732
10 18 8 -4.6084 -0.1682
10 18 9 11.6723 0.3485
10 18 10 -7.2255 0.4395
10 18 11 -6.9895 -0.2731
10 18 12 -3.4173 -0.5809
10 18 13 3.3978 0.4551
10 18 14 8.9776 0.7144
10 18 15 14.1062 0.0088
10 18 16 -9.6223 -0.4915
10 18 17 -7.1799 -0.2044
10 18 18 5.4335 0.3633
10 20 0 -1.1619 0.2200
10 20 1 11.2515 -0.3156
10 20 2 1.9131 -0.0667
10 20 3 -7.8720 0.5954
10 20 4 0.3918 0.0591
10 20 5 9.5873 -0.5848
10 20 6 -0.7211 -0.1538
10 20 7 -2.5001 0.7851
10 20 8 -5.2812 0.0132
10 20 9 -1.6620 -0.9297
10 20 10 0.0725 -0.2761
10 20 11 2.0124 1.0379
10 20 12 -4.5794 -0.3316
11 1 0 -9.2362 -2.5845
11 1 1 -40.4971 -0.6084
11 1 2 22.0693 1.3701
11 1 3 30.9721 -1.4153
11 1 4 16.9699 -2.2928
11 1 5 -21.8287 -0.3671
11 1 6 13.3091 -1.1234
11 1 7 17.9400 1.9051
11 1 8 7.6708 -0.1688
11 1 9 -5.5082 -1.8706
11 1 10 -9.1511 1.1252
11 1 11 22.6741 -0.5062
11 1 12 -0.7419 -2.2313
11 1 13 -19.4734 1.3249
11 1 14 4.4409 3.2552
11 1 15 -1.3132 -0.7054
11 1 16 -1.0239 -2.4928
11 1 17 -0.2814 -0.3765
11 1 18 -2.2736 1.7883
11 1 19 10.3516 1.0955
11 1 20 4.1017 -0.7147
11 1 21 -0.9537 -0.5603
11 1 22 5.8676 -0.0897
11 1 23 -7.6904 0.4194
11 1 24 11.7985 0.1665
11 1 25 -11.1074 0.2318
11 1 26 -1.5684 -0.2708
11 1 27 -4.6320 -0.3680
11 1 28 4.1388 0.0714
11 1 29 -6.5546 0.4913
11 1 30 1.4561 -0.1759
11 1 31 2.2925 -0.0750
11 1 32 -0.7969 0.2481
11 3 0 2.0648 1.0045
11 3 1 -41.0857 5.0980
11 3 2 9.6300 -1.8968
11 3 3 1.1466 -1.5660
11 3 4 39.3453 1.6198
11 3 5 8.7054 1.8872
11 3 6 -1.1357 -1.2061
11 3 7 -15.9532 -1.1831
11 3 8 20.8043 0.9778
11 3 9 27.7218 -0.0992
11 3 10 -29.5263 -1.2128
11 3 11 -11.9567 0.3778
11 3 12 17.3909 2.3447
11 3 13 15.9794 0.5416
11 3 14 1.7938 -1.5017
11 3 15 -1.5974 -0.4980
11 3 16 -16.3733 1.0649
11 3 17 6.1863 0.5840
11 3 18 -8.5941 -0.4112
11 3 19 -6.2997 -0.0199
11 3 20 -5.9424 -0.0031
11 3 21 4.6235 0.3462
11 3 22 2.7652 0.1427
11 3 23 -12.2520 -0.7833
11 3 24 0.2185 -0.6553
11 3 25 -1.1394 0.7348
11 3 26 -6.6309 0.4458
11 3 27 2.4913 -0.5920
11 3 28 -0.3226 -0.4811
11 3 29 10.4704 0.1644
11 3 30 -12.1262 0.2638
11 3 31 9.2293 -0.0678
11 3 32 -0.2044 -0.1426
11 5 0 6.6990 0.2367
11 5 1 -14.8120 -1.3194
11 5 2 -8.0928 -0.0354
11 5 3 -7.3698 1.2992
11 5 4 18.5175 -0.0625
11 5 5 -0.8309 -0.4673
11 5 6 10.7078 -0.0109
11 5 7 2.4285 -1.1166
11 5 8 -7.8018 -0.2006
11 5 9 -8.0657 0.4714
11 5 10 6.5844 0.0962
11 5 11 1.5636 -0.0291
11 5 12 -18.6125 0.1821
11 5 13 1.6301 -0.5432
11 5 14 9.1344 -0.2810
11 5 15 -3.0641 0.3337
11 5 16 -11.8132 0.1159
11 5 17 7.0045 -0.2954
11 5 18 -5.8706 0.1642
11 5 19 -13.5120 0.7274
11 5 20 0.0511 -0.1376
11 5 21 -1.3555 -0.4576
11 5 22 18.3660 -0.2191
11 5 23 -2.5417 0.3645
11 5 24 -6.7614 0.2913
11 5 25 -0.2109 -0.2233
11 5 26 1.5693 -0.3356
11 5 27 -1.7088 0.4496
11 5 28 -15.1447 0.0939
11 5 29 2.4708 -0.3082
11 5 30 12.8395 0.2290
11 5 31 -9.1809 0.1674
11 7 0 -6.8740 0.3776
11 7 1 10.3606 -0.0492
11 7 2 13.1623 0.1648
11 7 3 1.2914 0.3224
11 7 4 0.1257 0.6842
11 7 5 3.4733 -0.4284
11 7 6 4.9263 0.0731
11 7 7 12.4319 0.7202
11 7 8 -0.3824 -0.3891
11 7 9 -8.4974 -0.5540
11 7 10 -6.0126 0.0988
11 7 11 0.1652 0.5974
11 7 12 3.1305 0.5985
11 7 13 -1.4890 -0.2857
11 7 14 5.5739 -0.8100
11 7 15 -11.4308 0.1905
11 7 16 -2.1977 0.9906
11 7 17 2.8695 0.1419
11 7 18 -11.8315 -0.9327
11 7 19 -14.2685 -0.0051
11 7 20 1.3525 0.5860
11 7 21 -8.2410 -0.2217
11 7 22 -1.9516 -0.1495
11 7 23 -0.7321 0.1427
11 7 24 -8.4013 -0.0614
11 7 25 1.8287 -0.3148
11 7 26 -18.6118 -0.0144
11 7 27 0.7477 -0.1409
11 7 28 -2.9716 0.1759
11 7 29 -2.9223 -0.1293
11 7 30 -3.6777 -0.5775
11 9 0 3.5824 -0.4009
11 9 1 -7.5485 0.1700
11 9 2 -4.2631 0.4185
11 9 3 4.2445 -0.2208
11 9 4 8.3198 -0.6108
11 9 5 -1.5730 0.7033
11 9 6 -14.2952 0.6107
11 9 7 3.7862 -0.7794
11 9 8 6.9756 -0.8682
11 9 9 10.0672 0.4906
11 9 10 -6.2979 0.9116
11 9 11 9.1918 -0.4613
11 9 12 -2.0532 -0.8373
11 9 13 0.0598 0.4465
11 9 14 -4.6084 0.6950
11 9 15 5.6574 -0.1742
11 9 16 -1.5922 -0.8487
11 9 17 -2.3627 0.0248
11 9 18 -5.0138 0.6652
11 9 19 0.3801 -0.1961
11 9 20 3.3123 -0.5551
11 9 21 -6.1053 -0.0023
11 9 22 8.0931 0.4710
11 9 23 4.1295 0.0652
11 9 24 3.0847 -0.2571
11 9 25 -2.8123 -0.3239
11 9 26 -3.5349 -0.1369
11 9 27 -5.0670 0.2751
11 9 28 -5.2963 0.4614
11 9 29 9.2244 -0.3354
11 11 0 -0.3116 -0.3250
11 11 1 -11.1746 -0.0482
11 11 2 3.5204 0.2230
11 11 3 -0.8258 0.2845
11 11 4 -2.1768 -0.2238
11 11 5 -3.7856 -0.3088
11 11 6 3.6889 -0.1671
11 11 7 0.1341 0.4221
11 11 8 -18.1534 0.2282
11 11 9 3.1756 -0.4107
11 11 10 2.9011 -0.5089
11 11 11 -7.6760 0.4300
11 11 12 -6.8248 0.5135
11 11 13 6.4847 -0.1253
11 11 14 -3.5041 -0.3846
11 11 15 -25.1156 -0.0975
11 11 16 2.7367 0.2177
11 11 17 5.0238 0.3532
11 11 18 2.8403 -0.1487
11 11 19 -0.2810 -0.4897
11 11 20 0.8848 0.0495
11 11 21 -4.5346 0.5286
11 11 22 -4.2058 -0.1257
11 11 23 7.9863 -0.2618
11 11 24 -7.6972 0.1184
11 11 25 4.5329 0.4362
11 11 26 -16.1849 -0.0962
11 11 27 7.6383 -0.3537
11 13 0 -3.7724 0.4200
11 13 1 -9.6652 0.5065
11 13 2 -2.2115 -0.1176
11 13 3 5.1654 -0.2352
11 13 4 0.1513 0.2153
11 13 5 -2.7745 0.4709
11 13 6 11.9682 -0.0360
11 13 7 -3.4592 -0.5245
11 13 8 3.1698 -0.2185
11 13 9 -0.7096 0.4216
11 13 10 4.2929 0.2255
11 13 11 3.3536 -0.3103
11 13 12 -1.9447 -0.3242
11 13 13 -7.5948 0.1090
11 13 14 -6.9347 0.4238
11 13 15 11.8104 -0.1635
11 13 16 -8.7124 -0.2202
11 13 17 12.9801 -0.2068
11 13 18 -4.7116 0.0293
11 13 19 -0.0395 0.3600
11 13 20 19.4161 0.1509
11 13 21 -1.7511 -0.1699
11 13 22 0.8318 0.0040
11 13 23 -5.4994 -0.1986
11 13 24 12.0069 0.0475
11 13 25 -5.4704 0.4001
11 15 0 -4.1657 -0.1026
11 15 1 1.4301 -0.5826
11 15 2 -2.7627 0.3275
11 15 3 -4.2426 0.4447
11 15 4 6.2343 -0.1510
11 15 5 4.1035 -0.6254
11 15 6 10.3854 -0.0015
11 15 7 -3.7394 0.4639
11 15 8 -10.1495 0.1629
11 15 9 5.5739 -0.5726
11 15 10 -4.9914 -0.3364
11 15 11 -3.3019 0.4236
11 15 12 -4.2729 0.3102
11 15 13 6.8543 -0.3891
11 15 14 10.8648 -0.3517
11 15 15 -11.2627 0.2360
11 15 16 -9.0077 0.2635
11 15 17 2.3124 0.2500
11 15 18 14.0888 -0.4481
11 15 19 -1.2519 -0.3304
11 15 20 9.8766 0.3324
11 15 21 1.4117 0.2086
11 15 22 7.9500 0.1528
11 17 0 2.0098 0.4221
11 17 1 -6.7533 -0.0500
11 17 2 -7.4893 -0.2159
11 17 3 7.9506 -0.0167
11 17 4 1.9877 0.1340
11 17 5 4.8158 0.0500
11 17 6 -9.9189 -0.0952
11 17 7 -8.5295 -0.1935
11 17 8 -2.6957 0.1625
11 17 9 3.8707 0.3719
11 17 10 -7.6993 0.0304
11 17 11 -5.5057 -0.3562
11 17 12 11.6385 -0.1546
11 17 13 6.4662 0.1917
11 17 14 -1.6960 0.3150
11 17 15 -1.9805 -0.0972
11 17 16 6.2033 -0.2300
11 17 17 16.5483 -0.5932
11 17 18 -8.3975 0.0126
11 17 19 -0.0820 0.6083
11 19 0 8.5183 0.0171
11 19 1 -5.9146 0.1341
11 19 2 2.4923 0.0204
11 19 3 14.5873 -0.0144
11 19 4 1.3267 -0.2657
11 19 5 -2.2430 0.3376
11 19 6 5.2598 -0.2392
11 19 7 3.2367 -0.2417
11 19 8 -20.4011 0.1691
11 19 9 -9.6502 -0.1437
11 19 10 3.0738 -0.5095
11 19 11 -0.8230 0.7362
11 19 12 -0.7970 -0.1328
11 19 13 -1.0283 -0.6030
11 19 14 8.0290 -0.0920
11 21 0 -0.2219 0.3639
11 21 1 -6.0120 -1.3754
11 21 2 4.2171 0.2648
11 21 3 2.9980 0.5156
11 21 4 1.8296 -0.2881
11 21 5 -4.8927 -0.8389
11 21 6 -5.9810 -0.2614
12 0 0 15.4565 -12.8291
12 0 2 0.2485 3.6767
12 0 4 24.9768 -2.8232
12 0 6 9.0226 2.6453
12 0 8 24.1115 -5.6660
12 0 10 -10.7677 9.1863
12 0 12 19.6319 -8.4729
12 0 14 -13.7521 7.3925
12 0 16 30.3613 -5.5092
12 0 18 -1.5881 3.8388
12 0 20 4.3559 -2.3619
12 0 22 5.5337 0.7750
12 0 24 -0.9282 -0.3503
12 0 26 11.8026 0.7202
12 0 28 2.7311 -0.5936
12 0 30 3.2797 0.7022
12 0 32 1.9683 -0.1975
12 2 0 -2.1118 -4.3211
12 2 1 -18.0943 1.1065
12 2 2 12.6464 3.1578
12 2 3 -1.7949 2.9014
12 2 4 10.6972 -2.4001
12 2 5 13.1753 -2.4335
12 2 6 23.3742 -1.4761
12 2 7 -15.6137 -0.0743
12 2 8 -15.6874 3.1028
12 2 9 21.3273 1.5657
12 2 10 6.5437 -2.9061
12 2 11 -3.7547 -1.4200
12 2 12 -2.8390 2.9677
12 2 13 2.7915 0.8806
12 2 14 4.3459 -1.5091
12 2 15 2.7037 0.4694
12 2 16 -2.6427 0.8946
12 2 17 2.9753 -0.6835
12 2 18 -6.3463 0.0201
12 2 19 11.1997 0.7951
12 2 20 -4.4523 -0.8517
12 2 21 8.9922 -0.3065
12 2 22 14.7921 0.7671
12 2 23 -18.1743 -0.1326
12 2 24 9.5774 -0.6086
12 2 25 -5.6221 0.2639
12 2 26 4.0850 -0.1471
12 2 27 -11.5808 -0.2216
12 2 28 6.3737 0.2875
12 2 29 -0.6764 0.0468
12 2 30 1.4055 -0.2218
12 2 31 2.5708 -0.1914
12 4 0 32.2704 1.6368
12 4 1 -0.0585 2.8298
12 4 2 -22.1334 -1.3559
12 4 3 -24.1714 -3.3185
12 4 4 21.8040 0.5362
12 4 5 23.5009 2.1425
12 4 6 16.8310 -0.0473
12 4 7 -7.7684 -2.5478
12 4 8 -16.1448 -0.0318
12 4 9 2.5136 1.1805
12 4 10 11.0583 0.5700
12 4 11 -2.8008 -0.5036
12 4 12 -7.6095 -0.7644
12 4 13 -4.9805 0.5725
12 4 14 0.3297 0.6197
12 4 15 15.0584 -0.5717
12 4 16 1.0153 -0.3585
12 4 17 -9.7980 0.5509
12 4 18 -10.2448 -0.7580
12 4 19 13.5832 -0.1350
12 4 20 1.9806 0.8783
12 4 21 2.5541 -0.0968
12 4 22 4.1096 -0.9166
12 4 23 -0.7874 0.1528
12 4 24 3.8152 0.2174
12 4 25 13.9184 -0.3996
12 4 26 -8.9414 0.5254
12 4 27 4.1480 0.1614
12 4 28 -2.2917 -0.7108
12 4 29 7.1778 0.2868
12 4 30 -9.9047 0.8610
12 4 31 16.0994 -0.2869
12 6 0 -25.6630 -0.0277
12 6 1 -1.5949 -0.9190
12 6 2 14.2700 0.8055
12 6 3 10.7871 1.2551
12 6 4 -15.0106 0.1443
12 6 5 -11.4737 -1.5669
12 6 6 11.8451 -0.0549
12 6 7 12.2537 1.7399
12 6 8 -4.9775 0.3128
12 6 9 -10.6838 -1.3958
12 6 10 -1.2370 -0.7714
12 6 11 1.0261 1.2337
12 6 12 1.3823 1.1874
12 6 13 -3.1856 -0.7058
12 6 14 -6.4286 -0.8313
12 6 15 8.2662 0.3846
12 6 16 -0.5626 0.5090
12 6 17 -13.1454 0.0273
12 6 18 -14.4743 -0.3371
12 6 19 -5.7275 0.1553
12 6 20 -5.0236 0.5326
12 6 21 -4.3085 -0.1246
12 6 22 12.7962 -0.5823
12 6 23 -6.0635 -0.1793
12 6 24 -18.2079 0.1923
12 6 25 -4.5586 -0.0172
12 6 26 0.7756 -0.2009
12 6 27 9.0569 0.0842
12 6 28 -15.2514 0.3629
12 6 29 -17.9329 -0.6278
12 6 30 7.7709 -0.5881
12 8 0 1.6194 0.8576
12 8 1 5.5548 0.1356
12 8 2 3.8254 -0.2254
12 8 3 -12.1547 -0.1101
12 8 4 11.9183 -0.8889
12 8 5 12.1607 0.3652
12 8 6 -8.6289 0.9754
12 8 7 -5.0994 -0.7649
12 8 8 5.5490 -1.3169
12 8 9 7.7790 0.5562
12 8 10 1.2549 0.9226
12 8 11 -3.4965 -0.6872
12 8 12 -4.9513 -0.4032
12 8 13 -9.4970 0.5082
12 8 14 13.2800 0.1230
12 8 15 9.2557 -0.2598
12 8 16 0.8630 -0.4701
12 8 17 -6.3598 -0.1056
12 8 18 -4.2840 0.6436
12 8 19 2.7172 0.1327
12 8 20 -2.2495 -0.5084
12 8 21 -4.0100 -0.4433
12 8 22 -0.6140 0.0796
12 8 23 5.3136 0.1261
12 8 24 2.8458 0.2044
12 8 25 -4.1225 -0.0160
12 8 26 -17.7637 -0.2949
12 8 27 12.2427 -0.0927
12 8 28 0.3852 0.2222
12 8 29 -9.2694 -0.0020
12 10 0 -5.8990 -1.0523
12 10 1 7.5042 -0.0457
12 10 2 3.5986 0.6659
12 10 3 -12.2405 0.7532
12 10 4 -3.9402 -0.1801
12 10 5 -5.0626 -0.7185
12 10 6 -9.9103 -0.1020
12 10 7 3.4436 0.8897
12 10 8 3.0359 0.3096
12 10 9 -3.1423 -0.5910
12 10 10 -16.3959 -0.2354
12 10 11 14.4772 0.3938
12 10 12 -1.1493 -0.0701
12 10 13 3.5052 0.1791
12 10 14 -12.1740 0.0939
12 10 15 -5.5134 -0.5285
12 10 16 1.9656 -0.2000
12 10 17 -6.8019 0.4494
12 10 18 8.8998 0.1797
12 10 19 1.3779 -0.4574
12 10 20 3.0216 -0.0791
12 10 21 -3.5940 0.2168
12 10 22 3.1957 0.2355
12 10 23 -9.5333 0.1557
12 10 24 4.6592 -0.3548
12 10 25 8.8436 -0.0972
12 10 26 -0.3130 0.4423
12 10 27 -6.0446 -0.0622
12 10 28 -10.7733 -0.0686
12 12 0 7.3378 0.5260
12 12 1 -9.8621 0.2391
12 12 2 -9.7882 -0.3893
12 12 3 -0.5161 -0.6123
12 12 4 13.5265 0.2007
12 12 5 5.9314 0.5646
12 12 6 -4.0241 -0.3559
12 12 7 -3.3521 -0.7828
12 12 8 10.3774 -0.0619
12 12 9 7.2571 0.3946
12 12 10 1.4978 0.0334
12 12 11 -4.6268 -0.1046
12 12 12 6.5188 0.1067
12 12 13 -10.1250 -0.2189
12 12 14 -0.6779 0.0530
12 12 15 -1.7628 0.3482
12 12 16 3.4476 0.0249
12 12 17 -1.3724 -0.4714
12 12 18 -2.6985 -0.0381
12 12 19 12.7993 0.5232
12 12 20 2.0821 0.0711
12 12 21 -0.0755 -0.0774
12 12 22 4.4012 -0.2355
12 12 23 4.2204 -0.3659
12 12 24 -10.2816 0.3215
12 12 25 -2.5856 0.7477
12 12 26 -7.0243 -0.1994
12 14 0 -10.7199 -0.2502
12 14 1 6.4297 -0.1586
12 14 2 -2.7478 0.3364
12 14 3 -7.1415 -0.0174
12 14 4 5.2865 0.2052
12 14 5 -7.7971 -0.1903
12 14 6 7.1984 -0.1362
12 14 7 -0.5814 0.2644
12 14 8 -1.0803 0.1912
12 14 9 -4.4239 -0.4153
12 14 10 1.4370 -0.1376
12 14 11 2.2375 0.3210
12 14 12 3.3149 0.1850
12 14 13 7.6796 -0.1516
12 14 14 -9.4401 -0.0805
12 14 15 -2.5615 -0.0852
12 14 16 -6.4579 -0.0636
12 14 17 11.2921 0.4304
12 14 18 9.8915 -0.0635
12 14 19 5.4010 -0.4954
12 14 20 3.3950 0.1011
12 14 21 -12.4166 0.4066
12 14 22 23.3019 0.3748
12 14 23 -7.5727 -0.2256
12 16 0 -6.9056 0.2155
12 16 1 3.5679 -0.3696
12 16 2 -9.5228 -0.1616
12 16 3 -4.7555 0.3469
12 16 4 2.6760 0.0468
12 16 5 6.2640 -0.2950
12 16 6 -7.1529 -0.1723
12 16 7 -4.0969 0.1167
12 16 8 3.2544 -0.0191
12 16 9 -4.6497 -0.0747
12 16 10 -4.3560 -0.0410
12 16 11 -10.2805 0.0549
12 16 12 3.0106 0.1127
12 16 13 -1.6620 0.0046
12 16 14 14.4234 -0.3998
12 16 15 6.0078 -0.0228
12 16 16 8.0394 0.3300
12 16 17 -13.9603 -0.2864
12 16 18 -10.4578 -0.0623
12 16 19 32.5276 0.3857
12 16 20 7.2528 0.2812
12 18 0 -1.1217 0.0894
12 18 1 8.7643 0.2436
12 18 2 5.0591 -0.1464
12 18 3 -4.7339 -0.4107
12 18 4 1.0794 0.0823
12 18 5 9.1322 0.5569
12 18 6 0.2731 -0.5688
12 18 7 -19.0326 -0.5739
12 18 8 -6.9693 0.1987
12 18 9 -6.2341 0.5772
12 18 10 -4.0092 0.0837
12 18 11 -1.3679 -0.3880
12 18 12 3.9069 -0.2224
12 18 13 -1.5523 0.1671
12 18 14 18.7467 0.1459
12 18 15 12.2135 0.0615
12 18 16 -5.0793 0.1951
12 20 0 4.6666 0.1128
12 20 1 -9.2549 -0.7581
12 20 2 8.7902 0.0710
12 20 3 0.7971 0.1939
12 20 4 11.9539 -0.6121
12 20 5 -6.0399 -0.5106
12 20 6 4.4819 0.4988
12 20 7 8.2966 0.7541
12 20 8 -4.8776 -0.5417
12 20 9 -9.2468 -0.3815
12 20 10 0.0622 0.0144
13 1 0 1.8848 -3.7100
13 1 1 1.1465 -3.5219
13 1 2 -5.7813 -3.3310
13 1 3 -9.2514 2.3915
13 1 4 24.3884 2.1376
13 1 5 -10.9970 -1.3153
13 1 6 -2.8409 0.3940
13 1 7 1.3729 0.8734
13 1 8 6.8997 0.1188
13 1 9 -2.4772 -1.7531
13 1 10 5.0013 0.5629
13 1 11 -6.3861 2.1410
13 1 12 -1.2248 0.5345
13 1 13 4.6248 -1.2672
13 1 14 6.2649 -0.2866
13 1 15 -6.6900 0.3732
13 1 16 -0.5170 -0.4101
13 1 17 1.4591 0.3776
13 1 18 11.7882 0.9339
13 1 19 16.8972 -0.0011
13 1 20 -0.1302 -1.5868
13 1 21 1.6927 -0.1670
13 1 22 -0.0974 1.4099
13 1 23 3.6212 0.1838
13 1 24 7.7640 -0.9187
13 1 25 -10.1600 -0.4189
13 1 26 9.0634 0.4308
13 1 27 -0.9729 0.2941
13 1 28 7.4225 -0.0242
13 1 29 0.5523 -0.2085
13 1 30 5.4982 0.1676
13 1 31 0.9262 -0.3438
13 3 0 -20.6096 -0.8221
13 3 1 22.5611 2.5052
13 3 2 17.1622 2.8154
13 3 3 -20.4814 -2.8718
13 3 4 -0.6947 -1.7483
13 3 5 19.1201 3.3917
13 3 6 -0.1746 0.3646
13 3 7 5.1215 -4.1562
13 3 8 -8.2750 0.3519
13 3 9 -3.1394 3.0713
13 3 10 -0.1074 -0.0045
13 3 11 5.0332 -1.1790
13 3 12 -14.7606 0.2176
13 3 13 -1.5612 0.9188
13 3 14 12.9647 -1.0037
13 3 15 6.3063 -0.8947
13 3 16 -9.5156 0.7246
13 3 17 9.3386 0.4293
13 3 18 -7.2461 -0.8201
13 3 19 9.4151 -0.1679
13 3 20 5.8654 0.4091
13 3 21 6.0300 -0.6328
13 3 22 -3.2743 -0.6063
13 3 23 4.3899 0.2426
13 3 24 10.2619 0.5842
13 3 25 -4.1909 -0.0140
13 3 26 5.2701 0.0191
13 3 27 4.0799 -0.3254
13 3 28 -7.0415 -0.1389
13 3 29 1.5639 0.3168
13 3 30 -2.5652 0.5435
13 3 31 6.1967 0.1653
13 5 0 8.1674 0.1201
13 5 1 1.0702 -0.2860
13 5 2 0.4706 0.0418
13 5 3 -2.0519 0.4906
13 5 4 -19.1598 0.3570
13 5 5 1.2969 -2.3288
13 5 6 17.3066 -0.6231
13 5 7 5.4301 1.7909
13 5 8 -5.7448 0.3941
13 5 9 2.4448 -0.6824
13 5 10 6.3145 0.0590
13 5 11 -16.0178 0.6749
13 5 12 10.2779 -0.0591
13 5 13 5.3104 -0.0770
13 5 14 -7.1638 -0.2199
13 5 15 2.0731 -0.2260
13 5 16 -4.4260 0.4263
13 5 17 -8.0740 0.8030
13 5 18 0.3956 -0.5837
13 5 19 8.4225 -0.2402
13 5 20 -6.6313 0.1811
13 5 21 -3.0008 -0.1933
13 5 22 -1.0167 0.1597
13 5 23 13.4610 0.1508
13 5 24 0.6627 -0.1842
13 5 25 -0.4199 -0.0294
13 5 26 -16.7139 -0.2056
13 5 27 -1.3229 0.0182
13 5 28 -4.9171 0.5173
13 5 29 9.0065 -0.5248
13 5 30 -5.6371 -0.4288
13 7 0 -21.7901 0.0957
13 7 1 -6.8745 -0.0264
13 7 2 5.9825 0.3879
13 7 3 11.0948 -0.0739
13 7 4 0.1147 -0.4495
13 7 5 -18.3810 0.0566
13 7 6 -5.5213 -0.2543
13 7 7 13.8511 -0.0198
13 7 8 0.0957 0.2652
13 7 9 -13.5793 -0.1813
13 7 10 -7.0310 0.0906
13 7 11 -3.1586 -0.0258
13 7 12 3.4093 -0.6010
13 7 13 -0.5748 -0.4390
13 7 14 -10.0551 0.6739
13 7 15 -6.4052 0.4580
13 7 16 23.0551 -0.5241
13 7 17 4.7619 -0.7184
13 7 18 -23.4560 0.0536
13 7 19 -12.9830 0.1491
13 7 20 7.2956 0.5364
13 7 21 1.9111 -0.1031
13 7 22 -8.7420 -0.8901
13 7 23 3.9435 -0.1112
13 7 24 4.3426 0.5241
13 7 25 3.4135 -0.1087
13 7 26 -19.2082 -0.0473
13 7 27 -1.5766 0.1561
13 7 28 3.5635 -0.0989
13 7 29 8.1059 0.2224
13 9 0 3.4638 -0.6211
13 9 1 -4.5014 -0.0582
13 9 2 2.3834 0.1304
13 9 3 0.6465 0.7515
13 9 4 -0.5694 -0.2878
13 9 5 0.9047 -0.5417
13 9 6 -2.0964 0.0593
13 9 7 -3.2760 0.4192
13 9 8 -2.3315 0.0381
13 9 9 7.1581 -0.1922
13 9 10 4.3949 0.2000
13 9 11 2.9344 -0.0202
13 9 12 -6.6928 -0.4512
13 9 13 0.3303 0.4316
13 9 14 -1.1246 0.4805
13 9 15 -9.8224 -0.6177
13 9 16 0.5104 -0.5499
13 9 17 23.2821 0.5195
13 9 18 8.3550 0.7050
13 9 19 -18.9816 -0.4792
13 9 20 -10.1173 -0.3667
13 9 21 5.1214 0.2657
13 9 22 6.5302 0.4359
13 9 23 -4.7609 -0.0519
13 9 24 6.9348 -0.5091
13 9 25 -8.4998 0.1060
13 9 26 -3.4421 0.2640
13 9 27 5.7492 0.0861
13 9 28 -3.0175 0.2228
13 11 0 -0.4671 0.4715
13 11 1 -0.8979 -0.0643
13 11 2 0.5558 -0.1865
13 11 3 -6.4389 -0.3106
13 11 4 1.5098 -0.0473
13 11 5 7.4661 -0.1923
13 11 6 2.0118 0.0295
13 11 7 -9.1688 -0.0998
13 11 8 1.2091 -0.2583
13 11 9 13.9646 0.0453
13 11 10 -2.1015 -0.0221
13 11 11 1.5540 0.0983
13 11 12 -9.2469 0.2612
13 11 13 8.1219 -0.4314
13 11 14 12.3794 -0.4006
13 11 15 -14.9928 0.5400
13 11 16 -5.7522 0.4079
13 11 17 -3.6286 -0.5616
13 11 18 21.7908 -0.3260
13 11 19 -5.7041 0.5699
13 11 20 4.6054 -0.0067
13 11 21 11.5530 -0.1731
13 11 22 2.6260 -0.0659
13 11 23 -11.5932 -0.1566
13 11 24 2.5878 0.3037
13 11 25 5.8192 0.4306
13 11 26 1.7565 -0.1686
13 13 0 -9.7872 0.1468
13 13 1 -9.1214 0.2967
13 13 2 -1.8767 -0.1484
13 13 3 3.0332 -0.4180
13 13 4 -0.2467 0.2909
13 13 5 -6.3915 0.2568
13 13 6 5.4863 -0.2374
13 13 7 4.7902 -0.1697
13 13 8 2.2735 0.5300
13 13 9 -10.6579 0.1781
13 13 10 17.4813 -0.3036
13 13 11 9.7841 -0.2776
13 13 12 -3.7487 0.1877
13 13 13 -3.1776 0.4571
13 13 14 5.8345 0.2237
13 13 15 -6.2966 -0.5882
13 13 16 -9.7971 -0.2919
13 13 17 16.8150 0.3860
13 13 18 -4.5915 0.1054
13 13 19 5.2876 -0.2579
13 13 20 4.5555 0.0714
13 13 21 -7.4194 -0.1247
13 13 22 -1.7903 0.1468
13 13 23 -4.4294 0.1273
13 13 24 3.3242 -0.5318
13 15 0 -8.7800 0.1382
13 15 1 -10.9706 -0.2437
13 15 2 -4.3975 -0.0293
13 15 3 2.7689 0.1838
13 15 4 3.9610 -0.2854
13 15 5 -3.8613 -0.3553
13 15 6 1.6823 0.0951
13 15 7 -4.8160 0.3193
13 15 8 -9.4473 -0.1303
13 15 9 -1.9534 -0.5589
13 15 10 4.4110 -0.1003
13 15 11 -6.9877 0.5604
13 15 12 -7.2496 0.2266
13 15 13 -1.2634 -0.3650
13 15 14 14.3515 -0.3875
13 15 15 -1.0261 0.5145
13 15 16 -3.1307 0.1648
13 15 17 11.3668 -0.2094
13 15 18 3.3143 -0.0606
13 15 19 -4.6089 0.2230
13 15 20 17.0730 0.1387
13 15 21 18.0111 -0.2122
13 17 0 -10.6398 0.2543
13 17 1 -1.9386 -0.1449
13 17 2 -4.2537 -0.5224
13 17 3 10.6336 -0.1178
13 17 4 -8.5456 0.3569
13 17 5 -4.8035 0.5213
13 17 6 -0.8467 -0.5695
13 17 7 -10.2602 -0.5518
13 17 8 -3.2768 0.3415
13 17 9 -16.0507 0.6118
13 17 10 3.8534 -0.2065
13 17 11 -5.1985 -0.3962
13 17 12 7.2563 -0.0017
13 17 13 -0.3984 0.4418
13 17 14 8.5181 0.4181
13 17 15 -2.4471 -0.6419
13 17 16 9.5684 -0.4239
13 17 17 22.6638 0.0466
13 19 0 3.1554 -0.2344
13 19 1 2.0411 0.4767
13 19 2 14.3915 0.2841
13 19 3 2.0098 -0.2736
13 19 4 4.7261 -0.4756
13 19 5 -11.6520 -0.2109
13 19 6 19.3026 0.6177
13 19 7 5.8978 0.4835
13 19 8 -6.0176 -0.3831
13 19 9 -23.1929 -0.2748
13 19 10 -0.4630 0.5412
13 19 11 9.4225 0.7346
13 19 12 9.0634 -0.4975
13 21 0 4.4145 0.8445
13 21 1 -9.2226 -1.7492
13 21 2 6.5147 -0.1847
13 21 3 -8.0589 0.0684
14 0 0 -18.5739 5.7888
14 0 2 8.1290 -0.6611
14 0 4 0.0993 -1.0957
14 0 6 -2.3265 3.7031
14 0 8 6.3024 -0.5637
14 0 10 -3.3945 1.7292
14 0 12 -2.5372 -3.3200
14 0 14 2.2872 4.1386
14 0 16 -12.7787 -4.1767
14 0 18 8.9406 3.5402
14 0 20 16.6479 -2.9549
14 0 22 -20.4391 2.2515
14 0 24 7.7720 -1.1069
14 0 26 5.6126 0.7594
14 0 28 10.5339 -0.5706
14 0 30 6.6453 0.4042
14 2 0 14.4491 1.3131
14 2 1 -4.8696 3.1043
14 2 2 -14.2750 0.0555
14 2 3 -13.3105 -3.7584
14 2 4 15.9156 0.3156
14 2 5 3.2668 2.6410
14 2 6 -15.1758 1.1548
14 2 7 -5.8474 -0.8001
14 2 8 -1.7108 -0.3092
14 2 9 -0.5256 0.7597
14 2 10 -1.9793 0.1588
14 2 11 -3.9476 -1.1987
14 2 12 -6.2540 0.2836
14 2 13 1.0848 1.4797
14 2 14 3.2870 -1.3934
14 2 15 -1.7039 -1.0569
14 2 16 -7.6373 1.6320
14 2 17 7.9221 0.2048
14 2 18 2.3426 -2.2266
14 2 19 -1.2293 -0.2937
14 2 20 -2.3941 1.5165
14 2 21 10.9905 -0.1099
14 2 22 0.8071 -0.3888
14 2 23 -3.6845 0.1301
14 2 24 3.5389 -0.6086
14 2 25 -6.3150 -0.2774
14 2 26 10.8427 0.9912
14 2 27 1.9724 0.2291
14 2 28 -1.1612 -0.5112
14 2 29 0.8243 -0.1031
14 2 30 0.2653 0.3751
14 4 0 1.3404 -0.2722
14 4 1 8.0800 -1.0231
14 4 2 4.2558 -0.0963
14 4 3 3.8856 -0.0841
14 4 4 -8.7679 0.2759
14 4 5 5.7474 -0.7155
14 4 6 -4.4590 -0.3358
14 4 7 18.6076 0.0702
14 4 8 2.4915 0.1669
14 4 9 0.8544 0.4547
14 4 10 -2.7228 -0.4486
14 4 11 -5.3979 0.2577
14 4 12 10.5490 0.3067
14 4 13 -5.2599 0.5741
14 4 14 1.9540 -0.1891
14 4 15 10.1902 -1.3351
14 4 16 -1.6781 -0.4469
14 4 17 -8.9521 1.2865
14 4 18 4.8257 0.6296
14 4 19 13.8573 -0.7515
14 4 20 -5.7031 -0.1845
14 4 21 11.6141 0.1101
14 4 22 2.6203 -0.0592
14 4 23 3.0699 -0.1779
14 4 24 -16.0972 0.8394
14 4 25 5.1182 0.0473
14 4 26 1.5467 -0.7495
14 4 27 11.3497 0.3717
14 4 28 -8.3754 0.5696
14 4 29 -2.2706 -0.8723
14 4 30 -12.4206 -0.2904
14 6 0 -13.1408 0.7425
14 6 1 8.3153 -1.0863
14 6 2 -1.7997 -0.0152
14 6 3 -3.6620 0.8022
14 6 4 -16.4304 -0.5905
14 6 5 -5.4995 -0.1237
14 6 6 -1.4015 0.4816
14 6 7 -4.6580 0.2170
14 6 8 -3.9601 -0.5718
14 6 9 -2.7596 0.0391
14 6 10 2.8441 0.5686
14 6 11 -15.1522 0.6860
14 6 12 -8.1915 -0.0024
14 6 13 1.4086 -1.7870
14 6 14 -0.7145 -0.7376
14 6 15 -4.3472 1.7397
14 6 16 -7.6116 0.3154
14 6 17 -2.5863 -1.1217
14 6 18 -0.6487 0.1380
14 6 19 -9.2391 0.0633
14 6 20 -7.1999 -0.2927
14 6 21 11.4029 0.1127
14 6 22 8.0190 -0.3190
14 6 23 0.1904 -0.1070
14 6 24 -12.2898 0.3443
14 6 25 9.1069 0.2830
14 6 26 -4.2781 -0.1195
14 6 27 -13.8849 -0.2336
14 6 28 -6.3815 0.1080
14 6 29 4.2336 0.2838
14 8 0 6.0593 -0.2811
14 8 1 7.1623 -0.1025
14 8 2 1.9857 -0.6232
14 8 3 6.4299 0.1861
14 8 4 2.5968 0.3302
14 8 5 -8.6617 -0.5085
14 8 6 9.0652 -0.6005
14 8 7 16.2981 -0.1487
14 8 8 -10.1789 0.3328
14 8 9 -3.0730 0.2488
14 8 10 3.3943 0.4103
14 8 11 0.3175 -0.4787
14 8 12 -3.3341 -0.6875
14 8 13 -16.1570 0.6002
14 8 14 6.0466 0.6585
14 8 15 2.3903 -0.8019
14 8 16 5.6794 -0.2005
14 8 17 -13.0557 0.6872
14 8 18 8.8458 0.3864
14 8 19 7.5164 -0.3003
14 8 20 -13.0159 -0.3383
14 8 21 -11.5808 -0.0956
14 8 22 2.4140 0.4873
14 8 23 0.6437 0.4510
14 8 24 1.0174 -0.4426
14 8 25 6.2032 -0.1311
14 8 26 0.3473 0.0056
14 8 27 -0.5917 0.2489
14 8 28 -6.7293 0.3182
14 10 0 -10.7320 -0.4830
14 10 1 4.8785 0.2023
14 10 2 -0.0945 0.6130
14 10 3 -0.1530 -0.2643
14 10 4 7.4440 -0.5956
14 10 5 -0.2476 -0.1221
14 10 6 -11.2689 0.3864
14 10 7 -0.3188 0.3985
14 10 8 10.9135 -0.1524
14 10 9 2.6742 -0.5214
14 10 10 -2.2126 -0.1567
14 10 11 11.8130 0.7465
14 10 12 -5.3777 -0.0022
14 10 13 1.4693 -0.9476
14 10 14 -8.7700 -0.1442
14 10 15 7.3331 0.7114
14 10 16 1.6219 0.0710
14 10 17 -11.9287 -0.4653
14 10 18 4.6470 0.0793
14 10 19 12.8991 0.0587
14 10 20 4.6634 -0.0314
14 10 21 -11.2562 0.2820
14 10 22 7.3985 -0.0003
14 10 23 1.1723 -0.4924
14 10 24 0.9889 0.0945
14 10 25 -6.7367 0.2911
14 10 26 11.9202 0.2623
14 12 0 -6.1979 0.6637
14 12 1 5.3440 -0.1011
14 12 2 8.0338 -0.6069
14 12 3 -3.9559 -0.2266
14 12 4 -9.9065 0.7541
14 12 5 4.9458 0.2512
14 12 6 5.7928 -0.6292
14 12 7 2.3349 -0.4605
14 12 8 2.4366 0.6308
14 12 9 2.6249 0.6347
14 12 10 1.6647 -0.0894
14 12 11 8.2807 -0.7463
14 12 12 14.2903 0.0713
14 12 13 -6.8012 0.7986
14 12 15 6.0780 -0.6219
14 12 16 26.8691 -0.1011
14 12 17 -20.5248 0.4109
14 12 18 -2.3268 -0.1862
14 12 19 7.6353 0.1650
14 12 20 -4.9485 0.0604
14 12 21 -5.7151 -0.4592
14 12 22 9.3235 -0.0890
14 12 23 -4.5892 0.1314
14 12 24 -1.6533 -0.3991
14 14 0 -6.9544 -0.3993
14 14 1 -6.8968 0.1693
14 14 2 1.9599 0.0739
14 14 3 -0.5624 0.0027
14 14 4 -1.5092 -0.4403
14 14 5 -8.2655 -0.3167
14 14 6 7.2069 0.2060
14 14 7 -3.3883 0.2260
14 14 8 6.7616 -0.3374
14 14 9 -6.3296 -0.1467
14 14 10 -9.8631 0.2294
14 14 11 -5.1470 0.2664
14 14 12 12.0937 -0.1788
14 14 13 7.9282 -0.3486
14 14 14 -6.5542 -0.1854
14 14 15 -2.1265 0.4169
14 14 16 -6.7065 0.4076
14 14 17 9.2412 -0.3294
14 14 18 2.4044 -0.3832
14 14 19 10.0237 -0.1257
14 14 20 6.8048 0.3210
14 14 21 -8.7527 0.1814
14 14 22 -7.7087 -0.1474
14 16 0 7.5370 0.2295
14 16 1 -3.4933 -0.1962
14 16 2 -10.8004 -0.3941
14 16 3 -1.7915 0.1017
14 16 4 -5.8124 0.4136
14 16 5 2.6418 0.2764
14 16 6 -1.0629 -0.5667
14 16 7 0.5570 -0.0453
14 16 8 -7.7082 0.5010
14 16 9 -11.5807 0.1052
14 16 10 3.9720 -0.1340
14 16 11 -3.8877 -0.2366
14 16 12 2.7598 -0.0016
14 16 13 -16.2633 0.4680
14 16 14 1.4759 0.1346
14 16 15 14.1518 -0.2554
14 16 16 14.8579 -0.2057
14 16 17 -5.0025 -0.1509
14 16 18 1.4842 -0.0621
14 16 19 24.6436 0.4593
14 18 0 -9.0326 -0.0845
14 18 1 8.1861 0.2745
14 18 2 -0.6268 0.2128
14 18 3 -0.4111 -0.4296
14 18 4 7.4502 -0.3038
14 18 5 10.1369 0.4468
14 18 6 -10.3947 0.5588
14 18 7 -23.0713 -0.1706
14 18 8 13.7761 -0.4585
14 18 9 -7.4721 -0.0236
14 18 10 -3.4081 0.2543
14 18 11 -1.6415 0.5822
14 18 12 7.6803 0.0877
14 18 13 7.5859 -0.4600
14 18 14 10.0325 0.0235
14 20 0 9.9986 -0.4187
14 20 1 -12.9783 -0.8766
14 20 2 5.3834 0.1834
14 20 3 1.2148 -0.0764
14 20 4 6.1367 0.2903
14 20 5 -13.5883 -0.5579
14 20 6 9.3149 0.0379
14 20 7 -0.7769 0.5159
14 20 8 5.4632 0.7827
15 1 0 0.5620 -13.7211
15 1 1 -16.6144 -0.0014
15 1 2 -1.5691 7.1043
15 1 3 0.8747 -1.0282
15 1 4 -2.1330 -0.5147
15 1 5 -13.7985 0.9769
15 1 6 -0.8766 1.8620
15 1 7 7.2426 -1.0864
15 1 8 -3.5896 -1.6342
15 1 9 -9.0466 1.1587
15 1 10 -5.8698 1.0185
15 1 11 5.1908 -0.1741
15 1 12 9.1602 -0.7108
15 1 13 -2.3079 -0.9541
15 1 14 -20.2367 -0.5241
15 1 15 2.1711 0.9479
15 1 16 -5.7260 0.3548
15 1 17 -3.9730 -0.3113
15 1 18 -2.7127 -0.0922
15 1 19 -3.6906 -0.1116
15 1 20 3.4882 -0.0552
15 1 21 -0.2102 -0.3088
15 1 22 -5.8521 0.2179
15 1 23 -2.7254 0.3229
15 1 24 -1.8165 -0.0436
15 1 25 -2.7952 -0.1955
15 1 26 1.7611 0.1770
15 1 27 5.2137 0.0836
15 1 28 6.7155 -0.4910
15 1 29 -1.9864 -0.1605
15 1 30 1.3907 0.5793
15 3 0 1.8477 3.6861
15 3 1 9.2884 -0.6178
15 3 2 4.0022 -2.3884
15 3 3 -3.8480 1.0413
15 3 4 -7.3619 1.8049
15 3 5 11.7537 -0.3536
15 3 6 1.3375 -1.5700
15 3 7 2.4948 -0.5363
15 3 8 -13.9776 1.0051
15 3 9 -0.1926 2.0978
15 3 10 2.3259 -0.6374
15 3 11 2.9335 -2.7302
15 3 12 8.4626 -0.4695
15 3 13 -6.2382 2.1781
15 3 14 -5.9610 0.1410
15 3 15 3.2007 -1.6631
15 3 16 11.3628 0.4813
15 3 17 3.6876 0.7513
15 3 18 -1.6676 -0.6199
15 3 19 -6.0265 -0.8583
15 3 20 6.0799 0.6229
15 3 21 6.8548 0.7747
15 3 22 -7.8242 0.0075
15 3 23 -4.1486 -0.3753
15 3 24 7.2985 0.3570
15 3 25 0.9986 0.2413
15 3 26 -4.3372 -0.5717
15 3 27 1.1123 0.1869
15 3 28 7.6183 0.4096
15 3 29 7.9913 -0.4011
15 5 0 -1.0664 -0.4929
15 5 1 -3.7104 -0.2792
15 5 2 -4.8317 0.3720
15 5 3 -1.1849 -0.0595
15 5 4 -5.9808 -0.4128
15 5 5 9.1166 -0.3390
15 5 6 -19.2672 0.2551
15 5 7 -3.6878 1.7227
15 5 8 15.3693 -0.1552
15 5 9 -2.2765 -1.3604
15 5 10 -5.5759 0.1611
15 5 11 -5.4494 1.5696
15 5 12 11.1095 -0.0980
15 5 13 -18.8016 -1.4946
15 5 14 0.2783 0.1229
15 5 15 -5.6878 1.0455
15 5 16 -1.1201 -0.3466
15 5 17 3.0657 -0.6325
15 5 18 1.8785 -0.0417
15 5 19 -14.9304 -0.0182
15 5 20 -1.2611 0.3854
15 5 21 23.3510 0.1849
15 5 22 2.1573 -0.3222
15 5 23 6.9129 -0.2766
15 5 24 -17.3295 -0.2092
15 5 25 -9.3644 0.4368
15 5 26 -10.5465 0.5313
15 5 27 5.1331 -0.2947
15 5 28 -7.0060 -0.2913
15 5 29 -8.4498 0.1840
15 7 0 -5.1700 1.3426
15 7 1 5.2620 -0.7766
15 7 2 -1.9589 -1.4415
15 7 3 8.6659 0.2613
15 7 4 12.9088 0.1437
15 7 5 -11.6965 0.0226
15 7 6 -2.7576 -0.2291
15 7 7 6.8892 -0.4896
15 7 8 -1.7998 0.3741
15 7 9 2.0285 0.2231
15 7 10 -5.8045 -0.0934
15 7 11 -4.2026 -0.3192
15 7 12 -8.9900 -0.1499
15 7 13 -4.2383 0.2839
15 7 14 -9.3374 0.1413
15 7 15 -9.4024 -0.4481
15 7 16 0.4207 -0.0367
15 7 17 1.8463 0.0026
15 7 18 7.7999 0.4590
15 7 19 -15.3664 0.5000
15 7 20 -6.5672 -0.4910
15 7 21 6.0013 -0.4729
15 7 22 6.0372 0.2414
15 7 23 11.0276 0.3548
15 7 24 8.0897 0.2466
15 7 25 2.5317 0.3289
15 7 26 -0.6510 -0.4216
15 7 27 -2.2837 -0.0270
15 7 28 -0.7465 0.4395
15 9 0 -3.6228 -0.8875
15 9 1 15.7172 -0.0931
15 9 2 0.6700 0.8599
15 9 3 -3.2097 -0.0482
15 9 4 4.5344 -0.6831
15 9 5 5.4889 -0.2995
15 9 6 -1.2558 0.6756
15 9 7 8.9277 0.3610
15 9 8 -3.0229 -0.3307
15 9 9 8.4457 -0.0567
15 9 10 7.6166 0.0801
15 9 11 -9.9895 0.2095
15 9 12 1.7532 0.0945
15 9 13 5.6538 -0.3746
15 9 14 -4.1391 -0.2844
15 9 15 -23.5608 0.4797
15 9 16 2.6772 0.1213
15 9 17 -0.6314 -0.1962
15 9 18 -2.5422 0.2341
15 9 19 3.8485 -0.0040
15 9 20 0.5513 -0.4847
15 9 21 -18.1466 0.2340
15 9 22 -5.9618 0.3034
15 9 23 1.6374 -0.1631
15 9 24 4.6030 -0.1543
15 9 25 -9.0204 0.0979
15 9 26 4.2969 -0.0865
15 9 27 3.6012 -0.1692
15 11 0 2.9116 0.3995
15 11 1 -1.4808 0.0488
15 11 2 -0.9186 -0.4505
15 11 3 6.2628 -0.5992
15 11 4 4.6846 0.4807
15 11 5 -1.0150 0.5447
15 11 6 2.2809 -0.3543
15 11 7 -2.0557 -0.3614
15 11 8 -0.3641 0.3220
15 11 9 2.7935 0.4249
15 11 10 4.0672 -0.0496
15 11 11 9.3116 -0.4282
15 11 12 -7.5573 -0.0949
15 11 13 9.6045 0.2194
15 11 14 5.1851 0.2433
15 11 15 3.6049 -0.0227
15 11 16 -8.3343 -0.0132
15 11 17 -7.1353 0.0170
15 11 18 12.9512 -0.1730
15 11 19 -6.0670 0.3769
15 11 20 0.3496 0.0897
15 11 21 4.4565 -0.5399
15 11 22 -0.9310 0.0695
15 11 23 1.1530 0.0737
15 11 24 10.3828 -0.1167
15 11 25 -0.7237 -0.1725
15 13 0 -2.6101 -0.2890
15 13 1 -5.6757 0.3142
15 13 2 -0.0762 -0.1751
15 13 3 9.1413 -0.0873
15 13 4 -2.9732 -0.2536
15 13 5 0.5845 -0.0606
15 13 6 -7.0091 0.2094
15 13 7 0.6871 0.1344
15 13 8 8.5499 -0.0445
15 13 9 -7.5060 -0.1229
15 13 10 4.0400 -0.1153
15 13 11 1.0972 0.0638
15 13 12 -4.6539 0.1715
15 13 13 1.2640 0.0311
15 13 14 5.2109 -0.4654
15 13 15 -5.2760 -0.2270
15 13 16 -5.8581 0.2876
15 13 17 4.0343 0.2758
15 13 18 6.5514 -0.0330
15 13 19 -6.3868 -0.7526
15 13 20 -5.8176 -0.1182
15 13 21 -5.5499 0.8071
15 13 22 -6.1793 0.0201
15 15 0 1.1827 0.0247
15 15 1 -6.2983 0.0035
15 15 2 7.7632 -0.1410
15 15 3 -7.5213 0.1559
15 15 4 2.1039 0.0299
15 15 5 0.2826 0.2564
15 15 6 9.3071 -0.0489
15 15 7 -6.1766 0.0641
15 15 8 2.5790 -0.0674
15 15 9 2.4285 -0.0652
15 15 10 0.6868 0.2835
15 15 11 -7.7538 0.1518
15 15 12 -6.3970 -0.2287
15 15 13 -7.3429 0.0898
15 15 14 5.5152 0.1439
15 15 15 11.1015 -0.0342
15 15 16 2.7214 -0.0442
15 15 17 3.1229 -0.1171
15 15 18 1.6971 0.0345
15 15 19 9.1666 0.6955
15 15 20 13.2435 -0.0142
15 17 0 1.4778 0.2621
15 17 1 5.9372 -0.0665
15 17 2 -5.4693 -0.2128
15 17 3 5.6558 -0.0709
15 17 4 -4.4690 0.0817
15 17 5 4.3006 0.0564
15 17 6 -15.5305 0.0354
15 17 7 -4.4889 -0.0297
15 17 8 2.9568 0.0515
15 17 9 -6.1940 0.0062
15 17 10 -4.7022 -0.1430
15 17 11 -6.1296 -0.0434
15 17 12 12.9348 0.0310
15 17 13 12.3051 -0.2129
15 17 14 -12.2513 0.0482
15 17 15 -16.2256 0.0654
15 17 16 8.8227 -0.0249
15 19 0 2.3101 -0.9886
15 19 1 -10.9472 0.1440
15 19 2 -9.1133 0.9028
15 19 3 8.0783 0.0604
15 19 4 3.9713 -0.3219
15 19 5 0.9026 -0.1881
15 19 6 5.1672 0.8815
15 19 7 -7.1780 0.5436
15 19 8 -2.2783 0.1083
15 19 9 -5.1655 -0.0214
15 19 10 12.3858 -0.1549
16 0 0 0.8935 -13.6797
16 0 2 -8.2019 13.2007
16 0 4 14.3964 -13.4352
16 0 6 -7.6539 11.6807
16 0 8 9.7471 -6.8284
16 0 10 1.3199 0.7218
16 0 12 0.7866 -0.2959
16 0 14 -10.5532 1.0978
16 0 16 -18.0963 -1.7684
16 0 18 -10.9470 1.5781
16 0 20 1.5066 -0.8363
16 0 22 4.8456 1.2517
16 0 24 -25.0636 -1.4155
16 0 26 12.5360 0.9756
16 0 28 -3.4964 -0.5272
16 2 0 -3.0170 -0.2826
16 2 1 -1.8787 -2.3957
16 2 2 13.6402 0.2543
16 2 3 -3.7473 -0.4258
16 2 4 -21.4210 2.1524
16 2 5 -2.2053 1.8521
16 2 6 16.7678 -2.2761
16 2 7 -1.1906 -0.7804
16 2 8 -25.6820 0.4032
16 2 9 3.1706 -0.4092
16 2 10 13.9091 -0.0931
16 2 11 -6.3400 -0.0410
16 2 12 -2.7230 -0.7379
16 2 13 9.9460 0.5749
16 2 14 0.0089 0.5966
16 2 15 -0.7340 -1.5299
16 2 16 -0.5348 -0.4244
16 2 17 -3.8233 1.3986
16 2 18 -3.4308 0.1648
16 2 19 -5.0890 -0.6653
16 2 20 9.9439 0.7581
16 2 21 -11.9792 0.2166
16 2 22 0.6763 -1.3438
16 2 23 -4.3037 0.1730
16 2 24 -9.0516 1.3899
16 2 25 -2.0098 0.0919
16 2 26 17.0658 -0.7946
16 2 27 0.8683 0.1663
16 2 28 -3.9764 -0.1992
16 2 29 9.2486 -0.2954
16 4 0 5.0837 -1.0662
16 4 1 12.9305 0.6201
16 4 2 -3.3163 0.4299
16 4 3 8.1412 0.6285
16 4 4 1.0656 -0.4352
16 4 5 -2.3343 -0.4161
16 4 6 -6.3611 -0.3235
16 4 7 12.9784 0.6812
16 4 8 0.4211 0.5966
16 4 9 -10.6180 -0.1613
16 4 10 6.8468 -0.6329
16 4 11 0.8830 0.1085
16 4 12 3.3781 0.6307
16 4 13 -9.2195 -0.5970
16 4 14 17.1236 -0.3579
16 4 15 -10.9016 0.0832
16 4 16 -0.9462 0.4708
16 4 17 -0.3055 0.3372
16 4 18 8.9600 0.2959
16 4 19 -5.1633 -0.8149
16 4 20 5.1487 -0.6788
16 4 21 10.1301 0.6733
16 4 22 -5.3791 0.9337
16 4 23 -2.7975 -0.3539
16 4 24 -2.1682 -0.5895
16 4 25 -1.9441 0.5495
16 4 26 -9.5386 -0.1336
16 4 27 -5.0745 -0.5885
16 4 28 -1.0262 0.3001
16 6 0 4.8775 1.0955
16 6 1 -4.4463 -0.2532
16 6 2 -5.4820 -1.4896
16 6 3 6.3457 0.3024
16 6 4 3.6116 1.1305
16 6 5 -1.2912 -0.0194
16 6 6 -1.1718 -0.9960
16 6 7 -8.3222 0.2956
16 6 8 3.6986 0.5111
16 6 9 10.0411 -0.4517
16 6 10 -2.0237 0.3191
16 6 11 -14.3264 -0.0647
16 6 12 -1.3967 -1.0023
16 6 13 0.6085 -0.1617
16 6 14 -6.6502 0.4318
16 6 15 -9.8112 0.3953
16 6 16 -3.6135 0.2169
16 6 17 -10.6105 -0.6791
16 6 18 -1.1724 -0.7508
16 6 19 9.1312 0.8896
16 6 20 16.1216 0.4867
16 6 21 -1.6760 -0.5559
16 6 22 -2.0903 -0.0051
16 6 23 20.4113 0.5946
16 6 24 12.7837 -0.2296
16 6 25 2.7102 -0.1262
16 6 26 -8.7860 0.3286
16 6 27 -9.2413 0.1310
16 6 28 5.4241 -0.1215
16 8 0 -5.2166 -0.3872
16 8 1 -3.4973 -0.0941
16 8 2 12.0108 0.0235
16 8 3 0.1999 -0.0680
16 8 4 6.2316 0.4023
16 8 5 1.3571 -0.4973
16 8 6 6.8331 -0.1266
16 8 7 -3.2361 0.4753
16 8 8 -0.8141 0.4013
16 8 9 25.8600 -0.1108
16 8 10 -9.3358 -0.2557
16 8 11 -7.4625 0.2200
16 8 12 2.3014 0.2360
16 8 13 -6.7218 0.0469
16 8 14 -9.0998 0.1828
16 8 15 -14.3539 -0.1021
16 8 16 2.2724 -0.1978
16 8 17 -6.7092 0.3923
16 8 18 -4.3742 0.1878
16 8 19 -15.7569 -0.4355
16 8 20 1.9165 -0.1181
16 8 21 -2.1916 0.4079
16 8 22 -3.6947 -0.1493
16 8 23 -3.9844 0.0037
16 8 24 0.1734 0.1391
16 8 25 -2.2700 -0.4100
16 8 26 5.3062 0.0131
16 8 27 3.2520 0.1753
16 10 0 -10.5834 -0.3885
16 10 1 19.2758 -0.1082
16 10 2 7.0262 0.4665
16 10 3 1.5249 -0.4959
16 10 4 -2.4089 -0.5725
16 10 5 6.8422 0.6523
16 10 6 -2.1188 0.4992
16 10 7 -3.0236 -0.4686
16 10 8 -3.4725 -0.4807
16 10 9 3.8829 0.5180
16 10 10 10.2165 0.3443
16 10 11 6.6605 -0.3639
16 10 12 -6.2892 -0.4248
16 10 13 -1.7171 -0.0645
16 10 14 5.7897 0.1876
16 10 15 2.6413 0.3373
16 10 16 -11.1594 0.0715
16 10 17 -5.1404 -0.4431
16 10 18 -9.6519 -0.0723
16 10 19 -3.3838 0.7184
16 10 20 8.2694 -0.1657
16 10 21 4.2370 -0.7083
16 10 22 -7.1835 0.2987
16 10 23 -0.3293 0.1218
16 10 24 13.6880 -0.0652
16 10 25 2.6717 0.1331
16 12 0 9.0253 -0.0194
16 12 1 0.4531 0.2580
16 12 2 0.1819 -0.0815
16 12 3 -0.4221 0.1749
16 12 4 6.5437 -0.0561
16 12 5 3.8659 -0.1747
16 12 6 -7.5217 0.0481
16 12 7 1.9699 0.2232
16 12 8 2.3889 0.4113
16 12 9 -6.7504 0.0104
16 12 10 -5.3745 -0.4954
16 12 11 -0.8104 -0.3876
16 12 12 5.8945 0.5147
16 12 13 6.7375 0.4572
16 12 14 -13.2081 -0.4434
16 12 15 -2.4519 -0.3733
16 12 16 14.1003 0.2464
16 12 17 -3.5775 0.5237
16 12 18 1.0340 -0.1013
16 12 19 -9.5187 -0.6068
16 12 20 -6.2462 -0.0150
16 12 21 -6.6554 0.6203
16 12 22 -4.1074 -0.0083
16 12 23 -0.8528 -0.0775
16 14 0 0.3337 -0.1665
16 14 1 -6.8272 0.2273
16 14 2 -6.1073 0.0347
16 14 3 -0.1373 -0.2104
16 14 4 9.0000 -0.2675
16 14 5 9.4218 0.5409
16 14 6 3.6494 0.2081
16 14 7 -10.8422 -0.1917
16 14 8 3.1540 -0.2059
16 14 9 8.0476 -0.0727
16 14 10 15.1549 0.2291
16 14 11 -15.3961 0.3934
16 14 12 -14.5407 -0.4537
16 14 13 11.6370 -0.2848
16 14 14 -0.8242 0.3832
16 14 15 -0.1478 0.0719
16 14 16 1.9027 0.0013
16 14 17 0.3813 -0.2481
16 14 18 -5.1928 0.1674
16 14 19 10.9757 0.2885
16 14 20 5.7197 0.1084
16 16 0 9.9464 0.2594
16 16 1 8.1681 -0.4667
16 16 2 9.6905 -0.3680
16 16 3 -6.1692 0.4142
16 16 4 -1.5871 0.3842
16 16 5 -3.4522 -0.3197
16 16 6 1.7706 -0.0743
16 16 7 2.6232 0.2322
16 16 8 -5.7564 0.2583
16 16 9 -8.6882 -0.1162
16 16 10 5.1519 -0.2459
16 16 11 10.3571 -0.1952
16 16 12 -6.2804 0.3576
16 16 13 -22.2961 -0.1532
16 16 14 -5.9888 -0.2566
16 16 15 13.9512 0.0886
16 16 16 -1.6896 -0.0180
16 16 17 -7.6043 -0.1311
16 18 0 -6.3267 0.0387
16 18 1 4.7492 0.4340
16 18 2 -7.0758 0.4420
16 18 3 5.2813 -0.0427
16 18 4 -0.5531 -0.2391
16 18 5 12.5184 -0.0579
16 18 6 -17.3159 0.4298
16 18 7 -0.3554 0.3780
16 18 8 8.9778 -0.7197
16 18 9 -0.4984 -0.3574
16 18 10 -10.7587 0.3601
16 18 11 5.1501 0.4618
16 18 12 11.6832 -0.7571
16 20 0 -2.8019 -0.8770
16 20 1 6.3941 -0.8052
16 20 2 0.4017 -0.4115
16 20 3 -9.9856 1.1676
16 20 4 -18.4262 0.9033
17 1 0 3.9561 -5.2724
17 1 1 -4.4137 -1.4666
17 1 2 0.7902 0.5318
17 1 3 -10.3274 -0.4662
17 1 4 7.5896 -0.7919
17 1 5 1.2671 -0.5751
17 1 6 -0.3105 0.6909
17 1 7 -0.8179 1.6434
17 1 8 -4.7007 -3.7109
17 1 9 -0.6103 -0.4173
17 1 10 17.0686 3.0268
17 1 11 9.8346 -1.0524
17 1 12 -3.6702 -2.2580
17 1 13 -3.1661 1.1305
17 1 14 3.7939 1.0029
17 1 15 14.0576 0.1618
17 1 16 -14.6259 0.3688
17 1 17 -5.2873 -0.9297
17 1 18 1.8049 -0.3805
17 1 19 -4.9770 0.4904
17 1 20 -2.8925 0.1712
17 1 21 -6.0895 0.3628
17 1 22 -0.9620 0.2088
17 1 23 -4.9441 -0.6011
17 1 24 -2.6977 -0.2134
17 1 25 -2.7489 0.1472
17 1 26 -11.6539 -0.1677
17 1 27 2.7191 0.3822
17 1 28 6.7862 0.3455
17 3 0 -1.7610 0.9300
17 3 1 8.1779 0.1118
17 3 2 5.3615 -0.9339
17 3 3 7.6488 1.0025
17 3 4 -0.9268 0.7307
17 3 5 0.2013 -0.4065
17 3 6 -8.7250 -0.6115
17 3 7 -2.5433 0.4701
17 3 8 8.9756 0.4917
17 3 9 -2.8888 -1.2074
17 3 10 -14.2034 -1.2276
17 3 11 -2.1391 0.0899
17 3 12 22.5032 1.6705
17 3 13 -2.0745 0.4395
17 3 14 -7.2182 -0.6000
17 3 15 1.4533 -0.8288
17 3 16 13.6595 -0.0231
17 3 17 -10.0103 0.9161
17 3 18 0.4951 0.5810
17 3 19 7.4635 -0.3816
17 3 20 7.9136 -0.4040
17 3 21 -11.7263 0.6185
17 3 22 5.0581 0.0507
17 3 23 5.2581 -0.2688
17 3 24 6.3789 -0.2311
17 3 25 -13.7471 0.3189
17 3 26 2.8961 -0.1292
17 3 27 9.8973 -0.1727
17 3 28 10.4038 0.2532
17 5 0 -1.6138 -0.8168
17 5 1 -4.6742 0.3283
17 5 2 3.4780 0.1831
17 5 3 4.4758 -0.8097
17 5 4 -1.9557 -0.0712
17 5 5 1.9289 1.4724
17 5 6 3.2952 -0.0146
17 5 7 -0.6119 -0.9272
17 5 8 4.5427 -0.0617
17 5 9 -1.3020 -0.3500
17 5 10 7.3436 0.1345
17 5 11 3.2160 0.6720
17 5 12 8.9959 -0.0944
17 5 13 -10.0617 -1.1937
17 5 14 5.0929 -0.0673
17 5 15 -8.9007 0.6799
17 5 16 3.9399 0.0670
17 5 17 -2.9004 -0.3390
17 5 18 6.7686 0.2077
17 5 19 -4.6744 0.2539
17 5 20 -4.5820 -0.3724
17 5 21 13.3582 -0.2016
17 5 22 15.3317 0.1330
17 5 23 5.9356 0.1508
17 5 24 -7.9403 0.2380
17 5 25 -2.8344 -0.0580
17 5 26 -5.9381 -0.1150
17 5 27 -7.7756 0.0037
17 7 0 10.8159 0.7838
17 7 1 -10.3276 -0.5798
17 7 2 -0.8145 -0.9497
17 7 3 -4.2592 1.0138
17 7 4 6.0794 1.1911
17 7 5 -2.9225 -0.8666
17 7 6 14.6246 -0.3911
17 7 7 -3.9859 0.3403
17 7 8 -0.2856 0.5136
17 7 9 7.9279 0.1222
17 7 10 -10.1109 -0.7121
17 7 11 11.2062 -0.2208
17 7 12 -4.4007 0.8575
17 7 13 -2.7764 0.3715
17 7 14 -0.4128 -0.6923
17 7 15 0.5130 0.0182
17 7 16 -22.7073 0.5042
17 7 17 -12.1519 0.2191
17 7 18 12.8198 -0.0636
17 7 19 3.2704 -0.1140
17 7 20 0.0955 -0.3171
17 7 21 -4.8267 0.0604
17 7 22 5.3977 0.2171
17 7 23 3.7435 0.3688
17 7 24 9.0193 0.2484
17 7 25 9.6763 -0.6519
17 7 26 0.6581 -0.5106
17 9 0 4.4815 -0.3165
17 9 1 3.5207 0.4149
17 9 2 -2.3021 0.3038
17 9 3 -4.2420 -0.8495
17 9 4 9.8958 -0.4076
17 9 5 -3.6018 0.5985
17 9 6 -5.6194 0.6708
17 9 7 9.2176 -0.1955
17 9 8 -6.6922 -0.8625
17 9 9 0.8109 0.1112
17 9 10 1.6905 0.7165
17 9 11 9.1790 0.0243
17 9 12 12.7240 -0.6840
17 9 13 -13.3425 -0.2508
17 9 14 -5.9466 0.3686
17 9 15 -2.0317 0.2629
17 9 16 -0.7567 -0.1522
17 9 17 -22.0548 -0.2291
17 9 18 -4.7645 -0.2211
17 9 19 4.6182 0.2147
17 9 20 -2.3015 -0.1100
17 9 21 -8.0733 -0.2194
17 9 22 2.5895 0.1963
17 9 23 -1.8315 0.1431
17 9 24 2.2967 -0.0290
17 9 25 -0.1427 -0.2152
17 11 0 2.6645 -0.3216
17 11 1 -5.6809 -0.3465
17 11 2 -0.5930 0.0589
17 11 3 14.3776 0.6786
17 11 4 11.1617 0.1685
17 11 5 -2.4037 -0.1760
17 11 6 -4.5518 -0.1936
17 11 7 1.5297 0.0144
17 11 8 -7.9263 0.3162
17 11 9 -6.3697 0.3023
17 11 10 3.2291 -0.2571
17 11 11 5.4350 -0.5553
17 11 12 -7.5038 0.2862
17 11 13 6.7757 0.4204
17 11 14 3.0734 -0.0230
17 11 15 6.0807 -0.2121
17 11 16 -3.4425 0.1314
17 11 17 -0.6403 0.2915
17 11 18 -5.1479 0.0867
17 11 19 -6.9767 -0.5088
17 11 20 -6.4590 0.1448
17 11 21 7.2264 0.5079
17 11 22 -0.9686 -0.1288
17 11 23 0.1139 -0.1283
17 13 0 4.2637 -0.1050
17 13 1 -0.4083 0.6617
17 13 2 -1.1437 0.0738
17 13 3 -6.3379 -0.5669
17 13 4 2.2869 -0.1480
17 13 5 7.1611 0.3607
17 13 6 -4.8983 0.3297
17 13 7 5.7845 -0.1868
17 13 8 4.2712 -0.3660
17 13 9 -8.8368 -0.1205
17 13 10 -0.7936 0.3885
17 13 11 -2.4254 0.1821
17 13 12 -0.3764 -0.4840
17 13 13 0.9536 -0.2151
17 13 14 -5.0201 0.0289
17 13 15 -1.5036 0.2018
17 13 16 -3.7390 0.4022
17 13 17 -3.3917 -0.2446
17 13 18 10.0520 -0.3983
17 13 19 -4.9476 0.0756
17 13 20 -5.8194 0.2787
17 13 21 1.8106 0.4211
17 15 0 2.8659 0.1158
17 15 1 6.5769 -0.5759
17 15 2 10.7108 -0.0277
17 15 3 -11.4735 0.5661
17 15 4 -0.5104 0.2024
17 15 5 0.8461 -0.3391
17 15 6 11.3381 -0.1096
17 15 7 -2.2240 0.3765
17 15 8 1.2216 0.3808
17 15 9 -8.1965 -0.0538
17 15 10 6.7799 -0.3781
17 15 11 6.5137 -0.2763
17 15 12 -7.3185 0.4662
17 15 13 -4.0084 0.2715
17 15 14 -7.2761 -0.1733
17 15 15 -7.3042 -0.0445
17 15 16 -1.3749 0.0022
17 15 17 21.3796 -0.2505
17 15 18 -4.4440 0.3116
17 17 0 -6.1044 0.2278
17 17 1 -0.7583 0.4175
17 17 2 7.5105 0.2862
17 17 3 14.6347 -0.6045
17 17 4 -2.5319 0.0033
17 17 5 -1.0518 0.0948
17 17 6 -0.9069 -0.1399
17 17 7 0.5144 -0.0599
17 17 8 -13.3595 0.0105
17 17 9 3.0393 -0.3769
17 17 10 1.3168 -0.1813
17 17 11 2.1766 0.1384
17 17 12 1.9728 -0.4156
17 17 13 13.9523 -0.7569
17 17 14 -11.5162 0.2284
17 19 0 3.7755 -0.6513
17 19 1 -2.9832 -0.1002
17 19 2 -17.0684 -0.0615
17 19 3 4.7107 0.6774
17 19 4 -9.5213 -0.2933
17 19 6 -3.7576 -0.0386
17 19 7 12.0357 -0.2842
17 19 8 -5.2262 -0.2964
18 0 0 12.4080 -8.1734
18 0 2 -1.5001 1.3172
18 0 4 9.6179 -5.2708
18 0 6 3.0381 6.1140
18 0 8 10.9909 -8.8924
18 0 10 5.6792 7.9890
18 0 12 18.1461 -4.4268
18 0 14 -0.7185 2.7162
18 0 16 -0.6882 -1.5388
18 0 18 -6.4066 1.6178
18 0 20 3.2300 -1.1838
18 0 22 -6.7999 0.2894
18 0 24 -15.3098 -0.1901
18 0 26 -7.0788 0.3810
18 0 28 -5.9968 -0.5631
18 2 0 -0.6012 2.9895
18 2 1 -1.3755 -3.5626
18 2 2 7.2057 -2.1170
18 2 3 2.7780 1.8691
18 2 4 -0.8147 1.8072
18 2 5 -5.3137 0.8873
18 2 6 -10.4486 -2.8691
18 2 7 0.6272 -2.1988
18 2 8 0.3428 2.1916
18 2 9 -4.0297 1.4915
18 2 10 -1.7626 -1.5031
18 2 11 -0.5041 -0.2605
18 2 12 0.2037 0.9114
18 2 13 6.4310 -0.6294
18 2 14 6.7612 0.3061
18 2 15 -3.4187 0.9526
18 2 16 -4.3855 -0.5195
18 2 17 5.1269 0.0735
18 2 18 5.9365 0.4357
18 2 19 0.3223 -0.4707
18 2 20 5.7284 -0.3975
18 2 21 -3.3003 0.7386
18 2 22 3.6109 0.0740
18 2 23 4.1167 -0.5029
18 2 24 1.4837 0.1817
18 2 25 -3.8585 0.2388
18 2 26 7.5967 -0.4317
18 2 27 1.4305 -0.4410
18 2 28 0.8033 0.7456
18 4 0 -8.2024 -0.1866
18 4 1 -10.2735 2.2567
18 4 2 -1.2903 -0.2711
18 4 3 15.9297 -1.9311
18 4 4 4.7554 -0.4924
18 4 5 -5.5371 1.0022
18 4 6 2.6405 1.2036
18 4 7 6.0162 -0.2140
18 4 8 0.7628 -0.7992
18 4 9 -8.5192 -1.1322
18 4 10 14.0540 0.6217
18 4 11 7.3419 0.5165
18 4 12 3.0460 0.0058
18 4 13 3.5279 0.0083
18 4 14 12.9476 -0.3436
18 4 15 -7.9314 0.0539
18 4 16 -3.3797 0.8933
18 4 17 -3.0599 -0.4778
18 4 18 -1.6526 -1.0007
18 4 19 5.6638 0.7680
18 4 20 -2.0500 0.3011
18 4 21 -2.8751 -0.2560
18 4 22 -1.2426 0.1496
18 4 23 3.6055 -0.1760
18 4 24 3.3037 -0.8351
18 4 25 -10.3288 0.0935
18 4 26 3.2355 0.7738
18 4 27 -3.3021 -0.0659
18 6 0 9.6955 0.4066
18 6 1 -0.5916 -1.1860
18 6 2 -8.1534 -0.3023
18 6 3 -5.0934 1.2296
18 6 4 9.2182 0.8529
18 6 5 -0.6277 -0.6215
18 6 6 -3.1316 -0.3884
18 6 7 -4.4224 0.0317
18 6 8 7.7165 0.5454
18 6 9 2.7387 -0.1391
18 6 10 2.3663 -1.1684
18 6 11 7.7802 0.0093
18 6 12 -0.4372 0.9535
18 6 13 5.8260 0.1670
18 6 14 4.7600 -0.1724
18 6 15 -4.0710 0.1246
18 6 16 3.2690 -0.3879
18 6 17 -4.6511 0.1959
18 6 18 -4.3725 0.3999
18 6 19 1.6477 0.1254
18 6 20 5.5573 0.1291
18 6 21 2.5822 -0.1427
18 6 22 14.1730 -0.2269
18 6 23 8.5844 0.1725
18 6 24 -3.8119 0.3237
18 6 25 -2.0510 -0.5521
18 6 26 4.6768 -0.1994
18 8 0 -0.9302 -0.3727
18 8 1 -2.9369 0.4952
18 8 2 7.6905 0.9510
18 8 3 -15.8400 -0.7319
18 8 4 -0.7615 -0.8034
18 8 5 -12.2358 0.8596
18 8 6 11.5904 0.6917
18 8 7 -2.7205 -0.4943
18 8 8 -7.3845 -0.4211
18 8 9 4.3285 0.1465
18 8 10 0.1422 0.0050
18 8 11 10.0419 0.2845
18 8 12 -1.6667 -0.0049
18 8 13 -3.2634 -0.3705
18 8 14 1.2746 0.0764
18 8 15 -0.7481 0.1435
18 8 16 -1.4746 -0.0599
18 8 17 -1.3742 -0.2083
18 8 18 -9.7676 -0.1805
18 8 19 -12.2620 0.0557
18 8 20 7.9529 -0.0132
18 8 21 3.2284 -0.0847
18 8 22 3.1278 -0.1199
18 8 23 -6.5988 -0.1855
18 8 24 -5.4422 0.4004
18 8 25 2.1898 0.1452
18 10 0 -3.4431 -0.0852
18 10 1 7.6655 -0.5175
18 10 2 9.6225 -0.2048
18 10 3 4.0040 0.6576
18 10 4 -2.3384 0.2698
18 10 5 6.6865 -0.1255
18 10 6 -1.3440 -0.0244
18 10 7 0.1108 -0.1070
18 10 8 -8.4845 -0.1936
18 10 9 1.1314 0.2346
18 10 10 -3.0045 0.3566
18 10 11 6.4684 -0.5879
18 10 12 15.0650 -0.1870
18 10 13 5.1936 0.5816
18 10 14 1.8233 0.1659
18 10 15 -5.8729 -0.3911
18 10 16 -2.2328 -0.1063
18 10 17 -2.7243 0.2488
18 10 18 -3.4370 0.2369
18 10 19 -3.7223 -0.1278
18 10 20 -4.8642 -0.1576
18 10 21 1.8034 -0.0649
18 10 22 4.4883 0.2633
18 10 23 5.8560 0.5998
18 12 0 -3.9191 -0.0211
18 12 1 -7.2199 0.5621
18 12 2 4.9962 -0.1327
18 12 3 -8.6904 -0.3781
18 12 4 6.0282 0.1211
18 12 5 8.0533 0.2768
18 12 6 -4.0105 0.0228
18 12 7 -10.0025 -0.0640
18 12 8 2.2274 -0.1641
18 12 9 2.3110 -0.4543
18 12 10 -12.7473 -0.0214
18 12 11 1.4321 0.6019
18 12 12 0.3685 -0.0130
18 12 13 -6.8610 -0.3461
18 12 14 1.3621 -0.1862
18 12 15 6.7681 0.0461
18 12 16 -3.9940 0.4438
18 12 17 0.3709 0.1167
18 12 18 11.6598 -0.4110
18 12 19 -5.9865 -0.4148
18 12 20 -10.1640 0.1311
18 12 21 4.2155 0.5749
18 14 0 1.3273 0.2527
18 14 1 -5.5459 -0.1744
18 14 2 2.7883 0.1830
18 14 3 -3.2711 0.2344
18 14 4 -3.4649 0.1510
18 14 5 -4.0401 -0.3390
18 14 6 3.3326 0.1048
18 14 7 5.7298 0.1486
18 14 8 0.1388 0.0764
18 14 9 -3.3531 0.0441
18 14 10 2.2092 -0.0596
18 14 11 2.6773 -0.3139
18 14 12 1.2413 0.1757
18 14 13 2.8462 0.4429
18 14 14 -11.0120 0.0555
18 14 15 5.1141 -0.3487
18 14 16 -0.9325 -0.1422
18 14 17 -8.5854 0.1476
18 14 18 -7.1654 0.3727
18 14 19 7.6274 0.0667
18 16 0 -6.1234 0.2710
18 16 1 4.1932 -0.2530
18 16 2 13.5810 -0.0703
18 16 3 8.5654 0.1992
18 16 4 2.8481 0.0199
18 16 5 -9.5442 -0.3167
18 16 6 -0.3793 -0.1779
18 16 7 -3.6219 -0.0283
18 16 8 -0.8724 0.2795
18 16 9 -4.5599 0.0248
18 16 10 -3.3786 -0.2687
18 16 11 -3.9575 -0.1941
18 16 12 0.9721 -0.0508
18 16 13 6.6773 -0.1493
18 16 14 -5.3933 -0.1268
18 16 15 -7.6642 -0.0729
18 18 0 -12.1148 -0.0841
18 18 1 -4.3839 0.3987
18 18 2 -6.5632 0.2664
18 18 3 8.2794 -0.2830
18 18 4 -4.1515 -0.3890
18 18 5 8.4879 -0.0614
18 18 6 2.3906 -0.0402
18 18 7 3.8982 -0.1260
18 18 8 -5.8059 -0.8233
18 18 9 4.4023 0.4574
18 18 10 -2.6703 0.3143
19 1 0 -1.0538 1.1259
19 1 1 -5.2723 -2.7540
19 1 2 8.9026 -2.5526
19 1 3 -3.2006 1.8254
19 1 4 -5.4801 0.7798
19 1 5 -9.7793 -0.2472
19 1 6 0.9202 -0.4458
19 1 7 3.0559 0.5592
19 1 8 -1.2150 0.0275
19 1 9 -3.1345 -0.5201
19 1 10 3.7402 1.0755
19 1 11 -0.3933 0.5645
19 1 12 8.7864 -0.4603
19 1 13 3.0447 0.2020
19 1 14 -1.3724 1.3559
19 1 15 4.1071 -0.6895
19 1 16 6.1378 -1.6308
19 1 17 3.6153 0.2635
19 1 18 6.2520 1.0512
19 1 19 0.6580 0.3520
19 1 20 -1.7329 -0.5096
19 1 21 4.4718 -0.6066
19 1 22 -1.1360 -0.1701
19 1 23 -1.0979 0.1725
19 1 24 -6.3560 0.0670
19 1 25 5.5699 0.0487
19 1 26 -9.9152 0.2374
19 1 27 -1.9782 -0.3158
19 3 0 -4.2950 -0.7566
19 3 1 5.8581 2.8170
19 3 2 -1.8276 0.4231
19 3 3 -0.3899 -2.2269
19 3 4 4.7185 1.5630
19 3 5 8.4977 1.5090
19 3 6 -6.5421 -1.7233
19 3 7 -3.6511 -1.6498
19 3 8 -0.2051 1.2644
19 3 9 -3.9375 0.5886
19 3 10 10.6171 0.1608
19 3 11 2.8490 0.0609
19 3 12 -4.4226 0.1697
19 3 13 -1.6358 0.3061
19 3 14 8.2995 -1.0165
19 3 15 -0.1409 0.2006
19 3 16 -6.7949 0.9180
19 3 17 -9.1957 -0.0326
19 3 18 -6.0814 -0.5852
19 3 19 6.4845 0.0062
19 3 20 -4.0798 -0.2333
19 3 21 7.5626 0.2432
19 3 22 2.6621 0.1030
19 3 23 -5.7974 -0.5295
19 3 24 1.9098 -0.0789
19 3 25 0.7816 0.0689
19 3 26 10.2874 0.4174
19 3 27 -7.1483 -0.1216
19 5 0 8.5757 0.9488
19 5 1 2.3744 -1.0678
19 5 2 -14.4327 -0.7740
19 5 3 -14.5213 1.2218
19 5 4 4.1777 0.1236
19 5 5 7.6278 -0.7851
19 5 6 -1.9661 0.3491
19 5 7 -4.7973 -0.6158
19 5 8 5.0702 -0.1831
19 5 9 -2.3358 1.0017
19 5 10 0.8248 -0.3241
19 5 11 9.4275 -0.3373
19 5 12 14.0411 0.2707
19 5 13 14.4800 -0.2416
19 5 14 2.7823 0.0096
19 5 15 -5.6172 0.6153
19 5 16 0.9289 0.1646
19 5 17 2.0940 -0.2254
19 5 18 -8.1083 -0.2487
19 5 19 -1.2856 0.2083
19 5 20 2.1418 0.2395
19 5 21 4.0879 -0.2783
19 5 22 -17.4378 0.0943
19 5 23 -3.2671 0.2798
19 5 24 16.5828 0.0655
19 5 25 -0.0045 -0.4684
19 5 26 -12.7201 -0.4308
19 7 0 -0.2160 -0.2533
19 7 1 -18.2593 0.0805
19 7 2 -3.6352 0.6247
19 7 3 -2.8733 -0.0669
19 7 4 0.7861 0.2775
19 7 5 -5.8662 -0.1040
19 7 6 3.6828 -0.1503
19 7 7 -12.4707 0.5870
19 7 8 -3.3562 -0.3163
19 7 9 2.3078 -0.7676
19 7 10 2.3207 0.3674
19 7 11 -1.9893 0.5054
19 7 12 -4.0443 -0.4085
19 7 13 13.8877 -0.0544
19 7 14 5.4778 0.0067
19 7 15 -5.5975 0.1436
19 7 16 3.2602 0.4019
19 7 17 2.2113 -0.2789
19 7 18 -6.9288 -0.7214
19 7 19 -8.6878 0.0477
19 7 20 6.3597 0.4680
19 7 21 0.9848 -0.0486
19 7 22 0.6413 -0.1965
19 7 23 -8.4819 -0.1674
19 7 24 2.9351 -0.0997
19 7 25 2.9393 -0.0990
19 9 0 0.8103 -0.2214
19 9 1 0.5481 0.1923
19 9 2 -0.2260 0.1932
19 9 3 -0.7878 0.1481
19 9 4 13.1892 -0.4980
19 9 5 -14.7132 0.2539
19 9 6 -2.0088 0.4348
19 9 7 3.6877 -0.4116
19 9 8 -5.5064 -0.5861
19 9 9 1.5025 0.5788
19 9 10 9.5146 0.4026
19 9 11 2.6059 -0.7124
19 9 12 8.4985 -0.1008
19 9 13 3.8789 0.4374
19 9 14 12.1684 0.3301
19 9 15 -4.3462 -0.1924
19 9 16 -1.9515 -0.6677
19 9 17 -3.0464 0.0288
19 9 18 4.0983 0.7580
19 9 19 -3.2972 -0.0627
19 9 20 5.2680 -0.2942
19 9 21 2.5043 0.3273
19 9 22 1.5522 0.0594
19 9 23 0.9332 0.0655
19 11 0 -11.1296 -0.2423
19 11 1 0.0246 0.1765
19 11 2 3.4578 0.2710
19 11 3 -0.3867 0.0620
19 11 4 -1.8899 0.0221
19 11 5 4.5421 -0.3277
19 11 6 5.4771 -0.0676
19 11 7 2.7536 0.3336
19 11 8 -17.2765 0.2236
19 11 9 -2.7727 -0.6344
19 11 10 -2.8109 -0.3603
19 11 11 7.3123 0.3845
19 11 12 -1.3579 0.3458
19 11 13 8.4913 -0.0601
19 11 14 0.5940 -0.1853
19 11 15 -1.0834 -0.0163
19 11 16 12.3513 0.2007
19 11 17 -7.8682 -0.1044
19 11 18 -14.1792 -0.1617
19 11 19 6.7114 -0.4161
19 11 20 7.7054 0.1367
19 11 21 -2.7166 0.6192
19 11 22 -11.0377 -0.2886
19 13 0 9.6842 0.5101
19 13 1 -16.3772 0.3293
19 13 2 1.2826 -0.2072
19 13 3 -2.2702 -0.3440
19 13 4 2.1081 0.3084
19 13 5 -10.3328 0.2431
19 13 6 2.0536 -0.1139
19 13 7 -1.0506 -0.2647
19 13 8 -1.2270 -0.0688
19 13 9 8.9423 0.3493
19 13 10 1.8966 -0.0991
19 13 11 -5.8175 -0.1743
19 13 12 -0.5972 0.0902
19 13 13 8.1403 0.3304
19 13 14 -0.6878 -0.0487
19 13 15 -2.4235 -0.1363
19 13 16 0.6707 -0.3267
19 13 17 -5.1184 -0.0083
19 13 18 3.1272 0.2506
19 13 19 1.3201 0.2256
19 15 0 3.9298 -0.1774
19 15 1 13.6024 -0.4120
19 15 2 3.8068 0.2947
19 15 3 -9.4589 0.2065
19 15 4 1.4233 0.0114
19 15 5 -2.6159 -0.4287
19 15 6 -5.8374 -0.4082
19 15 7 -4.7005 0.1970
19 15 8 -4.3900 0.3730
19 15 9 -5.2913 -0.3119
19 15 10 -3.8402 -0.2177
19 15 11 4.8534 0.0801
19 15 12 -0.0587 0.0987
19 15 13 1.9575 -0.1809
19 15 14 -7.0847 0.1352
19 15 15 0.5433 0.3864
19 15 16 -1.4342 -0.3945
19 17 0 -8.1297 0.1533
19 17 1 3.2756 0.4485
19 17 2 -6.9476 -0.1965
19 17 3 10.2939 -0.5421
19 17 4 11.9061 0.3635
19 17 5 11.5264 0.3018
19 17 6 -2.0100 -0.1767
19 17 7 -7.8839 0.0498
19 17 8 8.3340 -0.4411
19 17 9 2.6910 0.0028
19 17 10 -9.6155 0.9041
19 17 11 0.1159 0.3347
19 19 0 -1.1552 -1.1446
19 19 1 7.6951 -0.3234
19 19 2 -7.9960 0.3657
19 19 3 -7.6790 0.3656
20 0 0 -7.1659 -3.6674
20 0 2 0.3206 5.4344
20 0 4 -15.2189 -3.2121
20 0 6 7.7367 2.9582
20 0 8 -5.5039 -1.1952
20 0 10 7.7744 3.6677
20 0 12 10.2482 -3.8106
20 0 14 5.4063 3.3280
20 0 16 8.8813 -2.4839
20 0 18 4.0474 1.2125
20 0 20 4.0027 -1.2203
20 0 22 -10.9296 0.6662
20 0 24 -5.8843 -0.3491
20 0 26 -9.7851 0.0391
20 2 0 1.9863 -1.8285
20 2 1 1.0962 2.4090
20 2 2 1.3104 2.1500
20 2 3 0.5508 -0.4525
20 2 4 1.8518 -0.5119
20 2 5 -2.3646 -0.6723
20 2 6 -4.5759 -0.4387
20 2 7 -6.5695 1.3460
20 2 8 0.0435 1.4661
20 2 9 5.6126 -0.4520
20 2 10 -4.3191 -1.4824
20 2 11 -6.9518 -0.4201
20 2 12 12.1688 1.8891
20 2 13 3.9692 1.2683
20 2 14 -20.3727 -1.7770
20 2 15 -12.2839 -0.7009
20 2 16 7.8603 0.5780
20 2 17 11.8526 -0.3373
20 2 18 -0.1433 0.1224
20 2 19 -7.7887 0.4484
20 2 20 -2.0032 -0.4952
20 2 21 13.9772 -0.4426
20 2 22 -0.3276 0.7147
20 2 23 2.0660 0.0655
20 2 24 -2.1926 -0.4807
20 2 25 2.6228 -0.2679
20 2 26 -0.7003 0.5347
20 4 0 -14.5892 1.1762
20 4 1 -7.0447 0.4684
20 4 2 -1.2532 -1.1159
20 4 3 4.3076 -1.4137
20 4 4 -10.4360 0.6724
20 4 5 -3.9355 1.6836
20 4 6 4.4206 0.1405
20 4 7 -3.9975 -2.2973
20 4 8 -0.1328 -0.0003
20 4 9 2.3868 1.4427
20 4 10 9.0977 0.0223
20 4 11 -1.1754 0.1675
20 4 12 7.9321 -0.2836
20 4 13 6.1691 0.4716
20 4 14 8.3142 0.2493
20 4 15 8.9213 -1.0466
20 4 16 -10.2562 -0.4856
20 4 17 -14.2551 0.9162
20 4 18 -9.9642 -0.0859
20 4 19 4.8244 -0.0093
20 4 20 -11.1530 0.5510
20 4 21 1.2948 -0.6864
20 4 22 -4.3653 -0.6404
20 4 23 -6.6344 0.4534
20 4 24 0.8938 0.3915
20 4 25 -6.9532 -0.2157
20 6 0 5.2764 -0.3812
20 6 1 1.8129 -0.2996
20 6 2 2.7539 0.5344
20 6 3 -10.8820 0.6514
20 6 4 -5.7404 -0.0041
20 6 5 1.2135 -0.8436
20 6 6 -4.4874 -0.3816
20 6 7 -6.2262 1.2563
20 6 8 0.2814 -0.1926
20 6 9 -3.1515 -0.9779
20 6 10 -1.7671 -0.0033
20 6 11 -3.1697 0.9332
20 6 12 -0.3781 0.3751
20 6 13 7.8309 -0.6764
20 6 14 8.2012 -0.5623
20 6 15 5.9687 0.4643
20 6 16 -5.7883 0.3410
20 6 17 -14.9883 -0.0395
20 6 18 6.8635 -0.0603
20 6 19 -1.8378 -0.3823
20 6 20 -18.3178 0.1624
20 6 21 -2.7872 0.0283
20 6 22 4.6058 -0.5187
20 6 23 -3.8361 -0.0158
20 6 24 -7.5407 0.4876
20 6 25 0.1840 -0.0012
20 8 0 -8.3335 0.8778
20 8 1 -3.4040 -0.3324
20 8 2 0.5236 -0.4042
20 8 3 1.0604 0.2923
20 8 4 1.7098 -0.3440
20 8 5 -10.2679 0.0938
20 8 6 3.1723 0.5679
20 8 7 -5.9345 -0.6906
20 8 8 6.7363 -0.8601
20 8 9 -1.0849 0.7438
20 8 10 0.8709 0.7062
20 8 11 -1.4510 -0.5072
20 8 12 11.4237 -0.3202
20 8 13 6.0741 0.1096
20 8 14 3.4461 0.3052
20 8 15 -1.1622 -0.0135
20 8 16 11.1152 -0.2685
20 8 17 6.9150 -0.0709
20 8 18 1.0468 0.4425
20 8 19 -0.0626 0.1720
20 8 20 7.5786 -0.2570
20 8 21 -7.8334 -0.1999
20 8 22 0.9396 0.1977
20 8 23 2.3046 0.5548
20 10 0 -4.2099 -0.8369
20 10 1 -0.1448 0.0650
20 10 2 0.1467 0.7060
20 10 3 -1.6567 0.5164
20 10 4 8.4857 -0.2055
20 10 5 -0.6973 -0.5247
20 10 6 -6.6409 -0.0857
20 10 7 -1.2698 0.5485
20 10 8 -5.6429 0.2423
20 10 9 2.0060 -0.7348
20 10 10 1.4320 -0.0635
20 10 11 2.2439 0.4946
20 10 12 1.5321 -0.0764
20 10 13 6.9930 -0.0235
20 10 14 10.4023 0.0723
20 10 15 -6.7131 -0.1884
20 10 16 -0.1780 -0.1255
20 10 17 -12.2544 0.3336
20 10 18 -2.8677 -0.0883
20 10 19 -5.6350 -0.5467
20 10 20 1.3212 0.0142
20 10 21 -1.3963 0.5676
20 10 22 -0.7487 0.0189
20 12 0 5.8127 0.6159
20 12 1 4.1544 0.0679
20 12 2 -7.5833 -0.2515
20 12 3 -13.2674 -0.3888
20 12 4 9.3598 0.0991
20 12 5 1.0767 0.4473
20 12 6 -1.1460 -0.1247
20 12 7 5.9510 -0.5472
20 12 8 -0.2500 -0.1359
20 12 9 -5.3468 0.5529
20 12 10 -6.5943 -0.0319
20 12 11 19.0905 -0.0752
20 12 12 -3.2443 0.1190
20 12 13 0.4465 0.0594
20 12 14 10.4883 -0.1498
20 12 15 -3.6904 0.2449
20 12 16 -0.6716 0.0726
20 12 17 6.0470 -0.4037
20 12 18 13.7830 -0.0895
20 12 19 -0.2123 0.1983
20 14 0 4.8635 -0.1295
20 14 1 3.4745 -0.1195
20 14 2 2.2385 0.1027
20 14 3 -16.3906 0.2596
20 14 4 -0.4553 0.1055
20 14 5 -2.5443 -0.4256
20 14 6 -0.0384 -0.3451
20 14 7 -6.8015 0.0010
20 14 8 -8.7636 0.2885
20 14 9 0.8241 0.0212
20 14 10 0.6851 -0.3141
20 14 11 6.5411 -0.1793
20 14 12 -5.0977 0.3331
20 14 13 3.5048 0.0765
20 14 14 4.0681 -0.2299
20 14 15 5.0101 -0.1476
20 14 16 -7.2889 -0.1081
20 16 0 -12.8346 0.2855
20 16 1 3.3413 0.1077
20 16 2 10.5382 -0.3160
20 16 3 14.3671 -0.2182
20 16 4 -2.2234 0.0656
20 16 5 -0.7986 0.5027
20 16 6 4.7550 0.0583
20 16 7 -0.2750 0.0106
20 16 8 -3.4930 -0.1953
20 16 9 0.1076 0.0877
20 16 10 -5.6577 0.4038
20 16 11 -6.4328 0.4697
20 16 12 9.7403 0.0003
20 16 13 8.1535 -0.4138
20 18 0 -4.5096 -0.6470
20 18 1 15.2700 -0.4550
20 18 2 -19.4333 0.1937
20 18 3 -15.5446 0.4710
20 18 4 1.2827 -0.5962
20 18 5 16.5481 -0.5442
20 18 6 3.1599 0.1973
20 18 7 -9.4059 0.2464
21 1 0 6.3738 -3.4809
21 1 1 -1.4117 0.0930
21 1 2 -13.7404 1.0463
21 1 3 0.6797 0.8676
21 1 4 -0.1252 2.0134
21 1 5 -9.2337 -1.0155
21 1 6 -5.2238 -0.2923
21 1 7 -0.4230 0.2832
21 1 8 1.6099 0.1051
21 1 9 0.3957 -0.1365
21 1 10 4.9470 0.5674
21 1 11 -2.7357 0.7118
21 1 12 -0.8610 -0.4327
21 1 13 -0.1403 -1.5884
21 1 14 7.2454 -0.6274
21 1 15 1.7476 0.9552
21 1 16 -4.5556 0.0854
21 1 17 1.9077 -0.0731
21 1 18 8.1196 0.2589
21 1 19 8.2239 -0.4789
21 1 20 3.7257 -0.5163
21 1 21 -3.4709 0.2340
21 1 22 -10.3976 0.4841
21 1 23 3.9009 0.3408
21 1 24 -2.5721 -0.3102
21 1 25 2.0265 -0.0578
21 3 0 0.6518 0.4699
21 3 1 6.1982 1.3674
21 3 2 -7.0749 1.8546
21 3 3 -7.5572 -1.2125
21 3 4 3.9661 -2.4231
21 3 5 2.1807 1.4515
21 3 6 0.6771 1.0421
21 3 7 -3.5190 -1.7522
21 3 8 -1.2778 0.4425
21 3 9 -5.5807 1.9456
21 3 10 11.3446 -1.0273
21 3 11 2.9280 -0.9171
21 3 12 7.8046 0.3755
21 3 13 -3.5270 0.6109
21 3 14 -5.7852 -0.5808
21 3 15 -4.1173 -0.5716
21 3 16 -7.3505 0.5524
21 3 17 -7.0804 0.1254
21 3 18 -3.2913 -0.4361
21 3 19 1.2147 -0.3675
21 3 20 -10.0369 0.3175
21 3 21 2.9385 -0.1194
21 3 22 5.7067 0.2418
21 3 23 2.3524 0.1859
21 3 24 -4.8294 0.2352
21 3 25 -4.5700 -0.4948
21 5 0 -1.6511 -0.4228
21 5 1 4.4343 0.3067
21 5 2 2.5568 0.0682
21 5 3 -5.5898 0.3007
21 5 4 -12.1419 0.1965
21 5 5 -4.6456 -1.1678
21 5 6 2.9612 -0.4097
21 5 7 -2.5775 1.6090
21 5 8 -6.6154 -0.1050
21 5 9 -0.3679 -0.6351
21 5 10 6.2338 0.0973
21 5 11 -5.8669 0.3120
21 5 12 4.3935 0.1552
21 5 13 10.7461 0.1856
21 5 14 -1.9516 -0.0460
21 5 15 -1.6078 -0.5523
21 5 16 5.6738 -0.2284
21 5 17 -0.4876 0.4265
21 5 18 -15.5401 0.0764
21 5 19 -12.1668 -0.2874
21 5 20 -0.5458 0.2512
21 5 21 -2.8597 -0.0041
21 5 22 -5.0085 -0.2297
21 5 23 -0.2958 0.0977
21 5 24 -5.7556 -0.2350
21 7 0 1.3659 0.2832
21 7 1 5.2651 -0.0418
21 7 2 6.7516 0.1621
21 7 3 -3.7381 -0.0642
21 7 4 -7.6163 -0.6477
21 7 5 1.7822 0.1176
21 7 6 6.8039 -0.0300
21 7 7 1.6595 -0.3222
21 7 8 2.9867 0.1746
21 7 9 -16.1859 -0.0776
21 7 10 1.7951 -0.0276
21 7 11 11.0827 0.3486
21 7 12 6.1742 -0.1179
21 7 13 -13.4806 -0.4470
21 7 14 2.2050 0.3573
21 7 15 16.9531 0.1653
21 7 16 7.4369 -0.5394
21 7 17 -10.4343 -0.1505
21 7 18 4.6980 0.4974
21 7 19 -3.1287 0.2305
21 7 20 -10.7269 -0.0349
21 7 21 -1.9323 -0.3065
21 7 22 -2.5190 -0.4349
21 7 23 -4.6211 0.1623
21 9 0 -4.0134 -0.2317
21 9 1 6.2992 -0.3445
21 9 2 -2.8097 0.1982
21 9 3 -0.1328 0.4463
21 9 4 3.2350 -0.0008
21 9 5 -3.9890 -0.3433
21 9 6 -2.7593 -0.1878
21 9 7 -6.4914 0.3446
21 9 8 4.8541 0.1657
21 9 9 2.3144 -0.1660
21 9 10 -6.0894 0.1397
21 9 11 -2.2319 0.0094
21 9 12 22.8433 -0.1446
21 9 13 2.0171 0.3143
21 9 14 -13.3873 0.1246
21 9 15 -2.6725 -0.2762
21 9 16 7.4900 -0.2011
21 9 17 -4.9949 0.2690
21 9 18 -0.5788 0.2562
21 9 19 -6.4115 -0.2178
21 9 20 5.4086 -0.2094
21 9 21 1.9489 0.3643
21 9 22 1.2715 -0.0355
21 11 0 -2.9430 0.1859
21 11 1 1.7694 0.0828
21 11 2 2.0166 0.1050
21 11 3 -2.5169 -0.4259
21 11 4 2.1297 -0.2200
21 11 5 -8.5849 -0.0158
21 11 6 -0.3156 0.2632
21 11 7 8.7331 -0.1010
21 11 8 -6.6745 -0.2941
21 11 9 4.4241 -0.0206
21 11 10 -4.1786 0.1490
21 11 11 1.9677 0.2614
21 11 12 -6.9776 0.1756
21 11 13 14.1558 -0.3983
21 11 14 4.8541 -0.3514
21 11 15 0.6306 0.5524
21 11 16 9.6349 0.3469
21 11 17 -9.7316 -0.4487
21 11 18 -0.8974 -0.2184
21 11 19 0.0170 0.1897
21 11 20 -4.1536 -0.2526
21 13 0 5.0059 -0.0075
21 13 1 -8.0177 -0.0685
21 13 2 -1.1416 -0.0219
21 13 3 1.3423 0.3005
21 13 4 8.5856 0.0555
21 13 5 -5.3593 0.0869
21 13 6 -6.1899 -0.4539
21 13 7 -4.8895 -0.0740
21 13 8 6.0386 0.3373
21 13 9 6.1885 0.4705
21 13 10 -3.0943 -0.4732
21 13 11 4.0815 -0.3088
21 13 12 -0.2710 0.3152
21 13 13 3.1557 0.4107
21 13 14 5.9326 -0.1125
21 13 15 -3.8994 -0.5445
21 13 16 0.2118 -0.5785
21 13 17 1.2753 0.3813
21 15 0 2.3946 -0.0311
21 15 1 -2.3603 0.1740
21 15 2 -0.0905 -0.1384
21 15 3 2.4601 -0.2940
21 15 4 4.2632 0.1396
21 15 5 -3.3084 0.0824
21 15 6 -3.4007 0.0272
21 15 7 -1.1932 -0.0872
21 15 8 -7.8940 -0.3325
21 15 9 -0.6570 -0.2198
21 15 10 -3.2824 0.8664
21 15 11 4.5096 0.2543
21 15 12 -3.7729 -0.2817
21 15 13 2.6737 -0.5728
21 15 14 0.1009 0.0995
21 17 0 2.0142 0.0882
21 17 1 0.4563 -0.2878
21 17 2 -18.7859 -0.1439
21 17 3 10.0298 0.6584
21 17 4 9.0975 -0.2781
21 17 5 1.4586 -0.3044
21 17 6 -0.3614 0.5809
21 17 7 8.9060 1.0014
21 17 8 5.1458 -0.1968
21 17 9 -6.5487 0.1558
22 0 0 -4.7723 7.5541
22 0 2 -14.1112 -2.7315
22 0 4 -1.9972 -0.4656
22 0 6 -20.7726 3.1626
22 0 8 19.1252 -1.8274
22 0 10 -2.8861 -0.0363
22 0 12 5.7654 -1.3924
22 0 14 9.8465 1.7578
22 0 16 9.8339 -2.3651
22 0 18 -2.8517 1.5739
22 0 20 2.3961 -0.7618
22 0 22 -7.1332 0.6802
22 0 24 -3.0064 -0.3808
22 2 0 -5.9367 -0.9123
22 2 1 1.9716 0.4602
22 2 2 6.5343 0.8589
22 2 3 -3.5789 -1.8148
22 2 4 -0.0041 -0.0939
22 2 5 -4.5729 1.8760
22 2 6 4.6192 -0.1731
22 2 7 -3.4648 -1.2507
22 2 8 -0.0780 -0.7581
22 2 9 1.1568 0.2704
22 2 10 8.8179 0.5660
22 2 11 -4.3805 -0.1168
22 2 12 -0.8567 -0.3786
22 2 13 -1.3478 0.2754
22 2 14 -3.5910 -0.7180
22 2 15 -3.0024 -0.9979
22 2 16 -13.8048 1.3719
22 2 17 -4.7072 0.5125
22 2 18 -1.6687 -0.9068
22 2 19 8.2709 0.0611
22 2 20 9.1193 0.8605
22 2 21 1.1975 -0.3878
22 2 22 -9.4269 -0.2829
22 2 23 1.3032 0.5067
22 2 24 0.6219 -0.1998
22 4 0 3.3250 -0.6639
22 4 1 8.1806 -0.0833
22 4 2 -10.9534 0.0000
22 4 3 -3.6852 0.8424
22 4 4 2.3084 0.1689
22 4 5 -8.2036 -0.9499
22 4 6 -2.9837 -0.4190
22 4 7 2.6453 0.6483
22 4 8 4.7602 0.1275
22 4 9 -6.5100 0.3934
22 4 10 8.6244 -0.0082
22 4 11 0.8178 -0.2650
22 4 12 7.3827 -0.1372
22 4 13 -2.8032 -0.1396
22 4 14 8.3873 0.0071
22 4 15 6.0155 -0.4610
22 4 16 -8.3958 0.0005
22 4 17 -6.8987 0.7357
22 4 18 -1.6718 0.2099
22 4 19 -1.7017 -0.8913
22 4 20 -0.1891 -0.0404
22 4 21 -5.6865 0.3673
22 4 22 4.3764 -0.0008
22 4 23 1.5810 -0.0591
22 4 24 5.9765 0.5971
22 6 0 3.0928 0.5760
22 6 1 3.7919 -0.2244
22 6 2 -3.2395 -0.0449
22 6 3 0.8748 0.1071
22 6 4 10.2192 -0.8132
22 6 5 -2.6837 0.1122
22 6 6 -7.7703 0.3873
22 6 7 2.8827 0.0219
22 6 8 1.4263 -0.3043
22 6 9 -2.6384 -0.2564
22 6 10 10.2845 0.3954
22 6 11 1.0984 0.4761
22 6 12 -4.0005 -0.0717
22 6 13 -5.1195 -1.0666
22 6 14 4.6473 -0.0768
22 6 15 10.7735 0.9417
22 6 16 -3.8459 0.0817
22 6 17 -16.2521 -0.7479
22 6 18 3.5912 -0.0525
22 6 19 -7.9526 0.2909
22 6 20 -9.0185 -0.0992
22 6 21 -6.1195 -0.0369
22 6 22 -13.2866 0.1499
22 6 23 2.6947 0.0856
22 8 0 -1.1543 -0.2822
22 8 1 6.8604 -0.0828
22 8 2 -0.1141 -0.3010
22 8 3 4.5516 0.0318
22 8 4 -5.4413 0.5426
22 8 5 0.7562 -0.4989
22 8 6 3.0760 -0.5097
22 8 7 -1.4761 0.1548
22 8 8 6.1958 0.4885
22 8 9 3.8216 0.1317
22 8 10 5.2240 0.1896
22 8 11 -8.5117 -0.3691
22 8 12 6.1180 -0.1380
22 8 13 12.4063 0.6709
22 8 14 -1.2725 0.2283
22 8 15 -1.3592 -0.5690
22 8 16 0.2177 -0.2582
22 8 17 8.4088 0.4304
22 8 18 8.3640 0.4330
22 8 19 -1.9387 -0.1496
22 8 20 -6.0654 -0.1961
22 8 21 2.4072 0.0570
22 10 0 1.9795 -0.1449
22 10 1 -0.4417 0.2322
22 10 2 -4.9414 0.2773
22 10 3 -3.2233 -0.4198
22 10 4 -1.5164 -0.4341
22 10 5 -1.6881 0.0878
22 10 6 2.6377 0.2455
22 10 7 -10.1721 0.2051
22 10 8 -16.3761 -0.1480
22 10 9 6.2021 -0.2809
22 10 10 4.5464 -0.1498
22 10 11 -3.8254 0.5162
22 10 12 -2.5669 -0.0538
22 10 13 3.5253 -0.5535
22 10 14 -5.2836 -0.2317
22 10 15 4.8755 0.4382
22 10 16 0.6956 0.1213
22 10 17 -15.2118 -0.1364
22 10 18 -6.4095 -0.2849
22 10 19 -6.1186 -0.1244
22 10 20 -0.6591 -0.0747
22 12 0 6.2225 0.1793
22 12 1 18.9701 -0.2606
22 12 2 10.8717 -0.1214
22 12 3 -12.7471 0.2148
22 12 4 -6.2923 0.2340
22 12 5 0.4141 -0.0488
22 12 6 8.6520 -0.4689
22 12 7 4.9902 -0.0967
22 12 8 0.6097 0.5609
22 12 9 2.6540 0.5057
22 12 10 -9.1957 -0.2443
22 12 11 11.1582 -0.6379
22 12 12 -1.0141 0.3445
22 12 13 1.5737 0.5148
22 12 14 1.8507 0.0011
22 12 15 3.3685 -0.5699
22 12 16 4.1739 -0.1329
22 12 17 0.8701 0.2210
22 14 0 -4.8084 -0.1598
22 14 1 -5.0591 0.2081
22 14 2 7.3474 -0.1417
22 14 3 1.4164 -0.2208
22 14 4 -8.3374 -0.0595
22 14 5 -9.3138 0.2191
22 14 6 5.6811 0.1264
22 14 7 4.5870 0.0868
22 14 8 -7.7457 -0.2201
22 14 9 -7.5384 -0.3638
22 14 10 0.4975 0.4158
22 14 11 0.9032 0.3990
22 14 12 -1.9578 -0.2589
22 14 13 2.3637 -0.5542
22 14 14 0.4311 0.0880
22 16 0 3.5994 0.3889
22 16 1 -14.6223 -0.1572
22 16 2 -1.5121 -0.3002
22 16 3 13.7724 0.2068
22 16 4 5.0156 0.1462
22 16 5 -3.6903 -0.0192
22 16 6 1.3229 0.2142
22 16 7 9.2818 0.3355
22 16 8 4.9482 0.2002
22 16 9 -0.8581 -0.2163
22 16 10 -5.1845 0.0643
22 18 0 1.0057 -0.7622
22 18 1 18.0749 0.0711
22 18 2 -8.8170 0.0945
22 18 3 -22.7898 0.0808
23 1 0 -2.7023 -8.8877
23 1 1 -0.9028 -0.3985
23 1 2 -0.4101 3.9447
23 1 3 -1.7852 -1.8179
23 1 4 -4.6696 -1.9886
23 1 5 -2.8285 0.3808
23 1 6 0.0031 0.5749
23 1 7 -1.9291 -0.0102
23 1 8 2.2849 -0.9309
23 1 9 4.2639 0.2255
23 1 10 2.2322 0.0771
23 1 11 -0.5252 -1.0138
23 1 12 6.8620 -0.5432
23 1 13 -7.9338 0.6979
23 1 14 -6.2232 0.0593
23 1 15 0.9612 0.3558
23 1 16 0.6354 0.4848
23 1 17 0.9497 -0.3654
23 1 18 4.5383 -0.0322
23 1 19 -2.5085 0.2260
23 1 20 -9.2046 -0.2528
23 1 21 2.4910 0.3422
23 1 22 7.4565 0.5602
23 1 23 -4.6858 0.0403
23 3 0 8.0901 2.1639
23 3 1 -6.4296 -0.7758
23 3 2 -0.3931 -2.6435
23 3 3 1.3472 1.4275
23 3 4 1.9788 1.6971
23 3 5 -5.0209 -0.2404
23 3 6 2.9051 -0.6756
23 3 7 -4.6378 -0.3934
23 3 8 8.7615 -0.2449
23 3 9 0.4263 0.7885
23 3 10 0.9762 -0.0330
23 3 11 -7.2569 -1.2911
23 3 12 11.8865 0.1294
23 3 13 0.5409 0.7317
23 3 14 -3.4476 0.2468
23 3 15 -6.4447 -0.9546
23 3 16 -8.0591 0.0596
23 3 17 1.5120 0.4302
23 3 18 -9.1470 -0.0122
23 3 19 -4.4156 -0.0240
23 3 20 6.8378 0.4147
23 3 21 6.9711 -0.1427
23 3 22 0.2853 -0.5754
23 3 23 5.0134 -0.0495
23 5 0 1.5197 -0.8851
23 5 1 4.6339 -0.0076
23 5 2 -0.1108 0.7501
23 5 3 -3.0374 0.1095
23 5 4 -4.9674 -0.3488
23 5 5 1.4826 -0.4673
23 5 6 0.0239 -0.0293
23 5 7 -0.6480 0.8063
23 5 8 0.1827 0.0402
23 5 9 3.7512 -1.0836
23 5 10 10.2124 0.4502
23 5 11 0.7056 1.1463
23 5 12 2.3938 -0.2398
23 5 13 7.3755 -1.2555
23 5 14 2.5107 -0.0025
23 5 15 -8.0338 0.5705
23 5 16 -3.6996 0.1920
23 5 17 8.0534 0.0800
23 5 18 2.2416 -0.0792
23 5 19 -20.0605 0.0404
23 5 20 1.7631 0.0217
23 5 21 -2.9941 -0.0448
23 5 22 3.5394 0.1711
23 7 0 -1.9965 0.9766
23 7 1 -5.5321 -0.4785
23 7 2 -2.4071 -1.0302
23 7 3 6.4666 0.0734
23 7 4 5.2217 0.4667
23 7 5 -0.4588 0.1267
23 7 6 -2.9529 -0.2110
23 7 7 5.5854 -0.5226
23 7 8 11.6257 0.3947
23 7 9 -11.0573 0.6187
23 7 10 10.9889 0.1029
23 7 11 9.6164 -0.5021
23 7 12 -0.6647 -0.1608
23 7 13 4.9043 0.2069
23 7 14 12.1744 0.0943
23 7 15 -2.5913 0.1677
23 7 16 -3.4440 -0.0910
23 7 17 14.6217 -0.2483
23 7 18 3.0549 0.2489
23 7 19 -17.7753 0.2050
23 7 20 -0.7678 -0.1566
23 7 21 10.4723 -0.1657
23 9 0 -0.5002 -0.5611
23 9 1 4.9013 0.2784
23 9 2 -0.6740 0.5331
23 9 3 7.5908 -0.3180
23 9 4 -13.8087 -0.5329
23 9 5 -2.3142 -0.1106
23 9 6 -2.1445 0.4601
23 9 7 -3.9748 0.3535
23 9 8 -3.3911 -0.0752
23 9 9 0.3945 -0.2401
23 9 10 -4.3819 -0.0935
23 9 11 3.7230 0.2381
23 9 12 1.4488 -0.1614
23 9 13 -3.8305 -0.3071
23 9 14 -6.4160 -0.1385
23 9 15 11.8810 0.0909
23 9 16 -9.9631 0.2904
23 9 17 -5.2690 -0.0272
23 9 18 -5.3087 -0.4020
23 9 19 -1.9847 -0.2571
23 9 20 2.5067 -0.1805
23 11 0 7.1858 0.2021
23 11 1 -3.1140 -0.1934
23 11 2 -0.6465 -0.3754
23 11 3 -1.0278 -0.1980
23 11 4 8.7039 0.3548
23 11 5 -12.5059 0.3775
23 11 6 -1.5840 -0.4586
23 11 7 0.3165 -0.5024
23 11 8 -4.2619 0.3570
23 11 9 1.9909 0.5487
23 11 10 4.7665 0.0104
23 11 11 0.8631 -0.4406
23 11 12 -12.3222 -0.0376
23 11 13 -0.9574 0.1311
23 11 14 0.3321 0.1820
23 11 15 12.9812 -0.1951
23 11 16 4.7188 -0.1047
23 11 17 0.7156 0.2120
23 13 0 -9.3969 -0.2893
23 13 1 -7.5590 0.4183
23 13 2 7.6344 -0.0257
23 13 3 -0.3538 0.0506
23 13 4 1.8672 -0.0128
23 13 5 -1.2002 -0.0276
23 13 6 -4.4479 0.0137
23 13 7 -2.9737 0.4154
23 13 8 -3.0438 0.1204
23 13 9 2.8746 -0.1809
23 13 10 2.7025 -0.0870
23 13 11 -1.3525 0.0578
23 13 12 -7.2172 0.0175
23 13 13 -2.2049 -0.1772
23 13 14 -0.5936 -0.2091
23 13 15 -4.1392 -0.2894
23 15 0 9.5657 0.6759
23 15 1 -5.2930 -0.0737
23 15 2 0.4172 -0.4759
23 15 3 -9.2960 -0.1637
23 15 4 1.8534 0.2389
23 15 5 10.8275 -0.2204
23 15 6 0.8116 0.2551
23 15 7 -8.1440 -0.2450
23 15 8 5.4953 -0.0325
23 15 9 8.1670 0.0017
23 15 10 -5.1193 0.1047
23 15 11 -3.3667 -0.5060
23 17 0 4.4839 -0.7170
23 17 1 4.1819 -0.1313
23 17 2 -6.4861 0.8802
23 17 3 -11.2817 0.3814
23 17 4 -0.3076 -0.5276
23 17 5 -0.0290 0.0821
24 0 0 0.0261 -12.4323
24 0 2 -6.4456 6.0127
24 0 4 -0.1719 -6.6139
24 0 6 1.1942 4.7547
24 0 8 -4.7227 -4.3664
24 0 10 10.2724 1.9277
24 0 12 -6.4155 -0.4792
24 0 14 9.8628 0.3680
24 0 16 -7.5261 -0.2225
24 0 18 10.5197 0.9040
24 0 20 -10.2707 -0.4823
24 0 22 -2.1371 0.2021
24 2 0 3.0419 1.2625
24 2 1 -3.5408 -1.6798
24 2 2 7.7883 -0.8163
24 2 3 -3.6827 0.1801
24 2 4 -2.1715 0.7927
24 2 5 -0.2505 0.7969
24 2 6 6.3155 -0.9548
24 2 7 -4.2287 -0.7708
24 2 8 -1.7103 0.7289
24 2 9 0.0715 0.3135
24 2 10 1.2650 -0.4129
24 2 11 0.7161 -0.1750
24 2 12 -1.1452 -0.0698
24 2 13 -9.8970 -0.0278
24 2 14 -7.1511 0.9463
24 2 15 -8.4964 -0.1337
24 2 16 -5.0340 -0.3746
24 2 17 -8.4553 0.9767
24 2 18 -10.9635 -0.1788
24 2 19 -2.7063 -0.7942
24 2 20 8.6137 0.0910
24 2 21 -3.3109 0.3595
24 2 22 -1.7968 -0.6262
24 4 0 -1.8462 -0.6858
24 4 1 6.4827 0.6502
24 4 2 4.7277 0.2232
24 4 3 -2.8706 -0.2113
24 4 4 -7.0659 -0.2316
24 4 5 0.3899 -0.4648
24 4 6 3.2582 0.0459
24 4 7 -0.6433 1.0916
24 4 8 1.3258 0.5126
24 4 9 -1.1482 -1.2216
24 4 10 12.3632 -0.7337
24 4 11 4.2171 0.2159
24 4 12 7.3560 0.7182
24 4 13 -8.4277 0.1895
24 4 14 -2.5951 -0.2033
24 4 15 9.2919 -0.0813
24 4 16 4.8720 0.1050
24 4 17 -3.8414 -0.0043
24 4 18 -6.9556 0.3307
24 4 19 1.1024 0.2712
24 4 20 1.5419 -0.4863
24 4 21 -0.5214 0.3314
24 4 22 6.6232 0.6155
24 6 0 -8.5241 0.6778
24 6 1 1.7665 -0.7356
24 6 2 -2.9400 -0.7121
24 6 3 -0.1771 0.3139
24 6 4 -6.8554 1.1222
24 6 5 -1.0119 0.0802
24 6 6 3.0924 -0.4202
24 6 7 -3.5495 -0.4152
24 6 8 -2.3687 0.2227
24 6 9 6.2191 0.2847
24 6 10 7.5211 0.2116
24 6 11 -4.6010 -0.2431
24 6 12 6.9456 -0.3123
24 6 13 14.1015 -0.0345
24 6 14 -0.9513 0.1888
24 6 15 2.4484 0.3480
24 6 16 1.9230 -0.2499
24 6 17 -15.3493 -0.3899
24 6 18 0.7287 0.0721
24 6 19 2.8088 0.5585
24 6 20 0.9663 0.2574
24 6 21 -18.5238 -0.6615
24 8 0 1.2236 -0.2896
24 8 1 12.4539 0.2970
24 8 2 -1.5880 -0.1011
24 8 3 1.2531 -0.1176
24 8 4 -1.8516 0.1157
24 8 5 5.6345 -0.1301
24 8 6 -6.8005 0.0082
24 8 7 -9.7752 0.3826
24 8 8 13.6789 0.1802
24 8 9 1.8633 -0.2128
24 8 10 3.7246 -0.0358
24 8 11 -5.3814 0.3707
24 8 12 2.8321 -0.2187
24 8 13 11.3766 -0.1872
24 8 14 1.5149 -0.0859
24 8 15 6.1295 -0.1166
24 8 16 -2.0893 0.3135
24 8 17 3.3079 0.1991
24 8 18 1.4325 -0.3222
24 8 19 3.6770 -0.4026
24 10 0 -2.4980 0.0188
24 10 1 -7.2290 -0.0965
24 10 2 2.3538 0.1414
24 10 3 3.8763 -0.2722
24 10 4 -7.9284 -0.3252
24 10 5 -11.3109 0.6461
24 10 6 -3.5242 0.2931
24 10 7 7.0059 -0.5038
24 10 8 -4.5047 -0.3654
24 10 9 -10.3101 0.5836
24 10 10 -8.4675 0.2264
24 10 11 -1.1171 -0.5427
24 10 12 4.8683 -0.2165
24 10 13 1.0822 0.0472
24 10 14 -7.9334 -0.0499
24 10 15 5.4927 0.1080
24 10 16 -5.0394 0.0808
24 10 17 4.4898 -0.1705
24 10 18 4.3556 0.2397
24 12 0 4.2357 -0.3475
24 12 1 -8.2270 0.3291
24 12 2 1.7058 -0.2323
24 12 3 -2.5100 -0.0883
24 12 4 11.2718 0.2634
24 12 5 -19.0267 -0.1414
24 12 6 -4.8305 -0.0516
24 12 7 5.7304 0.2194
24 12 8 3.0123 0.3303
24 12 9 -5.6131 -0.3830
24 12 10 -3.1545 -0.2903
24 12 11 -0.1666 -0.0848
24 12 12 -6.2704 0.3954
24 12 13 -0.3883 0.0813
24 12 14 -7.7818 -0.1939
24 12 15 -3.9470 -0.4435
24 14 0 8.7457 0.3413
24 14 1 -11.7304 0.2701
24 14 2 -10.5190 -0.3107
24 14 3 -0.0709 -0.3951
24 14 4 11.1414 0.2237
24 14 5 0.2130 0.2544
24 14 6 -5.8656 -0.1003
24 14 7 -2.5053 -0.0492
24 14 8 -2.1005 -0.2937
24 14 9 6.1481 -0.0259
24 14 10 2.3847 0.1779
24 14 11 -6.4554 0.2406
24 14 12 -1.1638 -0.7577
24 16 0 15.1912 -0.1900
24 16 1 -10.0524 -0.4017
24 16 2 -3.8369 0.6469
24 16 3 -11.2345 0.4361
24 16 4 10.3294 -0.2698
24 16 5 4.1138 -0.6506
24 16 6 0.0187 0.1854
25 1 0 8.1085 -0.8725
25 1 1 -3.5389 -1.4147
25 1 2 -3.2984 -1.6593
25 1 3 -6.5113 0.7434
25 1 4 1.5650 0.5033
25 1 5 6.0818 0.1958
25 1 6 2.5086 0.6892
25 1 7 -4.7385 0.3566
25 1 8 -1.4660 -1.7863
25 1 9 5.5493 -0.1379
25 1 10 0.3599 1.8128
25 1 11 1.2607 0.3197
25 1 12 -7.6353 -0.5064
25 1 13 -7.4115 0.3741
25 1 14 -1.2467 0.6696
25 1 15 -3.8416 -0.2678
25 1 16 -3.7184 -0.2204
25 1 17 -12.3877 0.0713
25 1 18 -3.5828 0.0179
25 1 19 -5.0058 0.2329
25 1 20 3.1458 -0.0880
25 1 21 -7.8883 -0.4455
25 3 0 2.3944 -0.0483
25 3 1 -4.6070 0.0196
25 3 2 1.0164 0.0017
25 3 3 3.2219 0.1980
25 3 4 3.8838 1.2516
25 3 5 -8.4177 -0.2842
25 3 6 -2.0046 -1.2133
25 3 7 6.4983 0.2300
25 3 8 2.7806 0.6732
25 3 9 -6.5834 -0.7033
25 3 10 1.3776 0.0874
25 3 11 -3.9239 0.0544
25 3 12 7.3104 0.3008
25 3 13 -5.4111 0.1689
25 3 14 -4.4094 -0.6054
25 3 15 -6.1757 -0.0370
25 3 16 1.6521 0.4721
25 3 17 -12.3546 0.3837
25 3 18 2.6101 -0.0040
25 3 19 1.1543 -0.1923
25 3 20 -6.6799 -0.7676
25 3 21 -5.4109 0.4021
25 5 0 -5.1104 0.1540
25 5 1 -7.7779 0.1248
25 5 2 -5.1632 0.2432
25 5 3 3.6259 -0.6951
25 5 4 -3.3835 -0.2535
25 5 5 2.1191 0.9010
25 5 6 -7.2998 0.3423
25 5 7 -9.3814 -0.8968
25 5 8 1.5986 0.2503
25 5 9 2.1590 0.3595
25 5 10 -1.7693 -0.5991
25 5 11 5.2477 0.4294
25 5 12 11.6952 0.0339
25 5 13 0.3817 -0.6218
25 5 14 -11.0484 0.3829
25 5 15 2.8585 0.8325
25 5 16 0.6912 -0.2797
25 5 17 -3.8808 -0.1945
25 5 18 -1.5961 -0.1860
25 5 19 -0.4917 -0.0957
25 5 20 2.6760 0.3806
25 7 0 0.8357 0.0286
25 7 1 4.9224 -0.4735
25 7 2 -0.7092 -0.2014
25 7 3 0.9306 0.7953
25 7 4 -6.9883 0.5151
25 7 5 -2.2590 -0.6633
25 7 6 0.7118 -0.2109
25 7 7 -3.3560 0.7012
25 7 8 11.5705 0.3591
25 7 9 -10.4260 -0.2508
25 7 10 6.0434 -0.4196
25 7 11 -5.3538 -0.1572
25 7 12 9.2139 0.1729
25 7 13 17.1865 0.5618
25 7 14 2.9879 -0.4123
25 7 15 -7.1172 -0.2700
25 7 16 12.1858 0.4100
25 7 17 11.9818 -0.2926
25 7 18 1.9890 -0.3111
25 7 19 -17.3248 0.2021
25 9 0 -0.6844 0.2117
25 9 1 5.9386 0.3733
25 9 2 3.7610 0.0183
25 9 3 4.8147 -0.2740
25 9 4 -5.0319 -0.2477
25 9 5 -1.5016 0.5800
25 9 6 -10.0302 0.3908
25 9 7 -5.3205 -0.3778
25 9 8 5.9726 -0.5338
25 9 9 -7.8508 0.3171
25 9 10 -4.3117 0.2995
25 9 11 4.0675 -0.2536
25 9 12 -3.5525 -0.3409
25 9 13 -6.2797 -0.2157
25 9 14 4.3228 0.3132
25 9 15 8.0834 0.0918
25 9 16 -8.3952 -0.3175
25 9 17 5.9422 0.0002
25 11 0 -1.5893 -0.4594
25 11 1 -2.8661 -0.3739
25 11 2 4.9706 0.0938
25 11 3 -21.5228 0.5142
25 11 4 -0.7411 -0.0003
25 11 5 5.6782 -0.4046
25 11 6 -0.9468 -0.0234
25 11 7 -19.4190 0.0765
25 11 8 3.1443 0.2384
25 11 9 13.1587 0.0487
25 11 10 -8.2883 -0.2605
25 11 11 -18.7153 -0.4288
25 11 12 5.4131 0.2877
25 11 13 -3.0046 0.6480
25 11 14 -11.0879 -0.1554
25 11 15 1.9143 -0.4487
25 13 0 0.9232 0.4098
25 13 1 -8.0151 0.5318
25 13 2 4.9733 -0.2996
25 13 3 -9.5538 -0.4591
25 13 4 -1.7596 -0.0589
25 13 5 -0.4059 0.3621
25 13 6 4.5319 0.3923
25 13 7 -1.9669 -0.1611
25 13 8 -8.3676 -0.4683
25 13 9 -1.6524 0.0445
25 13 10 -2.2629 -0.2796
25 13 11 5.8502 0.1411
25 13 12 -1.2428 -0.2371
25 15 0 2.9578 -0.2139
25 15 1 3.6767 -0.1148
25 15 2 13.9469 0.3863
25 15 3 -11.1105 0.1138
25 15 4 -5.2681 -0.2663
25 15 5 3.1209 -0.6767
25 15 6 6.4013 -0.1026
25 15 7 3.6787 -0.0383
25 15 8 -0.6518 -0.1227
25 17 0 16.8661 -0.9148
26 0 0 -6.5372 -4.4168
26 0 2 1.6233 3.4102
26 0 4 -0.8803 -2.6950
26 0 6 5.4240 2.4729
26 0 8 2.3457 -1.6211
26 0 10 3.1873 2.7563
26 0 12 -1.5882 -1.9926
26 0 14 -2.6087 1.8171
26 0 16 1.8822 -0.8828
26 0 18 -1.8926 0.1982
26 0 20 -6.9159 -0.3791
26 2 0 -1.1978 1.5101
26 2 1 -1.2463 -1.0353
26 2 2 2.5761 -0.8081
26 2 3 -3.6693 0.5226
26 2 4 2.5481 1.4219
26 2 5 -3.8196 0.3244
26 2 6 -5.5525 -1.2602
26 2 7 5.3081 -0.0266
26 2 8 4.0219 0.9675
26 2 9 -0.8699 0.2193
26 2 10 -7.9815 -0.6959
26 2 11 -0.6715 -0.3735
26 2 12 -4.6747 0.6331
26 2 13 -4.3959 0.3309
26 2 14 -2.6501 -0.0474
26 2 15 -9.7167 0.5669
26 2 16 -2.3724 -1.0021
26 2 17 -11.5446 -0.8890
26 2 18 8.0954 0.5451
26 2 19 -16.0974 0.3299
26 2 20 2.9072 -0.1745
26 4 0 0.3878 0.1613
26 4 1 1.9549 0.7216
26 4 2 0.9371 0.0795
26 4 3 2.0434 -1.1084
26 4 4 -3.4770 -0.5006
26 4 5 -0.1239 1.0434
26 4 6 1.5081 0.8018
26 4 7 2.4675 -0.9845
26 4 8 1.6870 -0.6355
26 4 9 -11.9692 -0.1443
26 4 10 6.3005 0.2628
26 4 11 3.1731 0.9304
26 4 12 0.5148 0.1234
26 4 13 -4.4503 -0.1358
26 4 14 9.9153 -0.3823
26 4 15 -11.4035 -0.1430
26 4 16 -6.2915 0.6112
26 4 17 5.1558 0.0524
26 4 18 5.9535 -0.6118
26 4 19 -6.0236 0.5102
26 4 20 1.3401 0.1433
26 6 0 5.1105 0.0417
26 6 1 -0.4962 -0.2216
26 6 2 -6.2988 -0.0529
26 6 3 -3.3091 0.7878
26 6 4 -4.8132 0.6050
26 6 5 -3.7784 -0.7777
26 6 6 2.3011 -0.3102
26 6 7 0.3442 0.6150
26 6 8 -7.3539 -0.0808
26 6 9 -11.2220 -0.0996
26 6 10 3.9448 -0.0742
26 6 11 1.8452 -0.2581
26 6 12 -0.7586 0.0676
26 6 13 6.8002 0.2926
26 6 14 0.1295 -0.4203
26 6 15 8.4798 -0.0753
26 6 16 -1.4464 0.2592
26 6 17 -11.8223 -0.0952
26 6 18 5.4565 -0.0433
26 6 19 1.1537 -0.4850
26 8 0 12.4129 -0.1391
26 8 1 7.9012 0.2654
26 8 2 -7.8343 0.4785
26 8 3 4.6402 -0.3524
26 8 4 9.4851 -0.6983
26 8 5 -1.9359 0.6780
26 8 6 -3.4648 0.4455
26 8 7 -14.2868 -0.5426
26 8 8 2.1716 -0.4017
26 8 9 -11.3059 0.2106
26 8 10 22.0315 -0.1661
26 8 11 -4.0689 0.2436
26 8 12 -6.4418 0.1097
26 8 13 -1.7086 -0.5035
26 8 14 6.1112 -0.0148
26 8 15 2.6756 0.2645
26 8 16 10.1278 -0.0870
26 8 17 0.1151 0.1430
26 10 0 -2.2854 -0.0950
26 10 1 -5.3797 -0.3636
26 10 2 -1.7576 -0.1836
26 10 3 -11.0932 0.4316
26 10 4 0.5538 0.5092
26 10 5 8.4069 -0.2286
26 10 6 -1.8125 -0.1876
26 10 7 -4.2983 0.2029
26 10 8 -6.9970 -0.0304
26 10 9 -2.7266 -0.1754
26 10 10 -2.3152 0.3356
26 10 11 1.4707 -0.3295
26 10 12 -1.9177 -0.1182
26 10 13 -13.9336 0.7091
26 10 14 -2.4966 0.1635
26 10 15 10.3779 -0.4881
26 12 0 -2.4799 0.1755
26 12 1 -3.7396 0.1239
26 12 2 5.2394 -0.0134
26 12 3 -13.3408 -0.2766
26 12 4 3.0056 -0.0201
26 12 5 -3.5216 -0.0843
26 12 6 -2.2416 0.2210
26 12 7 -5.0293 -0.0641
26 12 8 -5.4941 -0.3487
26 12 9 1.9116 -0.2657
26 12 10 6.0008 0.0055
26 12 11 -5.7995 0.3039
26 12 12 -10.6903 -0.5483
26 14 0 2.5223 -0.0505
26 14 1 -4.0992 0.0142
26 14 2 5.3164 0.1727
26 14 3 3.0711 0.3807
26 14 4 -6.1087 -0.2952
26 14 5 1.6639 -0.3699
26 14 6 5.2885 -0.0676
26 14 7 2.3703 0.0983
26 14 8 -6.7549 -0.8713
26 16 0 0.9404 -0.3967
26 16 1 5.2061 -0.4157
26 16 2 7.3091 0.3851
27 1 0 -11.5467 1.1915
27 1 1 -4.1344 -0.7115
27 1 2 6.0171 -0.8168
27 1 3 2.7427 1.5663
27 1 4 -4.4761 1.4912
27 1 5 3.2565 -0.8838
27 1 6 3.3699 -0.2512
27 1 7 0.5941 0.3697
27 1 8 1.7672 -0.3369
27 1 9 3.1600 0.2351
27 1 10 -1.3126 0.9435
27 1 11 1.9894 0.0049
27 1 12 -1.0874 -0.2292
27 1 13 -2.3884 -0.4365
27 1 14 -3.1571 -0.2676
27 1 15 -7.8268 0.1087
27 1 16 2.3665 -0.3327
27 1 17 6.6019 0.1282
27 1 18 1.4425 0.4956
27 1 19 -15.0733 -0.4137
27 3 0 3.0159 -0.6229
27 3 1 -5.6145 1.5845
27 3 2 -1.6264 1.2016
27 3 3 9.3868 -1.3816
27 3 4 6.5900 -0.5921
27 3 5 -5.5864 0.6490
27 3 6 -1.0689 -0.7530
27 3 7 1.9642 -0.6466
27 3 8 0.4079 1.3160
27 3 9 1.7649 0.2544
27 3 10 7.9351 -0.9256
27 3 11 -1.8747 -0.0629
27 3 12 -2.5862 0.2061
27 3 13 -5.0481 0.4125
27 3 14 -1.2141 -0.1192
27 3 15 -3.9930 -0.0655
27 3 16 12.6630 -0.0207
27 3 17 -10.4327 -0.3405
27 3 18 4.8724 -0.1579
27 3 19 -6.8274 0.2057
27 5 0 5.3578 0.5851
27 5 1 4.8036 -0.6324
27 5 2 -0.9170 -0.6899
27 5 3 -3.4845 0.8585
27 5 4 1.8601 0.2531
27 5 5 6.2276 -0.2876
27 5 6 1.4315 0.2852
27 5 7 -5.8323 -0.0765
27 5 8 -1.3676 -0.9460
27 5 9 -1.3397 0.6818
27 5 10 0.3616 0.2768
27 5 11 -7.1696 -0.3516
27 5 12 -1.4078 0.1917
27 5 13 1.1831 0.0855
27 5 14 -1.9025 -0.2005
27 5 15 5.6141 0.2854
27 5 16 -5.1651 0.0256
27 5 17 -13.5218 -0.8164
27 5 18 2.4305 -0.2412
27 7 0 9.7031 -0.2672
27 7 1 9.5479 0.3006
27 7 2 7.5089 0.3959
27 7 3 -0.4540 -0.2911
27 7 4 -1.7250 -0.3287
27 7 5 -10.6197 0.1225
27 7 6 -3.7691 0.1479
27 7 7 -2.7689 -0.1107
27 7 8 15.5134 -0.3280
27 7 9 -5.7932 -0.5552
27 7 10 -5.4239 0.3407
27 7 11 -8.5970 0.6424
27 7 12 9.3363 -0.1702
27 7 13 9.4694 -0.5238
27 7 14 -0.7858 0.0916
27 7 15 0.7091 -0.1549
27 7 16 4.4962 0.0817
27 7 17 -0.2982 0.3468
27 9 0 -0.5591 -0.0841
27 9 1 -3.3029 -0.1367
27 9 2 1.9844 0.1536
27 9 3 7.5558 0.0184
27 9 4 9.8118 -0.1252
27 9 5 -6.2589 0.2224
27 9 6 -2.7402 0.1611
27 9 7 -2.2624 -0.3288
27 9 8 -0.4848 -0.3797
27 9 9 -12.0596 0.2032
27 9 10 6.2084 0.2123
27 9 11 -0.4489 -0.3931
27 9 12 -5.9268 0.1455
27 9 13 1.2897 0.4211
27 9 14 5.9797 -0.0331
27 9 15 -6.5527 -0.1802
27 11 0 -14.2673 -0.0909
27 11 1 -7.3284 -0.1133
27 11 2 5.9320 0.1047
27 11 3 -6.0737 -0.0651
27 11 4 -7.4832 0.0561
27 11 5 -7.0937 -0.3788
27 11 6 5.4704 -0.0140
27 11 7 14.1016 0.2925
27 11 8 -9.9913 0.1723
27 11 9 -2.9757 -0.4997
27 11 10 -0.7547 -0.5363
27 11 11 0.4319 0.6570
27 11 12 -1.2345 0.5280
27 13 0 -2.0932 0.2976
27 13 1 0.7449 0.1621
27 13 2 -2.7982 -0.1866
27 13 3 3.3159 -0.0277
27 13 4 7.2313 0.5832
27 13 5 0.5649 0.1619
27 13 6 -8.0584 -0.6549
27 13 7 6.8895 -0.0112
27 13 8 2.1416 0.3348
27 13 9 -3.6152 0.0676
27 15 0 8.6062 -0.5596
27 15 1 5.3720 -0.2076
27 15 2 -3.9732 0.2554
27 15 3 1.2714 0.4464
28 0 0 13.6157 4.5506
28 0 2 -5.8545 -0.5513
28 0 4 9.1143 -0.7436
28 0 6 2.6590 2.3349
28 0 8 5.6089 -1.4877
28 0 10 0.7539 1.1224
28 0 12 1.3911 -1.4852
28 0 14 3.5525 1.3655
28 0 16 5.8929 -1.5112
28 0 18 -3.4938 0.4608
28 2 0 -3.5001 -1.5659
28 2 1 6.3669 0.6047
28 2 2 -2.6098 1.2962
28 2 3 -4.7695 -0.2620
28 2 4 -2.3968 -0.3791
28 2 5 8.0949 0.1348
28 2 6 -2.0589 -0.9044
28 2 7 4.0954 -0.0985
28 2 8 1.0803 0.5937
28 2 9 0.0923 -0.2095
28 2 10 -3.6316 -0.6321
28 2 11 6.4414 0.2511
28 2 12 1.9404 0.6020
28 2 13 -1.1593 0.3973
28 2 14 -7.0975 -1.2502
28 2 15 -2.1702 -0.8575
28 2 16 0.0376 0.6771
28 2 17 -4.2551 0.3563
28 2 18 12.0325 0.1690
28 4 0 12.7537 0.6852
28 4 1 -3.4060 0.3865
28 4 2 6.0770 -0.8714
28 4 3 8.8708 -0.2610
28 4 4 3.5231 0.6296
28 4 5 3.7648 0.4078
28 4 6 10.2092 -0.1866
28 4 7 -5.1848 -0.7534
28 4 8 3.5214 -0.0036
28 4 9 2.2609 1.0372
28 4 10 5.1531 0.4440
28 4 11 -7.6785 -0.3750
28 4 12 2.8381 -0.3317
28 4 13 4.7201 -0.0268
28 4 14 1.0281 0.3664
28 4 15 -15.5373 -0.2235
28 4 16 0.0891 -0.0065
28 4 17 4.2680 -0.0229
28 6 0 21.1835 -0.4593
28 6 1 3.4826 -0.1814
28 6 2 -2.9662 0.5511
28 6 3 2.4462 0.2029
28 6 4 6.7899 -0.6247
28 6 5 -4.5718 -0.2295
28 6 6 -0.6695 -0.1137
28 6 7 -5.0082 0.4424
28 6 8 2.5238 0.1073
28 6 9 7.8130 -0.6577
28 6 10 4.6200 -0.2563
28 6 11 -0.2706 0.7359
28 6 12 -17.0166 0.2206
28 6 13 -1.2772 -0.7398
28 6 14 12.5023 0.0826
28 6 15 10.5803 0.1446
28 6 16 -13.4612 -0.1126
28 8 0 0.1346 0.2842
28 8 1 8.3912 -0.1261
28 8 2 15.7027 -0.4019
28 8 3 3.8419 -0.0962
28 8 4 3.9611 0.0846
28 8 5 -8.5398 0.0686
28 8 6 3.9460 0.1676
28 8 7 -13.4800 -0.6428
28 8 8 -2.5455 -0.6453
28 8 9 -3.0648 0.4590
28 8 10 7.8044 0.5813
28 8 11 -8.9620 -0.5612
28 8 12 8.6001 -0.0837
28 8 13 9.8481 0.2342
28 8 14 -11.7984 0.1223
28 10 0 -2.8817 -0.6349
28 10 1 0.6977 -0.0556
28 10 2 -0.5081 0.4240
28 10 3 -3.6768 0.1683
28 10 4 4.3827 -0.0499
28 10 5 -3.3449 -0.5372
28 10 6 1.6205 -0.0819
28 10 7 11.4077 0.4904
28 10 8 -1.5446 0.2825
28 10 9 -1.4150 -0.3489
28 10 10 -6.9493 -0.1895
28 10 11 5.5345 0.2741
28 10 12 2.3347 0.1325
28 12 0 -4.0073 0.6439
28 12 1 1.0442 -0.1314
28 12 2 -5.5318 -0.2242
28 12 3 -1.3392 -0.1041
28 12 4 6.3998 0.4067
28 12 5 3.9212 0.6028
28 12 6 -5.4365 -0.1853
28 12 7 5.7733 -0.8266
28 12 8 -1.6454 -0.1103
28 12 9 4.3802 1.1190
28 14 0 -6.2716 -0.4365
28 14 1 2.1696 -0.0210
28 14 2 -3.0399 0.0981
28 14 3 6.1763 -0.0036
28 14 4 -3.8369 -0.4143
29 1 0 -2.5049 -3.4119
29 1 1 -4.6019 0.6543
29 1 2 3.8998 1.2390
29 1 3 2.8613 -1.3815
29 1 4 3.7503 -0.1650
29 1 5 0.9324 0.2031
29 1 6 -4.3896 -0.6204
29 1 7 7.2550 0.1951
29 1 8 0.3025 0.5436
29 1 9 1.0600 -0.5335
29 1 10 2.1170 -0.1470
29 1 11 -2.6786 0.0475
29 1 12 -6.1319 -0.5140
29 1 13 0.4319 -0.3583
29 1 14 -1.5604 0.2890
29 1 15 -6.5186 0.6195
29 1 16 1.7456 0.0761
29 1 17 1.3350 -0.4409
29 3 0 3.2567 0.5817
29 3 1 -1.9696 0.1851
29 3 2 6.2253 -0.3315
29 3 3 0.9989 0.1726
29 3 4 -0.1712 -0.3666
29 3 5 8.8451 0.6135
29 3 6 5.1274 0.8502
29 3 7 -9.6553 -0.9238
29 3 8 6.5012 -0.4649
29 3 9 12.2144 1.0011
29 3 10 -4.1663 -0.1798
29 3 11 -3.1534 -0.2872
29 3 12 9.6608 0.6409
29 3 13 5.9866 0.0265
29 3 14 -7.1370 -0.6256
29 3 15 -0.4594 -0.1598
29 3 16 3.4281 0.2529
29 5 0 0.0321 -0.4598
29 5 1 9.4456 -0.0528
29 5 2 16.8003 0.2222
29 5 3 -3.0488 0.4834
29 5 4 -7.4468 -0.1477
29 5 5 0.5810 -0.7578
29 5 6 16.8415 -0.4780
29 5 7 0.5329 0.8681
29 5 8 -0.0340 0.3112
29 5 9 -3.3655 -0.5078
29 5 10 -0.1935 0.0725
29 5 11 2.0930 0.2853
29 5 12 3.7691 0.0193
29 5 13 -5.7188 -0.2704
29 5 14 -8.9599 -0.0059
29 5 15 -0.6644 -0.5889
29 7 0 2.3797 0.2434
29 7 1 4.9381 -0.0070
29 7 2 13.5635 -0.0276
29 7 3 3.5888 -0.3398
29 7 4 9.5186 -0.0278
29 7 5 -13.0052 0.0894
29 7 6 -6.8090 0.0441
29 7 7 -5.3949 -0.2988
29 7 8 4.9252 -0.0138
29 7 9 0.4849 0.1993
29 7 10 -0.5770 0.1955
29 7 11 8.0982 -0.2309
29 7 12 1.9732 -0.0473
29 7 13 -3.6473 -0.0832
29 7 14 -6.8452 0.0856
29 9 0 8.9585 -0.3560
29 9 1 -0.8247 -0.2183
29 9 2 -3.2730 0.0638
29 9 3 3.3482 0.3206
29 9 4 11.6376 -0.1918
29 9 5 -5.2677 -0.3767
29 9 6 7.9111 -0.1543
29 9 7 -7.7728 0.3356
29 9 8 -6.0567 0.3381
29 9 9 -2.6089 -0.0260
29 9 10 1.1612 -0.3399
29 9 11 1.2712 -0.0143
29 9 12 2.6363 0.2101
29 11 0 -7.8540 0.4601
29 11 1 -2.3558 0.3357
29 11 2 -2.3993 -0.3347
29 11 3 0.4120 -0.1861
29 11 4 1.2207 0.2186
29 11 5 -2.1595 0.3048
29 11 6 -1.4313 0.0818
29 11 7 6.4811 -0.0145
29 11 8 -2.5204 -0.4346
29 11 9 10.6871 0.1813
29 13 0 -3.4191 -0.3662
29 13 1 9.4982 -0.0767
29 13 2 -6.3143 -0.0431
29 13 3 -2.0873 0.1729
29 13 4 3.0987 0.2370
29 13 5 6.5680 -0.0051
30 0 0 -0.1215 -2.7958
30 0 2 11.9165 0.5638
30 0 4 11.7625 -0.8834
30 0 6 0.4207 0.6505
30 0 8 -3.8172 -1.0081
30 0 10 -4.7409 0.2283
30 0 12 -0.9671 -0.3119
30 0 14 -12.7727 0.1264
30 2 0 -3.5206 -0.0928
30 2 1 3.6625 0.1200
30 2 2 -3.4420 0.1820
30 2 3 -0.5345 -0.2407
30 2 4 4.3312 -0.4921
30 2 5 1.7791 0.2996
30 2 6 -9.5888 0.3022
30 2 7 2.8850 -0.3418
30 2 8 0.4081 -0.1407
30 2 9 3.2602 0.4029
30 2 10 2.4756 0.1580
30 2 11 4.0403 -0.1670
30 2 12 -5.9760 -0.2689
30 2 13 -1.1904 0.0302
30 2 14 6.8391 0.2248
30 2 15 0.3835 -0.1064
30 4 0 7.7226 -0.5252
30 4 1 -3.4273 -0.1707
30 4 2 13.6777 -0.0642
30 4 3 3.1618 0.1748
30 4 4 -0.3610 0.0148
30 4 5 -14.0492 -0.4492
30 4 6 13.5746 -0.0068
30 4 7 8.2700 0.7675
30 4 8 1.8468 0.5502
30 4 9 -17.9113 -0.7327
30 4 10 4.2809 -0.2809
30 4 11 9.5638 0.0310
30 4 12 -4.4817 0.1167
30 4 13 -4.5547 -0.0049
30 4 14 2.1103 0.1053
30 6 0 11.4328 0.4169
30 6 1 5.2526 0.0266
30 6 2 2.3612 -0.1604
30 6 3 -2.0742 -0.1425
30 6 4 6.7495 -0.0412
30 6 5 -0.1876 0.3560
30 6 6 1.6401 0.3148
30 6 7 -14.6210 -0.1261
30 6 8 -1.5473 -0.5333
30 6 9 13.9449 0.0921
30 6 10 3.9430 0.2582
30 6 11 -1.3168 0.3400
30 6 12 -4.7542 0.0747
30 6 13 0.1676 -0.6276
30 8 0 0.6954 -0.0183
30 8 1 5.4648 -0.1387
30 8 2 9.6860 -0.2622
30 8 3 4.6390 0.3012
30 8 4 6.1790 0.0417
30 8 5 -7.4490 -0.6012
30 8 6 6.7004 -0.0382
30 8 7 -16.2225 0.4418
30 8 8 -7.6665 0.3904
30 8 9 -3.5045 -0.0188
30 8 10 -2.1373 -0.1636
30 8 11 3.0492 -0.0196
30 10 0 -9.0734 0.0822
30 10 1 0.9368 0.2631
30 10 2 1.9439 0.1150
30 10 3 -12.4981 -0.0849
30 10 4 -1.7718 -0.1815
30 10 5 0.3576 0.3954
30 10 6 1.2895 -0.0250
30 10 7 -4.7239 -0.1887
30 10 8 1.1496 -0.0062
30 10 9 1.8662 0.6029
30 12 0 -4.7921 -0.7084
30 12 1 -3.7785 -0.0568
30 12 2 -3.3912 0.0247
30 12 3 0.0156 0.2199
30 12 4 4.6003 0.2944
30 12 5 10.3489 0.8512
31 1 0 -4.1938 -2.9158
31 1 1 0.3605 -1.0662
31 1 2 5.8092 0.3495
31 1 3 -4.6612 0.2622
31 1 4 2.2987 -0.2820
31 1 5 -0.7073 0.0900
31 1 6 4.5120 0.6348
31 1 7 6.0000 -0.5787
31 1 8 -11.4997 -0.7093
31 1 9 -8.1878 0.5738
31 1 10 -0.2268 0.3829
31 1 11 11.8348 -0.3281
31 1 12 -1.2285 0.2281
31 1 13 -7.9667 0.4946
31 1 14 -8.9824 0.2172
31 3 0 4.9747 0.7559
31 3 1 -1.6770 -0.4495
31 3 2 1.7475 -0.7240
31 3 3 -3.6599 0.6036
31 3 4 8.5867 0.7582
31 3 5 4.4267 -0.3381
31 3 6 -1.2959 -0.2600
31 3 7 -8.3971 0.2632
31 3 8 2.3500 -0.2027
31 3 9 -0.9431 0.0624
31 3 10 3.9091 0.4543
31 3 11 1.4321 -0.2805
31 3 12 -5.2323 -0.3885
31 3 13 3.4493 0.0883
31 5 0 -3.1874 -0.5613
31 5 1 5.9840 0.4048
31 5 2 5.0385 0.4091
31 5 3 -8.1054 -0.1774
31 5 4 9.5055 -0.3124
31 5 5 -11.4535 -0.2175
31 5 6 -3.3439 0.0269
31 5 7 -5.0279 0.3501
31 5 8 12.5757 0.3266
31 5 9 -2.9692 -0.6696
31 5 10 -9.8722 -0.0927
31 5 11 0.3520 0.3760
31 5 12 4.1398 -0.2346
31 7 0 4.7918 0.4613
31 7 1 4.5740 -0.7079
31 7 2 14.2659 -0.1879
31 7 3 0.4054 0.0447
31 7 4 8.0652 0.1584
31 7 5 -4.9990 0.2313
31 7 6 3.5935 0.1477
31 7 7 -4.2435 -0.1114
31 7 8 -9.9249 0.2374
31 7 9 -5.2162 0.4384
31 7 10 4.3684 -0.2433
31 7 11 2.2094 -0.2710
31 9 0 -6.5667 -0.3348
31 9 1 -8.9773 0.6021
31 9 2 -4.2815 0.3358
31 9 3 10.4590 -0.1538
31 9 4 1.1453 -0.1940
31 9 5 -21.9085 0.0584
31 9 6 -2.5560 -0.2120
31 9 7 1.5043 0.4173
31 9 8 0.4007 0.3600
31 11 0 1.1969 0.2683
31 11 1 1.6589 -0.4436
31 11 2 -8.2619 -0.1029
31 11 3 -2.7832 0.5485
31 11 4 4.1229 0.2265
31 11 5 -6.2994 0.1944
32 0 0 0.6612 -3.3996
32 0 2 -3.5359 2.2909
32 0 4 12.5215 -2.4952
32 0 6 -5.9375 1.9197
32 0 8 0.8776 -1.2284
32 0 10 -10.3259 0.6555
32 0 12 -0.9553 -0.3938
32 2 0 -1.7283 1.0972
32 2 1 -5.3239 -0.2384
32 2 2 2.7620 -0.8597
32 2 3 8.4310 -0.8437
32 2 4 8.7471 1.0049
32 2 5 0.8099 0.6670
32 2 6 0.6354 -0.1946
32 2 7 4.2285 0.1854
32 2 8 -3.5662 -0.1259
32 2 9 -0.7668 -0.4277
32 2 10 -0.7579 0.2173
32 2 11 -0.3586 0.1752
32 2 12 6.8622 -0.0739
32 4 0 2.6838 -0.5914
32 4 1 -4.0247 0.2327
32 4 2 -2.5030 0.5533
32 4 3 -11.7206 -0.1014
32 4 4 8.2461 -0.2793
32 4 5 -1.9564 -0.2943
32 4 6 5.3005 0.0134
32 4 7 -14.5637 0.2090
32 4 8 3.1294 0.4200
32 4 9 -2.2482 -0.7167
32 4 10 -1.5614 -0.5909
32 4 11 -2.4952 0.4301
32 6 0 4.0262 0.2831
32 6 1 -15.9016 -0.5390
32 6 2 10.2230 -0.4383
32 6 3 15.0242 0.5739
32 6 4 16.3494 0.5368
32 6 5 -8.6362 -0.0406
32 6 6 -2.9837 -0.2410
32 6 7 -3.9690 -0.0751
32 6 8 2.5530 -0.2144
32 6 9 7.5933 0.1964
32 6 10 -4.5517 0.3717
32 8 0 15.4383 -0.2107
32 8 1 5.4106 0.2198
32 8 2 -7.3154 0.4060
32 8 3 -10.0546 -0.3894
32 8 4 11.8979 -0.2050
32 8 5 5.5885 0.0097
32 8 6 -5.1271 0.3516
32 8 7 -11.0501 -0.1525
32 8 8 -0.6811 0.2132
32 10 0 -11.4206 0.1139
32 10 1 -3.3130 0.0404
32 10 2 -5.5286 0.0207
32 10 3 0.2242 -0.1715
32 10 4 -8.6734 0.2982
32 10 5 -10.1777 0.7808
33 1 0 -2.9029 0.4161
33 1 1 4.3516 -0.3467
33 1 2 7.7107 -0.3530
33 1 3 4.9074 0.4696
33 1 4 3.9232 0.5297
33 1 5 2.2259 -0.2495
33 1 6 2.5699 0.4792
33 1 7 1.4194 0.0214
33 1 8 -4.9083 -1.0609
33 1 9 6.2123 0.5718
33 1 10 -1.0546 0.8828
33 1 11 -3.7698 -0.0141
33 3 0 -7.9868 -0.0728
33 3 1 -1.4032 0.3421
33 3 2 4.2827 0.1244
33 3 3 4.6641 -0.0566
33 3 4 2.0511 0.4198
33 3 5 -1.8313 -0.4047
33 3 6 7.3831 -0.7482
33 3 7 7.1752 0.4913
33 3 8 0.2675 0.9815
33 3 9 -8.5031 -0.1172
33 3 10 -0.1641 -0.5260
33 5 0 -3.4634 0.3837
33 5 1 1.7623 -0.1315
33 5 2 12.1425 -0.1015
33 5 3 -7.0597 -0.1987
33 5 4 -3.9079 0.0270
33 5 5 1.1134 0.6695
33 5 6 20.6886 0.4703
33 5 7 -6.5393 -1.0171
33 5 8 -8.2776 -0.6387
33 5 9 -0.2146 0.1275
33 7 0 -0.8498 -0.3206
33 7 1 -3.7219 0.0835
33 7 2 26.1165 -0.0668
33 7 3 -4.6035 0.0968
33 7 4 4.2767 0.2029
33 7 5 6.7803 -0.5508
33 7 6 7.6994 -0.6321
33 7 7 6.0036 0.4275
33 9 0 3.5435 0.2843
33 9 1 5.5818 0.4978
33 9 2 -8.7764 -0.2420
33 9 3 -10.3268 -0.6521
33 9 4 -7.1866 0.8374
34 0 0 3.8832 -0.0838
34 0 2 3.4556 0.8196
34 0 4 -1.4910 -0.9618
34 0 6 6.2826 0.6010
34 0 8 -10.7961 -0.4175
34 2 0 4.2309 -0.0441
34 2 1 12.3056 -1.0144
34 2 2 0.6987 0.4637
34 2 3 1.1232 0.4215
34 2 4 9.4574 0.3944
34 2 5 10.1309 0.0555
34 2 6 5.1908 -0.5793
34 2 7 5.8353 -0.1356
34 2 8 -5.6824 0.7281
34 4 0 4.0492 0.2011
34 4 1 4.8449 0.6753
34 4 2 -4.9349 0.0051
34 4 3 -6.2262 -0.2681
34 4 4 5.2670 0.1869
34 4 5 0.4317 0.3471
34 4 6 -1.6154 0.1840
34 4 7 -0.3041 -0.4783
34 4 8 7.4032 -0.2384
34 6 0 6.2318 -0.1257
34 6 1 11.2068 -0.0454
34 6 2 8.5470 -0.3386
34 6 3 -4.0838 0.3146
34 6 4 17.8253 -0.1783
34 6 5 8.9557 -0.6785
34 6 6 2.2218 -0.1409
34 8 0 10.0847 -0.0489
34 8 1 -10.4197 0.1838
34 8 2 4.8183 0.3389
34 8 3 -2.0040 -0.2863
35 1 0 5.4772 0.3053
35 1 1 -0.4939 -0.3130
35 1 2 2.0045 0.0933
35 1 3 5.0625 -0.4267
35 1 4 9.6554 -0.3619
35 1 5 2.8171 -0.1163
35 1 6 -9.3161 -0.2221
35 1 7 2.6228 1.2162
35 3 0 2.0923 -0.6966
35 3 1 -15.3142 0.3241
35 3 2 -5.5790 0.3980
35 3 3 9.7724 0.4495
35 3 4 2.0854 0.1820
35 3 5 -3.6256 0.1139
35 3 6 -0.1683 0.1658
35 5 0 16.6884 0.0906
35 5 1 6.5917 -0.3508
35 5 2 -1.6251 -0.1547
35 5 3 4.2878 0.3101
35 5 4 9.1953 -0.2836
35 5 5 2.3444 -0.2012
35 7 0 1.9743 0.1094
35 7 1 -9.4960 0.5454
35 7 2 9.3945 -0.1615
36 0 0 3.6663 0.3193
36 0 2 5.1684 -0.9975
36 0 4 -5.0349 0.0691
36 2 0 5.0008 -0.3664
36 2 1 0.8320 -0.5560
36 2 2 2.9928 1.1426
36 2 3 -8.0417 0.2388
36 2 4 -4.8915 -0.7235
36 4 0 -3.4029 0.2058
36 4 1 1.3564 0.0683
36 4 2 12.7854 -0.9203
36 4 3 3.9402 -0.2378
36 6 0 2.7832 0.1010
37 1 0 0.9055 -1.9248
37 1 1 -1.7026 0.2658
37 3 0 5.3978 0.4816
0 0 0 0.0 0.0
;
_shelx_fab_checksum              74671
_olex2_submission_special_instructions 'No special instructions were received'
_oxdiff_exptl_absorpt_empirical_details
;
Empirical correction (ABSPACK) includes:
- Absorption correction using spherical harmonics
- Frame scaling
- Detector area scaling
;
_oxdiff_exptl_absorpt_empirical_full_max 1.320
_oxdiff_exptl_absorpt_empirical_full_min 0.732
loop_
_space_group_symop_operation_xyz
'x, y, z'
'-x, y, -z+1/2'
'x+1/2, y+1/2, z'
'-x+1/2, y+1/2, -z+1/2'
'-x, -y, -z'
'x, -y, z-1/2'
'-x+1/2, -y+1/2, -z'
'x+1/2, -y+1/2, z-1/2'
loop_
_atom_site_label
_atom_site_type_symbol
_atom_site_fract_x
_atom_site_fract_y
_atom_site_fract_z
_atom_site_U_iso_or_equiv
_atom_site_adp_type
_atom_site_occupancy
_atom_site_site_symmetry_order
_atom_site_calc_flag
_atom_site_refinement_flags_posn
_atom_site_refinement_flags_adp
_atom_site_refinement_flags_occupancy
Cd1 Cd 0.500000 0.44010(4) 0.250000 0.0833(4) Uani 1 2 d S TU P
Cd2 Cd 0.66178(3) 1.36536(5) 0.60811(5) 0.1424(5) Uani 1 1 d . U .
Cd3 Cd 0.62973(4) 1.42613(6) 0.70165(6) 0.1631(6) Uani 1 1 d . U .
Cd4 Cd 0.26479(4) 0.77024(6) 0.64520(5) 0.1005(4) Uani 0.6667 1 d . U .
Cd5 Cd 0.24553(7) 0.77656(12) 0.58500(11) 0.1094(9) Uani 0.3333 1 d . U .
O15 O 0.5287(2) 0.8317(4) 0.5003(3) 0.106(2) Uani 1 1 d . U .
O16 O 0.3500(3) 0.2935(4) 0.4940(3) 0.112(3) Uani 1 1 d . U .
O18 O 0.4485(3) 0.3899(4) 0.2738(3) 0.107(2) Uani 1 1 d . U .
O19 O 0.5629(3) 0.5138(4) 0.2954(3) 0.122(3) Uani 1 1 d . U .
C52 C 0.6256(3) 0.9043(5) 0.4183(3) 0.078(2) Uani 1 1 d . U .
O8 O 0.5931(3) 1.3196(6) 0.7008(5) 0.155(3) Uani 1 1 d . U .
O20 O 0.4993(3) 0.5276(4) 0.2993(3) 0.123(3) Uani 1 1 d . U .
C27 C 0.3458(3) -0.0012(6) 0.4090(4) 0.092(3) Uani 1 1 d . U .
N2 N 0.3318(3) 0.2301(6) 0.4901(4) 0.113(3) Uani 1 1 d D U .
C63 C 0.5299(3) 1.0420(6) 0.5889(4) 0.085(2) Uani 1 1 d . U .
C53 C 0.6166(3) 0.8422(5) 0.3977(3) 0.081(2) Uani 1 1 d . U .
H53 H 0.631175 0.829382 0.377890 0.097 Uiso 1 1 calc R . .
C28 C 0.3461(3) -0.0447(5) 0.4434(4) 0.093(3) Uani 1 1 d . U .
H28 H 0.349705 -0.025406 0.470410 0.111 Uiso 1 1 calc R . .
C65 C 0.4810(3) 0.9467(6) 0.5801(4) 0.086(2) Uani 1 1 d . U .
N3 N 0.5492(3) 0.8863(5) 0.4948(4) 0.110(3) Uani 1 1 d D U .
C68 C 0.4427(3) 0.9128(5) 0.5906(4) 0.086(2) Uani 1 1 d . U .
C9 C 0.2613(3) 0.2918(5) 0.5970(4) 0.091(3) Uani 1 1 d . U .
H9 H 0.249934 0.306638 0.618915 0.109 Uiso 1 1 calc R . .
C64 C 0.4964(3) 1.0073(5) 0.5998(3) 0.073(2) Uani 1 1 d . U .
H64 H 0.484787 1.025892 0.620633 0.088 Uiso 1 1 calc R . .
O17 O 0.5077(3) 0.3428(5) 0.3063(4) 0.141(3) Uani 1 1 d . U .
C26 C 0.3749(3) 0.1125(5) 0.3924(4) 0.086(3) Uani 1 1 d . U .
H26 H 0.385119 0.089709 0.371912 0.103 Uiso 1 1 calc R . .
O5 O 0.3024(3) 0.8071(5) 0.5895(4) 0.142(3) Uani 1 1 d . U .
C75 C 0.5470(3) 1.1086(6) 0.6098(4) 0.095(3) Uani 1 1 d . U .
C50 C 0.5744(3) 0.8767(6) 0.4585(4) 0.091(3) Uani 1 1 d D U .
C23 C 0.3525(3) 0.0756(5) 0.4166(4) 0.082(2) Uani 1 1 d . U .
N4 N 0.5568(3) 0.9400(5) 0.5045(4) 0.108(3) Uani 1 1 d D U .
C5 C 0.2779(3) 0.4155(6) 0.5859(5) 0.102(3) Uani 1 1 d . U .
O11 O 0.5675(3) 1.4838(5) 0.6717(5) 0.166(4) Uani 1 1 d . U .
C42 C 0.5503(4) 0.6096(6) 0.3345(4) 0.095(3) Uani 1 1 d . U .
C8 C 0.2793(4) 0.3396(7) 0.5759(4) 0.103(3) Uani 1 1 d . U .
O1 O 0.2579(3) 0.6734(5) 0.5901(4) 0.152(3) Uani 1 1 d D U .
C51 C 0.6041(3) 0.9228(5) 0.4482(3) 0.082(2) Uani 1 1 d . U .
H51 H 0.609141 0.965894 0.461575 0.099 Uiso 1 1 calc R . .
C62 C 0.5453(3) 1.0117(8) 0.5568(4) 0.104(3) Uani 1 1 d . U .
H62 H 0.566251 1.034918 0.547872 0.125 Uiso 1 1 calc R . .
O7 O 0.6120(4) 1.3452(5) 0.6431(5) 0.173(4) Uani 1 1 d . U .
C54 C 0.6595(4) 0.9514(5) 0.4092(4) 0.090(3) Uani 1 1 d . U .
C25 C 0.3817(4) 0.1846(5) 0.3995(4) 0.091(3) Uani 1 1 d . U .
C10 C 0.2596(4) 0.2204(6) 0.5861(4) 0.103(3) Uani 1 1 d . U .
C76 C 0.5520(4) 1.1209(6) 0.6521(4) 0.098(3) Uani 1 1 d . U .
H76 H 0.545283 1.086555 0.669411 0.118 Uiso 1 1 calc R . .
C81 C 0.5555(3) 1.1637(7) 0.5836(5) 0.113(3) Uani 1 1 d . U .
H81 H 0.550844 1.157450 0.554304 0.135 Uiso 1 1 calc R . .
C24 C 0.3653(3) 0.2177(5) 0.4303(4) 0.090(3) Uani 1 1 d . U .
H24 H 0.368730 0.265478 0.434212 0.109 Uiso 1 1 calc R . .
O24 O 0.1704(4) 0.0298(5) 0.6996(5) 0.168(4) Uani 1 1 d . U .
C45 C 0.5740(3) 0.7327(5) 0.3809(4) 0.090(3) Uani 1 1 d . U .
O2 O 0.2761(4) 0.6528(5) 0.6503(5) 0.171(4) Uani 1 1 d D U .
C69 C 0.4381(4) 0.9129(6) 0.6311(4) 0.103(3) Uani 1 1 d . U .
H69 H 0.458569 0.932807 0.653370 0.124 Uiso 1 1 calc R . .
N1 N 0.3120(4) 0.1967(4) 0.5012(4) 0.114(3) Uani 1 1 d D U .
C37 C 0.4482(4) 0.3058(6) 0.3272(4) 0.111(4) Uani 1 1 d D U .
C48 C 0.5860(3) 0.7973(5) 0.4053(4) 0.083(2) Uani 1 1 d . U .
C30 C 0.3342(3) -0.1447(6) 0.3994(6) 0.113(3) Uani 1 1 d D U .
C49 C 0.5654(3) 0.8147(6) 0.4371(4) 0.088(3) Uani 1 1 d . U .
H49 H 0.545862 0.784291 0.443376 0.106 Uiso 1 1 calc R . .
O23 O 0.1552(3) -0.0326(5) 0.6434(5) 0.170(5) Uani 1 1 d . U .
C33 C 0.3392(5) -0.0290(7) 0.3693(5) 0.121(4) Uani 1 1 d . U .
H33 H 0.338634 -0.000975 0.345718 0.146 Uiso 1 1 calc R . .
O21 O 0.3419(5) -0.2598(6) 0.4251(5) 0.180(4) Uani 1 1 d D U .
C4 C 0.2823(4) 0.4380(6) 0.6272(5) 0.108(3) Uani 1 1 d . U .
H4 H 0.287387 0.405957 0.649514 0.130 Uiso 1 1 calc R . .
C40 C 0.4708(4) 0.3484(6) 0.3009(4) 0.104(3) Uani 1 1 d D U .
C66 C 0.4989(4) 0.9167(7) 0.5505(4) 0.098(3) Uani 1 1 d . U .
H66 H 0.489269 0.873607 0.538882 0.118 Uiso 1 1 calc R . .
C46 C 0.5327(3) 0.7089(6) 0.3689(4) 0.101(3) Uani 1 1 d . U .
H46 H 0.512284 0.735325 0.376779 0.122 Uiso 1 1 calc R . .
C13 C 0.2997(4) 0.3156(8) 0.5457(4) 0.113(3) Uani 1 1 d . U .
H13 H 0.313582 0.347424 0.532615 0.135 Uiso 1 1 calc R . .
C47 C 0.5205(4) 0.6504(6) 0.3469(4) 0.108(4) Uani 1 1 d . U .
H47 H 0.492327 0.637015 0.339836 0.129 Uiso 1 1 calc R . .
C22 C 0.3369(3) 0.1096(6) 0.4465(4) 0.088(2) Uani 1 1 d . U .
H22 H 0.321194 0.084680 0.461495 0.105 Uiso 1 1 calc R . .
C29 C 0.3413(3) -0.1131(6) 0.4385(5) 0.108(3) Uani 1 1 d . U .
H29 H 0.342888 -0.140538 0.462493 0.130 Uiso 1 1 calc R . .
C14 C 0.2356(4) 0.1675(6) 0.6078(5) 0.109(3) Uani 1 1 d . U .
C55 C 0.6870(3) 0.9854(5) 0.4429(4) 0.097(3) Uani 1 1 d . U .
H55 H 0.683788 0.980432 0.470441 0.116 Uiso 1 1 calc R . .
C44 C 0.6025(4) 0.6928(6) 0.3692(4) 0.102(3) Uani 1 1 d . U .
H44 H 0.630460 0.707259 0.376096 0.123 Uiso 1 1 calc R . .
C38 C 0.4635(4) 0.2405(6) 0.3431(5) 0.124(4) Uani 1 1 d . U .
H38 H 0.487775 0.222636 0.337393 0.149 Uiso 1 1 calc R . .
O6 O 0.3315(3) 0.8174(7) 0.6563(5) 0.170(4) Uani 1 1 d . U .
C34 C 0.4043(4) 0.2265(5) 0.3735(4) 0.094(3) Uani 1 1 d . U .
C21 C 0.3440(4) 0.1803(6) 0.4551(4) 0.098(3) Uani 1 1 d D U .
C7 C 0.2670(4) 0.5335(8) 0.5618(6) 0.136(4) Uani 1 1 d . U .
H7 H 0.262084 0.564934 0.539250 0.163 Uiso 1 1 calc R . .
C72 C 0.3304(4) 0.8218(7) 0.6151(8) 0.142(4) Uani 1 1 d D U .
O22 O 0.3110(4) -0.2495(6) 0.3614(5) 0.198(6) Uani 1 1 d D U .
C12 C 0.2998(5) 0.2451(9) 0.5346(4) 0.131(4) Uani 1 1 d D U .
C60 C 0.6640(5) 0.9598(7) 0.3679(5) 0.122(4) Uani 1 1 d . U .
H60 H 0.646675 0.936981 0.344528 0.147 Uiso 1 1 calc R . .
C71 C 0.3704(4) 0.8560(6) 0.6096(7) 0.134(4) Uani 1 1 d D U .
C73 C 0.3743(4) 0.8551(7) 0.5671(6) 0.132(4) Uani 1 1 d . U .
H73 H 0.353025 0.835980 0.545210 0.159 Uiso 1 1 calc R . .
C61 C 0.5309(4) 0.9492(9) 0.5377(4) 0.117(3) Uani 1 1 d D U .
C1 C 0.2684(6) 0.6282(7) 0.6128(6) 0.166(5) Uani 1 1 d D U .
C79 C 0.5951(5) 1.3054(8) 0.6652(8) 0.140(4) Uani 1 1 d . U .
C43 C 0.5916(4) 0.6290(6) 0.3464(4) 0.103(3) Uani 1 1 d . U .
H43 H 0.612184 0.601342 0.339801 0.124 Uiso 1 1 calc R . .
C41 C 0.5373(4) 0.5466(6) 0.3079(4) 0.100(3) Uani 1 1 d . U .
C11 C 0.2785(5) 0.1998(7) 0.5546(4) 0.120(4) Uani 1 1 d . U .
H11 H 0.276857 0.153209 0.546644 0.144 Uiso 1 1 calc R . .
C57 C 0.7234(5) 1.0359(6) 0.3988(8) 0.142(5) Uani 1 1 d D U .
C15 C 0.2387(4) 0.1741(6) 0.6479(5) 0.104(3) Uani 1 1 d . U .
H15 H 0.254437 0.209324 0.664256 0.124 Uiso 1 1 calc R . .
C36 C 0.4100(4) 0.3282(6) 0.3328(4) 0.110(4) Uani 1 1 d . U .
H36 H 0.397256 0.368334 0.319293 0.132 Uiso 1 1 calc R . .
C6 C 0.2707(4) 0.4653(8) 0.5553(5) 0.120(3) Uani 1 1 d . U .
H6 H 0.268075 0.450892 0.527361 0.145 Uiso 1 1 calc R . .
C2 C 0.2707(4) 0.5550(7) 0.6021(7) 0.130(4) Uani 1 1 d D U .
C74 C 0.4120(4) 0.8846(6) 0.5578(5) 0.116(3) Uani 1 1 d . U .
H74 H 0.415025 0.884222 0.530103 0.139 Uiso 1 1 calc R . .
C77 C 0.5665(4) 1.1824(7) 0.6688(5) 0.114(3) Uani 1 1 d . U .
H77 H 0.569347 1.190405 0.697763 0.136 Uiso 1 1 calc R . .
C39 C 0.4423(4) 0.2027(5) 0.3672(4) 0.108(4) Uani 1 1 d . U .
H39 H 0.453621 0.160812 0.379442 0.130 Uiso 1 1 calc R . .
C20 C 0.2120(5) 0.1167(5) 0.5830(5) 0.131(4) Uani 1 1 d . U .
H20 H 0.209254 0.116001 0.553698 0.157 Uiso 1 1 calc R . .
C56 C 0.7186(4) 1.0260(6) 0.4363(6) 0.130(4) Uani 1 1 d . U .
H56 H 0.737172 1.047159 0.459565 0.156 Uiso 1 1 calc R . .
C70 C 0.4018(4) 0.8825(7) 0.6391(6) 0.124(4) Uani 1 1 d . U .
H70 H 0.400044 0.881130 0.667265 0.149 Uiso 1 1 calc R . .
C80 C 0.5706(4) 1.2253(8) 0.6022(6) 0.123(4) Uani 1 1 d . U .
H80 H 0.576160 1.261103 0.585150 0.147 Uiso 1 1 calc R . .
C78 C 0.5777(4) 1.2357(7) 0.6438(6) 0.115(3) Uani 1 1 d . U .
O10 O 0.6313(5) 1.4563(7) 0.7685(5) 0.197(4) Uani 1 1 d . U .
H10A H 0.647146 1.422472 0.795797 0.296 Uiso 1 1 d GR . .
H10B H 0.601799 1.458084 0.779109 0.296 Uiso 1 1 d GR . .
C3 C 0.2790(4) 0.5094(7) 0.6359(5) 0.125(4) Uani 1 1 d . U .
H3 H 0.282497 0.525202 0.663738 0.150 Uiso 1 1 calc R . .
C19 C 0.1931(5) 0.0686(6) 0.6006(6) 0.145(5) Uani 1 1 d . U .
H19 H 0.179349 0.031466 0.584288 0.174 Uiso 1 1 calc R . .
C17 C 0.1940(4) 0.0740(6) 0.6433(6) 0.128(4) Uani 1 1 d . U .
C35 C 0.3908(4) 0.2895(5) 0.3591(4) 0.109(4) Uani 1 1 d . U .
H35 H 0.367874 0.308529 0.366832 0.131 Uiso 1 1 calc R . .
C59 C 0.6978(5) 1.0071(9) 0.3638(6) 0.149(5) Uani 1 1 d . U .
H59 H 0.701353 1.017067 0.336868 0.179 Uiso 1 1 calc R . .
C32 C 0.3332(5) -0.1022(8) 0.3648(5) 0.133(4) Uani 1 1 d . U .
H32 H 0.328551 -0.122002 0.337740 0.160 Uiso 1 1 calc R . .
C16 C 0.2169(5) 0.1249(8) 0.6651(6) 0.139(5) Uani 1 1 d . U .
H16 H 0.218648 0.128035 0.694103 0.167 Uiso 1 1 calc R . .
O3 O 0.2712(6) 0.7891(11) 0.7183(5) 0.255(7) Uani 1 1 d . U .
C18 C 0.1716(6) 0.0195(9) 0.6614(9) 0.166(5) Uani 1 1 d . U .
C31 C 0.3275(5) -0.2209(7) 0.3932(6) 0.142(5) Uani 1 1 d D U .
O13 O 0.7931(5) 1.0892(7) 0.4284(6) 0.214(5) Uani 1 1 d D U .
O14 O 0.7622(4) 1.1096(7) 0.3655(6) 0.235(7) Uani 1 1 d D U .
C58 C 0.7604(5) 1.0802(10) 0.3969(7) 0.191(6) Uani 1 1 d D U .
O4 O 0.2230(8) 0.772(2) 0.5065(6) 0.45(3) Uani 1 1 d . U .
O9 O 0.6910(4) 1.3600(10) 0.7257(10) 0.356(13) Uani 1 1 d . U .
O12 O 0.6089(7) 1.4034(10) 0.5506(7) 0.291(10) Uani 1 1 d . U .
loop_
_atom_site_aniso_label
_atom_site_aniso_U_11
_atom_site_aniso_U_22
_atom_site_aniso_U_33
_atom_site_aniso_U_23
_atom_site_aniso_U_13
_atom_site_aniso_U_12
Cd1 0.0987(7) 0.0473(5) 0.1179(9) 0.000 0.0532(6) 0.000
Cd2 0.1162(7) 0.0856(6) 0.2501(15) -0.0234(7) 0.0920(9) -0.0219(5)
Cd3 0.1384(9) 0.1091(8) 0.2718(18) -0.0444(9) 0.1072(11) -0.0228(7)
Cd4 0.0927(8) 0.0661(7) 0.1444(12) 0.0078(7) 0.0339(8) -0.0105(6)
Cd5 0.0740(13) 0.0611(12) 0.188(3) 0.0108(15) 0.0247(15) -0.0113(10)
O15 0.109(5) 0.066(4) 0.160(7) -0.010(4) 0.067(5) -0.030(4)
O16 0.136(6) 0.071(4) 0.152(7) 0.001(4) 0.080(6) -0.028(4)
O18 0.128(5) 0.064(4) 0.149(7) 0.009(4) 0.076(5) -0.015(4)
O19 0.114(5) 0.084(5) 0.169(8) -0.031(5) 0.038(5) -0.007(4)
C52 0.073(5) 0.057(5) 0.095(7) -0.007(4) 0.008(4) 0.000(4)
O8 0.128(7) 0.109(6) 0.241(11) 0.001(6) 0.074(9) -0.016(5)
O20 0.116(5) 0.092(5) 0.165(8) -0.036(5) 0.045(6) -0.038(4)
C27 0.077(6) 0.083(5) 0.115(7) 0.015(4) 0.021(6) -0.020(5)
N2 0.105(7) 0.104(6) 0.131(8) 0.041(5) 0.036(6) -0.004(5)
C63 0.062(5) 0.098(6) 0.100(7) 0.026(4) 0.031(5) 0.009(4)
C53 0.076(6) 0.073(5) 0.094(7) -0.013(5) 0.022(5) 0.000(4)
C28 0.061(5) 0.084(5) 0.133(7) 0.027(5) 0.025(6) -0.023(5)
C65 0.067(5) 0.094(6) 0.087(7) -0.001(5) 0.001(4) 0.005(4)
N3 0.105(7) 0.076(5) 0.138(8) -0.011(5) 0.009(5) -0.021(5)
C68 0.094(6) 0.055(5) 0.099(7) 0.001(5) 0.009(5) -0.003(4)
C9 0.095(7) 0.072(5) 0.106(8) -0.010(5) 0.026(6) 0.017(5)
C64 0.071(5) 0.088(6) 0.066(6) 0.006(4) 0.027(4) -0.004(4)
O17 0.132(6) 0.111(6) 0.206(10) 0.055(6) 0.092(7) 0.008(5)
C26 0.095(7) 0.068(5) 0.101(7) 0.010(5) 0.037(6) -0.005(5)
O5 0.102(5) 0.078(5) 0.245(8) -0.007(6) 0.045(6) -0.022(5)
C75 0.056(5) 0.105(6) 0.125(7) 0.019(5) 0.027(6) -0.008(5)
C50 0.079(6) 0.084(6) 0.103(7) 0.011(5) 0.010(5) 0.003(5)
C23 0.074(5) 0.071(4) 0.101(7) 0.021(4) 0.023(5) -0.008(4)
N4 0.090(6) 0.074(5) 0.151(8) -0.004(5) 0.019(5) -0.037(5)
C5 0.077(6) 0.081(5) 0.146(9) -0.004(5) 0.030(7) -0.002(5)
O11 0.148(7) 0.097(5) 0.286(12) -0.021(7) 0.117(7) -0.003(5)
C42 0.094(6) 0.092(6) 0.101(8) -0.015(5) 0.026(6) -0.028(5)
C8 0.086(7) 0.099(5) 0.126(9) -0.003(5) 0.028(6) 0.011(6)
O1 0.094(6) 0.081(4) 0.294(9) -0.003(5) 0.076(7) -0.012(4)
C51 0.094(6) 0.060(5) 0.081(6) -0.016(4) -0.001(4) 0.002(4)
C62 0.065(6) 0.164(9) 0.088(7) 0.017(6) 0.030(5) 0.000(6)
O7 0.172(8) 0.083(5) 0.313(9) -0.027(6) 0.152(8) -0.032(5)
C54 0.107(7) 0.052(5) 0.112(7) -0.008(5) 0.029(5) -0.005(4)
C25 0.100(7) 0.053(4) 0.128(8) 0.013(5) 0.043(6) 0.008(5)
C10 0.117(8) 0.078(5) 0.099(7) -0.005(5) 0.002(6) 0.035(5)
C76 0.094(7) 0.088(6) 0.125(7) 0.011(5) 0.052(7) -0.008(5)
C81 0.067(6) 0.134(8) 0.143(8) 0.037(6) 0.039(6) -0.020(6)
C24 0.102(7) 0.061(5) 0.109(8) 0.005(5) 0.027(6) 0.009(5)
O24 0.145(8) 0.094(6) 0.282(13) -0.036(8) 0.086(10) -0.050(6)
C45 0.077(5) 0.069(5) 0.130(8) -0.012(5) 0.039(6) -0.012(4)
O2 0.135(8) 0.074(5) 0.321(10) 0.018(5) 0.091(10) 0.013(5)
C69 0.100(7) 0.091(7) 0.118(7) 0.012(7) 0.028(6) -0.017(6)
N1 0.138(8) 0.055(5) 0.141(8) 0.011(5) 0.024(6) -0.031(5)
C37 0.130(8) 0.070(6) 0.153(10) 0.021(6) 0.073(8) -0.006(5)
C48 0.074(5) 0.072(5) 0.094(7) 0.000(4) 0.007(5) -0.009(4)
C30 0.056(5) 0.086(6) 0.181(10) 0.004(5) 0.003(7) -0.017(5)
C49 0.074(6) 0.088(6) 0.097(7) 0.004(5) 0.011(5) -0.012(5)
O23 0.130(7) 0.086(6) 0.314(14) -0.057(7) 0.094(9) -0.024(5)
C33 0.143(10) 0.094(6) 0.113(7) -0.001(6) 0.007(9) -0.023(8)
O21 0.211(12) 0.100(7) 0.273(12) 0.026(7) 0.139(9) -0.014(7)
C4 0.098(7) 0.075(5) 0.155(8) -0.006(6) 0.040(8) -0.017(6)
C40 0.122(7) 0.069(5) 0.143(9) 0.011(5) 0.075(7) 0.008(5)
C66 0.103(7) 0.104(7) 0.077(7) -0.011(5) 0.004(5) 0.014(6)
C46 0.080(5) 0.085(7) 0.135(10) -0.022(6) 0.020(6) -0.019(5)
C13 0.118(9) 0.125(7) 0.096(8) 0.015(6) 0.029(6) 0.032(7)
C47 0.089(6) 0.097(7) 0.143(10) -0.026(6) 0.040(7) -0.029(5)
C22 0.068(5) 0.100(5) 0.094(7) 0.024(5) 0.020(5) 0.000(5)
C29 0.079(6) 0.085(6) 0.161(9) 0.023(6) 0.035(7) -0.034(6)
C14 0.124(8) 0.061(5) 0.134(8) -0.026(5) 0.020(7) 0.020(5)
C55 0.098(7) 0.047(5) 0.150(8) -0.022(5) 0.042(6) -0.011(4)
C44 0.089(6) 0.075(6) 0.146(10) -0.020(6) 0.039(7) -0.014(5)
C38 0.130(9) 0.073(6) 0.197(13) 0.033(7) 0.092(9) 0.008(6)
O6 0.102(6) 0.141(8) 0.252(9) 0.042(9) 0.023(6) -0.027(6)
C34 0.107(7) 0.054(5) 0.131(8) 0.007(5) 0.053(6) -0.006(5)
C21 0.082(6) 0.089(5) 0.116(8) 0.020(5) 0.016(5) 0.003(5)
C7 0.094(8) 0.110(7) 0.208(11) 0.051(7) 0.047(10) 0.011(8)
C72 0.094(7) 0.066(7) 0.262(12) -0.004(10) 0.036(7) -0.007(6)
O22 0.144(9) 0.117(8) 0.300(14) -0.089(8) -0.001(10) 0.019(7)
C12 0.136(10) 0.139(9) 0.107(9) 0.008(7) 0.014(7) 0.067(8)
C60 0.148(10) 0.094(8) 0.131(8) 0.008(7) 0.048(8) -0.009(7)
C71 0.092(6) 0.062(6) 0.245(12) 0.021(9) 0.035(8) -0.004(5)
C73 0.084(7) 0.075(7) 0.209(11) -0.008(10) -0.012(8) -0.006(6)
C61 0.091(7) 0.144(9) 0.112(9) 0.009(7) 0.021(6) 0.033(6)
C1 0.110(10) 0.078(5) 0.318(14) 0.007(6) 0.070(13) -0.007(8)
C79 0.102(7) 0.090(6) 0.251(12) 0.011(7) 0.084(8) -0.002(5)
C43 0.092(6) 0.084(6) 0.139(10) -0.027(6) 0.042(7) -0.008(5)
C41 0.099(6) 0.080(6) 0.123(9) -0.010(5) 0.035(6) -0.017(5)
C11 0.153(11) 0.094(7) 0.099(9) -0.020(6) 0.007(6) 0.054(7)
C57 0.132(9) 0.053(6) 0.264(14) 0.032(9) 0.094(9) -0.001(6)
C15 0.103(8) 0.075(6) 0.130(8) -0.031(6) 0.025(7) -0.013(5)
C36 0.126(8) 0.068(6) 0.153(10) 0.030(6) 0.070(8) 0.007(5)
C6 0.080(7) 0.116(7) 0.163(9) 0.023(6) 0.026(8) -0.001(7)
C2 0.067(6) 0.084(5) 0.244(12) 0.015(6) 0.052(9) -0.011(5)
C74 0.103(7) 0.081(7) 0.140(8) -0.004(7) -0.011(6) -0.011(6)
C77 0.093(7) 0.100(7) 0.163(9) 0.000(6) 0.059(8) -0.012(6)
C39 0.126(8) 0.058(5) 0.164(11) 0.024(6) 0.079(8) 0.005(5)
C20 0.162(11) 0.047(5) 0.149(9) -0.016(6) -0.020(8) 0.023(5)
C56 0.109(8) 0.057(6) 0.228(12) -0.004(8) 0.050(9) -0.024(6)
C70 0.094(7) 0.101(8) 0.188(10) 0.013(8) 0.057(7) -0.013(6)
C80 0.074(7) 0.113(8) 0.184(9) 0.049(7) 0.038(9) -0.015(6)
C78 0.070(6) 0.089(6) 0.189(9) 0.030(6) 0.044(8) 0.002(5)
O10 0.167(10) 0.199(12) 0.256(9) -0.021(8) 0.108(8) -0.061(8)
C3 0.125(9) 0.084(6) 0.174(10) -0.026(6) 0.055(9) -0.014(7)
C19 0.160(12) 0.047(6) 0.201(10) -0.032(7) 0.001(10) 0.006(6)
C17 0.092(7) 0.067(6) 0.225(11) -0.037(7) 0.043(9) 0.003(5)
C35 0.123(8) 0.062(5) 0.166(11) 0.015(6) 0.083(8) -0.001(5)
C59 0.143(11) 0.136(12) 0.190(12) 0.072(10) 0.083(9) 0.023(7)
C32 0.134(10) 0.106(7) 0.143(9) -0.009(6) 0.008(9) 0.010(8)
C16 0.134(10) 0.116(9) 0.187(11) -0.049(8) 0.078(9) -0.044(7)
O3 0.251(17) 0.315(19) 0.217(7) -0.031(11) 0.094(11) 0.055(15)
C18 0.130(10) 0.097(8) 0.291(15) -0.054(9) 0.087(12) -0.021(7)
C31 0.092(8) 0.094(7) 0.240(14) -0.016(6) 0.041(10) 0.007(7)
O13 0.162(10) 0.133(9) 0.388(17) -0.035(11) 0.147(10) -0.050(9)
O14 0.155(8) 0.170(10) 0.450(18) 0.175(12) 0.205(10) 0.084(7)
C58 0.133(10) 0.135(12) 0.348(18) 0.059(12) 0.139(10) 0.015(8)
O4 0.45(4) 0.62(5) 0.171(7) 0.16(2) -0.097(19) -0.36(4)
O9 0.100(7) 0.262(19) 0.67(3) -0.16(2) 0.030(11) 0.028(7)
O12 0.27(2) 0.250(19) 0.318(17) 0.093(17) 0.018(13) -0.014(17)
loop_
_atom_type_symbol
_atom_type_description
_atom_type_scat_dispersion_real
_atom_type_scat_dispersion_imag
_atom_type_scat_source
C C 0.0181 0.0091 'International Tables Vol C Tables 4.2.6.8 and 6.1.1.4'
H H 0.0000 0.0000 'International Tables Vol C Tables 4.2.6.8 and 6.1.1.4'
Cd Cd 0.1185 4.6533 'International Tables Vol C Tables 4.2.6.8 and 6.1.1.4'
N N 0.0311 0.0180 'International Tables Vol C Tables 4.2.6.8 and 6.1.1.4'
O O 0.0492 0.0322 'International Tables Vol C Tables 4.2.6.8 and 6.1.1.4'
loop_
_geom_angle_atom_site_label_1
_geom_angle_atom_site_label_2
_geom_angle_atom_site_label_3
_geom_angle
_geom_angle_site_symmetry_1
_geom_angle_site_symmetry_3
O18 Cd1 O18 129.3(4) . 2_655
O18 Cd1 O19 82.5(3) . 2_655
O18 Cd1 O19 126.4(3) . .
O18 Cd1 O19 126.4(3) 2_655 2_655
O18 Cd1 O19 82.5(3) 2_655 .
O18 Cd1 O20 86.0(3) 2_655 2_655
O18 Cd1 O20 133.6(3) . 2_655
O18 Cd1 O20 133.6(3) 2_655 .
O18 Cd1 O20 86.0(3) . .
O18 Cd1 O17 52.4(3) 2_655 2_655
O18 Cd1 O17 52.4(3) . .
O18 Cd1 O17 89.4(3) 2_655 .
O18 Cd1 O17 89.4(3) . 2_655
O18 Cd1 C40 110.0(3) . 2_655
O18 Cd1 C40 27.1(3) . .
O18 Cd1 C40 27.1(3) 2_655 2_655
O18 Cd1 C40 110.0(3) 2_655 .
O19 Cd1 O19 114.4(4) 2_655 .
O19 Cd1 C40 111.0(4) . .
O19 Cd1 C40 109.6(4) 2_655 .
O19 Cd1 C40 111.0(4) 2_655 2_655
O19 Cd1 C40 109.6(4) . 2_655
O20 Cd1 O19 81.1(3) 2_655 .
O20 Cd1 O19 51.0(3) 2_655 2_655
O20 Cd1 O19 51.0(3) . .
O20 Cd1 O19 81.1(3) . 2_655
O20 Cd1 O20 87.3(5) . 2_655
O20 Cd1 O17 174.0(3) . 2_655
O20 Cd1 O17 174.0(3) 2_655 .
O20 Cd1 O17 93.2(4) . .
O20 Cd1 O17 93.2(4) 2_655 2_655
O20 Cd1 C40 89.0(3) . .
O20 Cd1 C40 160.6(4) 2_655 .
O20 Cd1 C40 160.6(4) . 2_655
O20 Cd1 C40 89.0(3) 2_655 2_655
O17 Cd1 O19 94.5(3) . .
O17 Cd1 O19 135.0(3) . 2_655
O17 Cd1 O19 135.0(3) 2_655 .
O17 Cd1 O19 94.5(3) 2_655 2_655
O17 Cd1 O17 87.0(5) . 2_655
O17 Cd1 C40 25.4(3) . .
O17 Cd1 C40 88.5(3) 2_655 .
O17 Cd1 C40 25.4(3) 2_655 2_655
O17 Cd1 C40 88.5(3) . 2_655
C40 Cd1 C40 100.4(5) 2_655 .
O7 Cd2 O23 73.9(4) . 3_565
O7 Cd2 O21 97.4(4) . 5_666
O7 Cd2 O22 83.1(5) . 5_666
O7 Cd2 O13 167.2(4) . 7_676
O7 Cd2 O14 131.5(5) . 7_676
O7 Cd2 O12 88.2(7) . .
O23 Cd2 O22 129.0(5) 3_565 5_666
O23 Cd2 O14 83.1(5) 3_565 7_676
O23 Cd2 O12 89.0(7) 3_565 .
O21 Cd2 O23 170.8(4) 5_666 3_565
O21 Cd2 O22 50.7(4) 5_666 5_666
O21 Cd2 O13 93.2(4) 5_666 7_676
O21 Cd2 O14 105.1(5) 5_666 7_676
O21 Cd2 O12 87.9(7) 5_666 .
O13 Cd2 O23 95.1(5) 7_676 3_565
O13 Cd2 O22 109.2(5) 7_676 5_666
O13 Cd2 O14 51.2(5) 7_676 7_676
O13 Cd2 O12 85.0(7) 7_676 .
O14 Cd2 O22 79.2(4) 7_676 5_666
O12 Cd2 O22 135.7(6) . 5_666
O12 Cd2 O14 134.2(6) . 7_676
O8 Cd3 O7 54.2(4) . .
O8 Cd3 O24 175.5(4) . 3_565
O8 Cd3 O23 124.0(4) . 3_565
O8 Cd3 C79 26.3(4) . .
O11 Cd3 O8 91.0(4) . .
O11 Cd3 O7 88.5(4) . .
O11 Cd3 O24 91.6(4) . 3_565
O11 Cd3 O23 87.9(4) . 3_565
O11 Cd3 C79 90.2(4) . .
O11 Cd3 O9 173.9(6) . .
O7 Cd3 O24 122.2(4) . 3_565
O7 Cd3 C79 28.0(5) . .
O24 Cd3 C79 150.1(6) 3_565 .
O23 Cd3 O7 69.7(3) 3_565 .
O23 Cd3 O24 52.6(4) 3_565 3_565
O23 Cd3 C79 97.7(5) 3_565 .
O10 Cd3 O8 96.8(5) . .
O10 Cd3 O11 94.4(5) . .
O10 Cd3 O7 151.0(4) . .
O10 Cd3 O24 86.6(5) . 3_565
O10 Cd3 O23 139.1(4) . 3_565
O10 Cd3 C79 123.1(5) . .
O10 Cd3 O9 91.1(8) . .
O9 Cd3 O8 85.7(6) . .
O9 Cd3 O7 85.4(6) . .
O9 Cd3 O24 91.3(6) . 3_565
O9 Cd3 O23 89.7(8) . 3_565
O9 Cd3 C79 84.6(6) . .
Cd5 Cd4 O5 48.9(3) . .
Cd5 Cd4 O1 51.7(3) . .
Cd5 Cd4 O2 98.2(4) . .
Cd5 Cd4 O6 100.5(4) . .
Cd5 Cd4 O22 82.2(4) . 7_556
Cd5 Cd4 O3 161.3(5) . .
Cd5 Cd4 O14 77.5(5) . 5_676
O5 Cd4 O1 71.1(3) . .
O2 Cd4 O5 103.1(4) . .
O2 Cd4 O1 46.6(4) . .
O2 Cd4 O6 104.2(5) . .
O2 Cd4 O22 89.3(4) . 7_556
O2 Cd4 O3 96.3(6) . .
O2 Cd4 O14 168.7(5) . 5_676
O6 Cd4 O5 51.9(4) . .
O6 Cd4 O1 107.5(5) . .
O6 Cd4 O22 165.5(4) . 7_556
O6 Cd4 O3 87.3(7) . .
O6 Cd4 O14 86.9(4) . 5_676
O22 Cd4 O5 130.5(5) 7_556 .
O22 Cd4 O1 85.4(3) 7_556 .
O3 Cd4 O5 137.8(6) . .
O3 Cd4 O1 141.9(6) . .
O3 Cd4 O22 86.1(6) . 7_556
O3 Cd4 O14 86.0(6) . 5_676
O14 Cd4 O5 82.2(3) 5_676 .
O14 Cd4 O1 128.6(5) 5_676 .
O14 Cd4 O22 79.8(4) 5_676 7_556
Cd4 Cd5 O5 83.4(4) . .
Cd4 Cd5 O1 81.2(4) . .
Cd4 Cd5 O4 173.9(10) . .
O5 Cd5 O1 97.0(4) . .
O5 Cd5 O4 96.4(6) . .
O1 Cd5 O4 92.8(10) . .
C40 O18 Cd1 99.0(7) . .
C41 O19 Cd1 87.4(8) . .
C53 C52 C51 118.8(9) . .
C53 C52 C54 120.1(10) . .
C51 C52 C54 121.1(9) . .
C79 O8 Cd3 93.0(10) . .
C41 O20 Cd1 100.0(8) . .
C28 C27 C23 119.2(11) . .
C33 C27 C28 119.2(12) . .
C33 C27 C23 121.5(11) . .
O16 N2 C21 114.4(9) . .
N1 N2 O16 145.8(13) . .
N1 N2 C21 99.8(11) . .
C64 C63 C75 121.3(9) . .
C62 C63 C64 116.6(11) . .
C62 C63 C75 122.1(10) . .
C52 C53 C48 122.0(10) . .
C29 C28 C27 121.6(13) . .
C64 C65 C68 119.0(10) . .
C64 C65 C66 120.7(11) . .
C66 C65 C68 120.2(10) . .
O15 N3 C50 113.1(9) . .
N4 N3 O15 145.6(13) . .
N4 N3 C50 101.3(10) . .
C69 C68 C65 121.4(10) . .
C69 C68 C74 120.0(12) . .
C74 C68 C65 118.5(11) . .
C8 C9 C10 121.4(11) . .
C65 C64 C63 120.4(10) . .
C40 O17 Cd1 85.5(7) . .
C23 C26 C25 119.4(10) . .
Cd5 O5 Cd4 47.6(3) . .
C72 O5 Cd4 90.2(13) . .
C72 O5 Cd5 137.5(14) . .
C76 C75 C63 122.8(10) . .
C76 C75 C81 118.7(12) . .
C81 C75 C63 118.4(12) . .
C51 C50 N3 127.9(10) . .
C49 C50 N3 112.6(9) . .
C49 C50 C51 119.5(10) . .
C26 C23 C27 118.7(10) . .
C22 C23 C27 121.3(9) . .
C22 C23 C26 120.1(10) . .
N3 N4 C61 100.5(11) . .
C4 C5 C8 121.0(13) . .
C6 C5 C8 122.6(14) . .
C6 C5 C4 116.3(13) . .
C47 C42 C41 120.7(10) . .
C43 C42 C47 119.2(11) . .
C43 C42 C41 120.1(11) . .
C9 C8 C5 120.2(11) . .
C9 C8 C13 118.5(12) . .
C13 C8 C5 121.3(13) . .
Cd5 O1 Cd4 47.1(2) . .
C1 O1 Cd4 98.5(12) . .
C1 O1 Cd5 145.6(13) . .
C52 C51 C50 120.8(9) . .
C61 C62 C63 123.4(11) . .
Cd2 O7 Cd3 103.2(4) . .
C79 O7 Cd2 150.4(10) . .
C79 O7 Cd3 89.7(12) . .
C55 C54 C52 119.1(11) . .
C55 C54 C60 119.3(12) . .
C60 C54 C52 121.6(11) . .
C26 C25 C34 121.1(10) . .
C24 C25 C26 119.0(10) . .
C24 C25 C34 119.8(9) . .
C9 C10 C14 120.8(11) . .
C11 C10 C9 117.7(13) . .
C11 C10 C14 121.5(11) . .
C77 C76 C75 120.0(12) . .
C80 C81 C75 119.1(14) . .
C21 C24 C25 121.3(10) . .
C18 O24 Cd3 93.3(11) . 3_435
C46 C45 C48 122.2(10) . .
C44 C45 C48 121.9(10) . .
C44 C45 C46 115.9(10) . .
C1 O2 Cd4 108.1(10) . .
C68 C69 C70 119.4(13) . .
N2 N1 C12 99.8(12) . .
C38 C37 C40 120.7(11) . .
C36 C37 C40 120.3(11) . .
C36 C37 C38 118.8(9) . .
C53 C48 C45 122.1(10) . .
C53 C48 C49 119.3(10) . .
C49 C48 C45 118.6(9) . .
C29 C30 C32 116.8(12) . .
C29 C30 C31 123.1(14) . .
C32 C30 C31 120.1(15) . .
C50 C49 C48 119.5(10) . .
Cd2 O23 Cd3 102.0(4) 3_435 3_435
C18 O23 Cd2 148.5(11) . 3_435
C18 O23 Cd3 95.6(15) . 3_435
C27 C33 C32 118.0(14) . .
C31 O21 Cd2 100.2(11) . 5_666
C5 C4 C3 120.3(14) . .
O18 C40 Cd1 54.0(5) . .
O18 C40 C37 116.7(11) . .
O17 C40 Cd1 69.1(6) . .
O17 C40 O18 123.0(10) . .
O17 C40 C37 120.3(12) . .
C37 C40 Cd1 170.2(9) . .
C61 C66 C65 121.3(12) . .
C47 C46 C45 124.2(12) . .
C8 C13 C12 122.1(14) . .
C46 C47 C42 119.4(11) . .
C23 C22 C21 122.1(10) . .
C28 C29 C30 122.4(13) . .
C15 C14 C10 118.5(11) . .
C15 C14 C20 123.1(15) . .
C20 C14 C10 118.4(14) . .
C56 C55 C54 120.9(14) . .
C45 C44 C43 122.6(11) . .
C39 C38 C37 119.6(11) . .
C72 O6 Cd4 95.4(8) . .
C39 C34 C25 120.2(9) . .
C35 C34 C25 121.2(10) . .
C35 C34 C39 118.4(10) . .
C24 C21 N2 110.8(10) . .
C22 C21 N2 131.3(10) . .
C22 C21 C24 118.0(11) . .
C6 C7 C2 117.8(16) . .
O5 C72 O6 122.5(14) . .
O5 C72 C71 127(2) . .
O6 C72 C71 110.3(17) . .
Cd4 O22 Cd2 97.9(5) 7_556 5_666
C31 O22 Cd2 92.0(11) . 5_666
C31 O22 Cd4 112.1(13) . 7_556
C13 C12 N1 140.6(15) . .
C11 C12 N1 101.9(13) . .
C11 C12 C13 116.9(13) . .
C54 C60 C59 115.8(15) . .
C73 C71 C72 114.1(17) . .
C70 C71 C72 128.5(19) . .
C70 C71 C73 117.3(12) . .
C71 C73 C74 119.4(13) . .
C62 C61 N4 103.1(11) . .
C62 C61 C66 117.4(12) . .
C66 C61 N4 139.5(14) . .
O1 C1 O2 106.8(14) . .
O1 C1 C2 127.6(18) . .
O2 C1 C2 125.6(16) . .
O8 C79 Cd3 60.7(9) . .
O8 C79 O7 123.0(17) . .
O8 C79 C78 121.3(15) . .
O7 C79 Cd3 62.3(9) . .
O7 C79 C78 115.7(18) . .
C78 C79 Cd3 176.8(10) . .
C42 C43 C44 118.6(11) . .
O19 C41 O20 120.8(11) . .
O19 C41 C42 120.2(11) . .
O20 C41 C42 118.9(11) . .
C12 C11 C10 123.2(12) . .
C56 C57 C59 122.2(14) . .
C56 C57 C58 115.2(19) . .
C59 C57 C58 122.5(19) . .
C14 C15 C16 115.3(13) . .
C37 C36 C35 119.0(11) . .
C7 C6 C5 125.7(17) . .
C7 C2 C1 122.3(17) . .
C7 C2 C3 121.8(14) . .
C3 C2 C1 115.9(17) . .
C68 C74 C73 119.1(15) . .
C76 C77 C78 121.8(14) . .
C38 C39 C34 120.9(11) . .
C19 C20 C14 120.3(16) . .
C57 C56 C55 121.7(16) . .
C71 C70 C69 124.7(16) . .
C78 C80 C81 121.8(13) . .
C77 C78 C79 119.5(16) . .
C80 C78 C79 122.1(14) . .
C80 C78 C77 118.3(14) . .
C2 C3 C4 118.2(15) . .
C20 C19 C17 119.3(13) . .
C19 C17 C18 117.5(15) . .
C16 C17 C19 116.7(16) . .
C16 C17 C18 125.7(19) . .
C34 C35 C36 122.3(11) . .
C57 C59 C60 120.0(15) . .
C30 C32 C33 121.9(15) . .
C17 C16 C15 125.0(17) . .
O24 C18 C17 115.0(16) . .
O23 C18 O24 118(2) . .
O23 C18 C17 127(2) . .
O21 C31 C30 117.5(14) . .
O22 C31 C30 126.9(16) . .
O22 C31 O21 115.5(15) . .
C58 O13 Cd2 99.2(11) . 7_676
Cd2 O14 Cd4 99.2(5) 7_676 5_676
C58 O14 Cd2 93.9(12) . 7_676
C58 O14 Cd4 118.1(14) . 5_676
O13 C58 C57 124.2(16) . .
O14 C58 C57 122.0(18) . .
O14 C58 O13 113.7(16) . .
loop_
_geom_bond_atom_site_label_1
_geom_bond_atom_site_label_2
_geom_bond_distance
_geom_bond_site_symmetry_2
Cd1 O18 2.253(7) .
Cd1 O18 2.253(7) 2_655
Cd1 O19 2.617(9) .
Cd1 O19 2.617(9) 2_655
Cd1 O20 2.323(8) 2_655
Cd1 O20 2.323(8) .
Cd1 O17 2.579(9) .
Cd1 O17 2.579(9) 2_655
Cd1 C40 2.752(9) .
Cd1 C40 2.752(9) 2_655
Cd2 O7 2.254(10) .
Cd2 O23 2.308(10) 3_565
Cd2 O21 2.284(12) 5_666
Cd2 O22 2.504(13) 5_666
Cd2 O13 2.299(12) 7_676
Cd2 O14 2.467(14) 7_676
Cd2 O12 2.307(19) .
Cd3 O8 2.371(10) .
Cd3 O11 2.303(12) .
Cd3 O7 2.405(12) .
Cd3 O24 2.411(9) 3_565
Cd3 O23 2.391(14) 3_565
Cd3 C79 2.715(18) .
Cd3 O10 2.228(14) .
Cd3 O9 2.335(16) .
Cd4 Cd5 1.890(4) .
Cd4 O5 2.541(11) .
Cd4 O1 2.548(11) .
Cd4 O2 2.287(9) .
Cd4 O6 2.313(10) .
Cd4 O22 2.476(14) 7_556
Cd4 O3 2.350(16) .
Cd4 O14 2.466(11) 5_676
Cd5 O5 1.928(10) .
Cd5 O1 2.022(10) .
Cd5 O4 2.46(2) .
O15 N3 1.284(11) .
O16 N2 1.350(12) .
O18 C40 1.268(14) .
O19 C41 1.205(14) .
C52 C53 1.362(13) .
C52 C51 1.385(15) .
C52 C54 1.522(15) .
O8 C79 1.20(2) .
O20 C41 1.261(14) .
C27 C28 1.391(15) .
C27 C23 1.502(15) .
C27 C33 1.356(17) .
N2 N1 1.041(12) .
N2 C21 1.614(13) .
C63 C64 1.409(13) .
C63 C75 1.489(16) .
C63 C62 1.397(16) .
C53 C48 1.394(14) .
C28 C29 1.330(16) .
C65 C68 1.533(15) .
C65 C64 1.360(14) .
C65 C66 1.378(15) .
N3 C50 1.618(13) .
N3 N4 1.088(12) .
C68 C69 1.361(16) .
C68 C74 1.371(16) .
C9 C8 1.369(16) .
C9 C10 1.414(15) .
O17 C40 1.183(14) .
C26 C23 1.400(13) .
C26 C25 1.414(14) .
O5 C72 1.101(19) .
C75 C76 1.356(16) .
C75 C81 1.429(16) .
C50 C51 1.422(15) .
C50 C49 1.372(15) .
C23 C22 1.374(15) .
N4 C61 1.548(13) .
C5 C8 1.498(17) .
C5 C4 1.378(17) .
C5 C6 1.352(17) .
C42 C47 1.392(16) .
C42 C43 1.362(15) .
C42 C41 1.482(15) .
C8 C13 1.400(17) .
O1 C1 1.133(14) .
C62 C61 1.375(19) .
O7 C79 1.273(18) .
C54 C55 1.385(15) .
C54 C60 1.393(17) .
C25 C24 1.403(15) .
C25 C34 1.497(15) .
C10 C14 1.562(19) .
C10 C11 1.385(18) .
C76 C77 1.335(16) .
C81 C80 1.362(19) .
C24 C21 1.397(15) .
O24 C18 1.26(2) .
C45 C48 1.470(14) .
C45 C46 1.387(14) .
C45 C44 1.340(15) .
O2 C1 1.265(15) .
C69 C70 1.410(16) .
N1 C12 1.557(14) .
C37 C40 1.510(9) .
C37 C38 1.400(16) .
C37 C36 1.384(16) .
C48 C49 1.412(15) .
C30 C29 1.367(19) .
C30 C32 1.38(2) .
C30 C31 1.485(14) .
O23 C18 1.212(19) .
C33 C32 1.424(18) .
O21 C31 1.264(14) .
C4 C3 1.410(16) .
C66 C61 1.376(18) .
C46 C47 1.336(15) .
C13 C12 1.403(19) .
C22 C21 1.393(16) .
C14 C15 1.281(17) .
C14 C20 1.368(17) .
C55 C56 1.362(16) .
C44 C43 1.426(15) .
C38 C39 1.382(15) .
O6 C72 1.33(2) .
C34 C39 1.395(15) .
C34 C35 1.332(14) .
C7 C6 1.34(2) .
C7 C2 1.34(2) .
C72 C71 1.522(9) .
O22 C31 1.169(14) .
C12 C11 1.38(2) .
C60 C59 1.47(2) .
C71 C73 1.42(2) .
C71 C70 1.31(2) .
C73 C74 1.46(2) .
C1 C2 1.455(15) .
C79 C78 1.55(2) .
C57 C56 1.28(2) .
C57 C59 1.34(2) .
C57 C58 1.499(15) .
C15 C16 1.387(18) .
C36 C35 1.400(15) .
C2 C3 1.37(2) .
C77 C78 1.413(18) .
C20 C19 1.32(2) .
C80 C78 1.32(2) .
C19 C17 1.38(2) .
C17 C16 1.321(18) .
C17 C18 1.49(2) .
O13 C58 1.284(16) .
O14 C58 1.179(15) .
loop_
_smtbx_masks_void_nr
_smtbx_masks_void_average_x
_smtbx_masks_void_average_y
_smtbx_masks_void_average_z
_smtbx_masks_void_volume
_smtbx_masks_void_count_electrons
1 -0.879 -0.214 0.471 7448.3 1816.9
