#------------------------------------------------------------------------------
#$Date: 2019-05-08 01:32:12 +0300 (Wed, 08 May 2019) $
#$Revision: 214980 $
#$URL: file:///home/coder/svn-repositories/cod/cif/1/55/09/1550986.cif $
#------------------------------------------------------------------------------
#
# This file is available in the Crystallography Open Database (COD),
# http://www.crystallography.net/
#
# All data on this site have been placed in the public domain by the
# contributors.
#
data_1550986
loop_
_publ_author_name
'Kim, Hyehyun'
'Kim, Dongwook'
'Moon, Dohyun'
'Choi, Yong Nam'
'Baek, Seung Bin'
'Lah, Myoung Soo'
_publ_section_title
;
 Symmetry-guided syntheses of mixed-linker Zr metal-organic frameworks
 with precise linker locations
;
_journal_name_full               'Chemical Science'
_journal_paper_doi               10.1039/C9SC01301F
_journal_year                    2019
_chemical_formula_sum            'C56 H68 F12 O52 Zr6'
_chemical_formula_weight         2348.42
_space_group_crystal_system      orthorhombic
_space_group_IT_number           71
_space_group_name_Hall           '-I 2 2'
_space_group_name_H-M_alt        'I m m m'
_symmetry_space_group_name_Hall  '-I 2 2'
_symmetry_space_group_name_H-M   'I m m m'
_atom_sites_solution_hydrogens   mixed
_audit_creation_method           SHELXL-2014/7
_audit_update_record
;
2019-02-08 deposited with the CCDC.    2019-05-07 downloaded from the CCDC.
;
_cell_angle_alpha                90
_cell_angle_beta                 90
_cell_angle_gamma                90
_cell_formula_units_Z            2
_cell_length_a                   11.677(2)
_cell_length_b                   17.804(4)
_cell_length_c                   25.696(5)
_cell_measurement_reflns_used    45359
_cell_measurement_temperature    298(2)
_cell_measurement_theta_max      26.999
_cell_measurement_theta_min      1.561
_cell_volume                     5342.1(18)
_computing_cell_refinement       HKL3000
_computing_data_collection       'PAL BL2D-SMDC Program'
_computing_data_reduction        HKL3000
_computing_molecular_graphics    ORTEP
_computing_publication_material  CIFTAB
_computing_structure_refinement  'SHELXL-2014/7 (Sheldrick, 2014)'
_computing_structure_solution    SHELXS
_diffrn_ambient_temperature      298(2)
_diffrn_measured_fraction_theta_full 1.000
_diffrn_measured_fraction_theta_max 0.998
_diffrn_measurement_device_type  'ADSC Q210 CCD area detector'
_diffrn_measurement_method       'omega scan'
_diffrn_radiation_type           synchrotron
_diffrn_radiation_wavelength     0.700
_diffrn_reflns_av_R_equivalents  0.0640
_diffrn_reflns_av_unetI/netI     0.0374
_diffrn_reflns_Laue_measured_fraction_full 1.000
_diffrn_reflns_Laue_measured_fraction_max 0.998
_diffrn_reflns_limit_h_max       16
_diffrn_reflns_limit_h_min       -16
_diffrn_reflns_limit_k_max       25
_diffrn_reflns_limit_k_min       -25
_diffrn_reflns_limit_l_max       36
_diffrn_reflns_limit_l_min       -36
_diffrn_reflns_number            28057
_diffrn_reflns_point_group_measured_fraction_full 1.000
_diffrn_reflns_point_group_measured_fraction_max 0.998
_diffrn_reflns_theta_full        24.835
_diffrn_reflns_theta_max         29.549
_diffrn_reflns_theta_min         1.561
_diffrn_source                   'PLSII 2D bending magnet'
_exptl_absorpt_coefficient_mu    0.667
_exptl_absorpt_correction_T_max  0.974
_exptl_absorpt_correction_T_min  0.974
_exptl_absorpt_correction_type   multi-scan
_exptl_absorpt_process_details   HKL3000
_exptl_crystal_colour            colorless
_exptl_crystal_density_diffrn    1.460
_exptl_crystal_description       block
_exptl_crystal_F_000             2336
_exptl_crystal_size_max          0.040
_exptl_crystal_size_mid          0.040
_exptl_crystal_size_min          0.040
_refine_diff_density_max         1.514
_refine_diff_density_min         -1.196
_refine_diff_density_rms         0.183
_refine_ls_extinction_coef       0.0074(7)
_refine_ls_extinction_expression Fc^*^=kFc[1+0.001xFc^2^\l^3^/sin(2\q)]^-1/4^
_refine_ls_extinction_method     'SHELXL-2014/7 (Sheldrick 2014'
_refine_ls_goodness_of_fit_ref   1.088
_refine_ls_hydrogen_treatment    mixed
_refine_ls_matrix_type           full
_refine_ls_number_parameters     210
_refine_ls_number_reflns         4293
_refine_ls_number_restraints     144
_refine_ls_restrained_S_all      1.105
_refine_ls_R_factor_all          0.0737
_refine_ls_R_factor_gt           0.0593
_refine_ls_shift/su_max          0.001
_refine_ls_shift/su_mean         0.000
_refine_ls_structure_factor_coef Fsqd
_refine_ls_weighting_details
'w=1/[\s^2^(Fo^2^)+(0.1379P)^2^+3.9581P] where P=(Fo^2^+2Fc^2^)/3'
_refine_ls_weighting_scheme      calc
_refine_ls_wR_factor_gt          0.1848
_refine_ls_wR_factor_ref         0.1955
_reflns_Friedel_coverage         0.000
_reflns_number_gt                3337
_reflns_number_total             4293
_reflns_threshold_expression     'I > 2\s(I)'
_cod_data_source_file            c9sc01301f2.cif
_cod_data_source_block           p16_057or_sq
_cod_depositor_comments
;
The following automatic conversions were performed:

'_exptl_absorpt_correction_type' value 'Multi-scan' changed to
'multi-scan' according to
/home/data/users/saulius/crontab/automatic-downloads/rss-feeds/RSC/lib/dictionaries/cif_core.dic
dictionary named 'cif_core.dic' version 2.4.2 from 2011-04-26.

Automatic conversion script
Id: cif_fix_values 4973 2017-02-22 13:04:09Z antanas 
;
_cod_original_cell_volume        5342.3(18)
_cod_database_code               1550986
_shelx_shelxl_version_number     2014/7
_shelx_space_group_comment
;
The symmetry employed for this shelxl refinement is uniquely defined
by the following loop, which should always be used as a source of
symmetry information in preference to the above space-group names.
They are only intended as comments.
;
_shelx_estimated_absorpt_t_min   0.974
_shelx_estimated_absorpt_t_max   0.974
_shelx_res_file
;

    p16_057or_sq.res created by SHELXL-2014/7


TITL P16_057Or in Immm [Zr6O4(OH)4(ndc)4(H2O)8](tfa)4.(H2O)12
CELL 0.70000  11.6770  17.8044  25.6961  90.000  90.000  90.000
ZERR    2.00   0.0023   0.0036   0.0051   0.000   0.000   0.000
LATT 2
SYMM -X, -Y, Z
SYMM -X, Y, -Z
SYMM X, -Y, -Z
SFAC C  H  O  F  Zr
UNIT 112 136 104 24 12
L.S. 20 0    4
BOND
FMAP 2
PLAN 20
SIZE 0.04 0.04 0.04
EQIV  $5   x, y, -z+1
EQIV  $6   -x, y, z
DFIX 0.88 0.01 O2S  H1S2
DANG 1.60 0.01 H1S2 H1S2_$5
EADP C1B C2A
EXYZ C1B C2A
EADP C1A C2B
EXYZ C1A C2B
FLAT O1A  C1A  C2A  O1A_$6
DFIX 1.50 0.01 C1A  C2A
DFIX 1.40 0.01 C1A  F1A
DFIX 1.40 0.01 C1A  F2A
DFIX 1.25 0.01 C2A  O1A
DANG 2.30 0.01 F1A  F2A
DANG 2.30 0.01 F2A  F2A_$6
DANG 2.50 0.01 F1A  C2A
DANG 2.15 0.01 O1A  O1A_$6
FLAT O1B  C1B  C2B  O1B_$6
DFIX 1.50 0.01 C1B  C2B
DFIX 1.40 0.01 C1B  F1B
DFIX 1.40 0.01 C1B  F2B
DFIX 1.25 0.01 C2B  O1B
DANG 2.30 0.01 F1B  F2B
DANG 2.30 0.01 F2B  F2B_$6
DANG 2.50 0.01 F1B  C2B
DANG 2.15 0.01 O1B  O1B_$6
DELU 0.02 F1B  F2B  C1B  O1B  C2B
SIMU 0.02 F1B  F2B  C1B  O1B  C2B
ISOR 0.01 F1B  F2B  C1B  O1B  C2B
DELU 0.02 F1A  F2A  C1A  O1A  C2A
SIMU 0.02 F1A  F2A  C1A  O1A  C2A
ISOR 0.01 F1A  F2A  C1A  O1A  C2A
HTAB O2S  O1A
FREE O1A  Q12
FREE Zr2  Q2
FREE Zr1  H1S2
delu c2a f1a f2a
delu c2b f1b f2b
size 0.04 0.04 0.04
TEMP 25
ABIN
ACTA
WGHT    0.137900    3.958100
EXTI    0.007396
FVAR       0.21219
ZR1   5    0.151619    0.400641    0.500000    10.50000    0.02896    0.01938 =
         0.01359    0.00000    0.00000    0.00391
ZR2   5    0.000000    0.500000    0.404480    10.25000    0.02785    0.01737 =
         0.01100    0.00000    0.00000    0.00000
O1M   3    0.152301    0.500000    0.454312    10.50000    0.15990    0.01656 =
         0.02279    0.00000   -0.04245    0.00000
O2M   3    0.000000    0.399566    0.454058    10.50000    0.02587    0.15601 =
         0.06094    0.08628    0.00000    0.00000
O1    3    0.209675    0.358941    0.421928    11.00000    0.05432    0.04571 =
         0.01891   -0.01130   -0.00484    0.02430
O2    3    0.112932    0.425198    0.361747    11.00000    0.03953    0.02851 =
         0.01632   -0.00525    0.00410    0.00725
C1    1    0.178490    0.372738    0.375231    11.00000    0.04031    0.03455 =
         0.01579   -0.00765    0.00045    0.00902
C2    1    0.220319    0.321582    0.333447    11.00000    0.04880    0.04296 =
         0.02344   -0.01322   -0.00283    0.01845
C3    1    0.298714    0.264116    0.345025    11.00000    0.08047    0.07756 =
         0.02394   -0.02021   -0.01639    0.05112
AFIX  43
H3    2    0.327453    0.259095    0.378599    11.00000   -1.20000
AFIX   0
C4    1    0.332989    0.215074    0.306368    11.00000    0.09031    0.08339 =
         0.02884   -0.02218   -0.02008    0.06286
AFIX  43
H4    2    0.385027    0.177169    0.314172    11.00000   -1.20000
AFIX   0
C5    1    0.176204    0.327766    0.284088    11.00000    0.06419    0.04733 =
         0.02301   -0.01552   -0.00693    0.03014
AFIX  43
H5    2    0.123295    0.365393    0.276869    11.00000   -1.20000
AFIX   0
C6    1    0.209509    0.278373    0.244398    11.00000    0.05939    0.05054 =
         0.02013   -0.01489   -0.00709    0.02820
O1S   3    0.340038    0.404531    0.500000    10.50000    0.03097    0.06254 =
         0.02356    0.00000    0.00000    0.00783
O2S   3    0.142083    0.276088    0.500000    10.50000    0.07437    0.02383 =
         0.04034    0.00000    0.00000    0.00860
H1S2  2    0.162230    0.260339    0.468905    10.50000   -1.50000
PART 1
F1A   4    0.000000    0.183051    0.299576    10.25000    0.21803    0.18984 =
         0.20238   -0.03862    0.00000    0.00000
F2A   4    0.097563    0.094008    0.346157    10.50000    0.27723    0.21691 =
         0.19833   -0.05874   -0.05369    0.01386
O1A   3    0.091412    0.216935    0.418326    10.50000    0.33886    0.29550 =
         0.31238   -0.01232   -0.00119   -0.10713
C1A   1    0.000000    0.143959    0.347423    10.25000    0.23745    0.24046 =
         0.23079   -0.01069    0.00000    0.00000
C2A   1    0.000000    0.192306    0.396461    10.25000    0.23931    0.23956 =
         0.23159   -0.00607    0.00000    0.00000
PART 2
F1B   4    0.000000    0.270263    0.391438    10.25000    0.19974    0.23860 =
         0.19474   -0.01699    0.00000    0.00000
F2B   4    0.099010    0.173642    0.427343    10.50000    0.26088    0.13818 =
         0.17908   -0.06589   -0.00410   -0.04203
O1B   3    0.091360    0.122190    0.324051    10.50000    0.29347    0.30594 =
         0.29430   -0.02994    0.03332    0.03454
C1B   1    0.000000    0.192306    0.396461    10.25000    0.23931    0.23956 =
         0.23159   -0.00607    0.00000    0.00000
C2B   1    0.000000    0.143959    0.347423    10.25000    0.23745    0.24046 =
         0.23079   -0.01069    0.00000    0.00000
PART 0
PART 1
O11W  3    0.000000    0.154470    0.067938    10.25000    0.05016    0.09574 =
         0.06442   -0.00221    0.00000    0.00000
O21W  3    0.500000    0.194231    0.443520    10.25000    0.12096    0.14720 =
         0.13791    0.02994    0.00000    0.00000
O31W  3    0.307062    0.093306    0.428309    10.25000    0.09253    0.12551 =
         0.15951    0.01823   -0.04026   -0.01410
PART 2
O12W  3    0.000000    0.076482    0.072300    10.25000    0.07306    0.28617 =
         0.07733    0.00643    0.00000    0.00000
O22W  3    0.000000    0.067543    0.182922    10.25000    0.11282    0.30120 =
         0.07154   -0.04665    0.00000    0.00000
O32W  3    0.144384    0.000000    0.121264    10.25000    0.02762    0.08885 =
         0.19802    0.00000    0.01881    0.00000
PART 0

HKLF 4

REM  P16_057Or in Immm [Zr6O4(OH)4(ndc)4(H2O)8](tfa)4.(H2O)12
REM R1 =  0.0593 for    3337 Fo > 4sig(Fo)  and  0.0737 for all    4293 data
REM    210 parameters refined using    144 restraints

END

WGHT      0.1381      3.8351

REM Highest difference peak  1.514,  deepest hole -1.196,  1-sigma level  0.183
Q1    1   0.0000  0.4256  0.4595  10.50000  0.05    1.51
Q2    1   0.0000  0.3717  0.4514  10.50000  0.05    1.45
Q3    1   0.0362  0.0000  0.1546  10.50000  0.05    1.40
Q4    1   0.0000  0.2474  0.3973  10.50000  0.05    1.18
Q5    1   0.0000  0.0095  0.1076  10.50000  0.05    1.10
Q6    1   0.1816  0.5000  0.4386  10.50000  0.05    0.83
Q7    1   0.1996  0.0000  0.0969  10.50000  0.05    0.83
Q8    1   0.4594  0.4008  0.5000  10.50000  0.05    0.74
Q9    1   0.1196  0.5000  0.4672  10.50000  0.05    0.70
Q10   1   0.0000  0.3054  0.4076  10.50000  0.05    0.69
Q11   1   0.0000  0.5000  0.3315  10.25000  0.05    0.67
Q12   1   0.0000  0.0513  0.0709  10.50000  0.05    0.67
Q13   1   0.1608  0.2052  0.5000  10.50000  0.05    0.66
Q14   1   0.0000  0.4412  0.5000  10.25000  0.05    0.66
Q15   1   0.5000  0.1257  0.4097  10.50000  0.05    0.65
Q16   1   0.0000  0.0675  0.3635  10.50000  0.05    0.65
Q17   1   0.1463  0.4233  0.3593  11.00000  0.05    0.61
Q18   1   0.0431  0.0697  0.1709  11.00000  0.05    0.60
Q19   1   0.3419  0.1985  0.5000  10.50000  0.05    0.60
Q20   1   0.0000  0.1092  0.1979  10.50000  0.05    0.59
;
_shelx_res_checksum              66022
_shelx_fab_file
;
    0    2    2    -41.43      0.00
    0    3    3     -0.18      0.00
    0    4    4     30.07      0.00
    0    5    5     -5.19      0.00
    0    6    6     -2.58      0.00
    0    7    7     -6.03      0.00
    0    8    8      2.98      0.00
    0    9    9      2.14      0.00
    0   10   10     -2.87      0.00
    0   11   11      0.14      0.00
    0   12   12      2.09      0.00
    0   13   13      0.07      0.00
    0   14   14     -0.58      0.00
    0   15   15     -1.11      0.00
    0   16   16      0.40      0.00
    0   17   17      0.12      0.00
    0   18   18      0.32      0.00
    0   19   19     -0.51      0.00
    0   20   20      1.88      0.00
    0   19   21     -2.56      0.00
    0   18   20      1.61      0.00
    0   17   19     -0.68      0.00
    0   16   18      0.05      0.00
    0   15   17      0.61      0.00
    0   14   16      1.04      0.00
    0   13   15     -0.56      0.00
    0   12   14     -2.23      0.00
    0   11   13     -0.34      0.00
    0   10   12      2.93      0.00
    0    9   11     -0.50      0.00
    0    8   10     -2.29      0.00
    0    7    9      3.98      0.00
    0    6    8      3.62      0.00
    0    5    7    -10.29      0.00
    0    4    6     -2.32      0.00
    0    3    5     -7.44      0.00
    0    2    4     38.11      0.00
    0    1    3     -2.24      0.00
    0    0    2    -42.48      0.00
    0    2    0     83.27      0.00
    0    3    1    -17.10      0.00
    0    4    2    -37.85      0.00
    0    5    3      2.34      0.00
    0    6    4     21.20      0.00
    0    7    5     -3.52      0.00
    0    8    6     -2.70      0.00
    0    9    7     -3.46      0.00
    0   10    8      3.01      0.00
    0   11    9      1.49      0.00
    0   12   10     -2.75      0.00
    0   13   11     -0.18      0.00
    0   14   12      1.30      0.00
    0   15   13     -0.23      0.00
    0   16   14      0.99      0.00
    0   17   15     -1.23      0.00
    0   18   16      0.47      0.00
    0   19   17     -0.77      0.00
    0   20   18      0.52      0.00
    0   21   19     -0.26      0.00
    0   19   23      0.88      0.00
    0   18   22      0.83      0.00
    0   17   21     -1.66      0.00
    0   16   20      0.80      0.00
    0   15   19     -0.80      0.00
    0   14   18     -0.33      0.00
    0   13   17      0.38      0.00
    0   12   16      2.33      0.00
    0   11   15     -0.15      0.00
    0   10   14     -2.70      0.00
    0    9   13     -1.36      0.00
    0    8   12      3.54      0.00
    0    7   11     -2.36      0.00
    0    6   10     -0.84      0.00
    0    5    9      5.17      0.00
    0    4    8      6.54      0.00
    0    3    7    -15.50      0.00
    0    2    6     -1.87      0.00
    0    1    5     -9.28      0.00
    0    0    4     41.42      0.00
    0    4    0     63.56      0.00
    0    5    1     -8.70      0.00
    0    6    2    -31.50      0.00
    0    7    3      3.69      0.00
    0    8    4     14.21      0.00
    0    9    5     -2.22      0.00
    0   10    6     -2.82      0.00
    0   11    7     -2.28      0.00
    0   12    8      2.40      0.00
    0   13    9      1.81      0.00
    0   14   10     -1.80      0.00
    0   15   11     -0.82      0.00
    0   16   12      0.79      0.00
    0   17   13     -0.75      0.00
    0   18   14      1.47      0.00
    0   19   15     -0.86      0.00
    0   20   16      0.86      0.00
    0   21   17     -1.44      0.00
    0   18   24     -0.59      0.00
    0   17   23      1.11      0.00
    0   16   22      0.43      0.00
    0   15   21     -0.44      0.00
    0   14   20      0.35      0.00
    0   13   19     -1.00      0.00
    0   12   18     -0.80      0.00
    0   11   17     -0.27      0.00
    0   10   16      3.61      0.00
    0    9   15     -0.26      0.00
    0    8   14     -1.80      0.00
    0    7   13     -2.18      0.00
    0    6   12      3.69      0.00
    0    5   11     -5.26      0.00
    0    4   10      1.87      0.00
    0    3    9      4.15      0.00
    0    2    8     10.81      0.00
    0    1    7    -19.29      0.00
    0    0    6     -1.61      0.00
    0    6    0     43.47      0.00
    0    7    1     -3.69      0.00
    0    8    2    -23.69      0.00
    0    9    3      3.45      0.00
    0   10    4      9.61      0.00
    0   11    5     -0.87      0.00
    0   12    6     -2.69      0.00
    0   13    7     -1.98      0.00
    0   14    8      1.40      0.00
    0   15    9      1.88      0.00
    0   16   10     -0.46      0.00
    0   17   11     -1.16      0.00
    0   18   12      0.62      0.00
    0   19   13     -1.00      0.00
    0   20   14      1.07      0.00
    0   21   15     -0.49      0.00
    0   22   16      1.04      0.00
    0   17   25     -0.96      0.00
    0   16   24     -0.76      0.00
    0   15   23      1.11      0.00
    0   14   22      0.07      0.00
    0   13   21      0.31      0.00
    0   12   20      0.66      0.00
    0   11   19     -1.21      0.00
    0   10   18     -1.50      0.00
    0    9   17     -0.55      0.00
    0    8   16      4.13      0.00
    0    7   15     -0.64      0.00
    0    6   14     -0.48      0.00
    0    5   13     -2.08      0.00
    0    4   12      3.44      0.00
    0    3   11     -8.44      0.00
    0    2   10      5.02      0.00
    0    1    9      2.32      0.00
    0    0    8     12.91      0.00
    0    8    0     29.23      0.00
    0    9    1     -2.09      0.00
    0   10    2    -16.51      0.00
    0   11    3      2.13      0.00
    0   12    4      6.75      0.00
    0   13    5      0.30      0.00
    0   14    6     -2.11      0.00
    0   15    7     -1.91      0.00
    0   16    8      0.61      0.00
    0   17    9      1.27      0.00
    0   18   10      0.47      0.00
    0   19   11     -1.05      0.00
    0   20   12      0.68      0.00
    0   21   13     -0.95      0.00
    0   22   14      0.60      0.00
    0   16   26      0.80      0.00
    0   15   25     -1.34      0.00
    0   14   24     -0.62      0.00
    0   13   23      0.82      0.00
    0   12   22     -0.12      0.00
    0   11   21      0.63      0.00
    0   10   20      1.32      0.00
    0    9   19     -1.24      0.00
    0    8   18     -2.52      0.00
    0    7   17     -0.16      0.00
    0    6   16      3.90      0.00
    0    5   15     -0.90      0.00
    0    4   14      0.31      0.00
    0    3   13     -1.19      0.00
    0    2   12      3.07      0.00
    0    1   11    -10.60      0.00
    0    0   10      6.47      0.00
    0   10    0     20.19      0.00
    0   11    1     -1.49      0.00
    0   12    2    -11.15      0.00
    0   13    3      0.57      0.00
    0   14    4      4.92      0.00
    0   15    5      0.92      0.00
    0   16    6     -1.39      0.00
    0   17    7     -1.54      0.00
    0   18    8      0.31      0.00
    0   19    9      0.29      0.00
    0   20   10      0.80      0.00
    0   21   11     -0.79      0.00
    0   22   12      0.77      0.00
    0   23   13     -0.71      0.00
    0   15   27      0.86      0.00
    0   14   26      1.16      0.00
    0   13   25     -1.73      0.00
    0   12   24     -0.29      0.00
    0   11   23      0.18      0.00
    0   10   22     -0.26      0.00
    0    9   21      1.03      0.00
    0    8   20      1.87      0.00
    0    7   19     -1.16      0.00
    0    6   18     -3.39      0.00
    0    5   17      0.14      0.00
    0    4   16      3.65      0.00
    0    3   15     -0.98      0.00
    0    2   14      0.46      0.00
    0    1   13     -0.36      0.00
    0    0   12      2.91      0.00
    0   12    0     13.80      0.00
    0   13    1     -0.72      0.00
    0   14    2     -7.53      0.00
    0   15    3     -0.48      0.00
    0   16    4      3.49      0.00
    0   17    5      0.99      0.00
    0   18    6     -0.85      0.00
    0   19    7     -0.96      0.00
    0   20    8      0.54      0.00
    0   21    9     -0.71      0.00
    0   22   10      0.84      0.00
    0   23   11     -0.65      0.00
    0   15   29      0.32      0.00
    0   14   28     -0.82      0.00
    0   13   27      0.86      0.00
    0   12   26      1.48      0.00
    0   11   25     -1.71      0.00
    0   10   24      0.06      0.00
    0    9   23     -0.76      0.00
    0    8   22     -0.57      0.00
    0    7   21      1.69      0.00
    0    6   20      2.45      0.00
    0    5   19     -1.50      0.00
    0    4   18     -3.36      0.00
    0    3   17     -0.36      0.00
    0    2   16      3.78      0.00
    0    1   15     -0.98      0.00
    0    0   14      0.43      0.00
    0   14    0      9.14      0.00
    0   15    1     -0.09      0.00
    0   16    2     -5.03      0.00
    0   17    3     -0.79      0.00
    0   18    4      2.22      0.00
    0   19    5      0.62      0.00
    0   20    6     -0.31      0.00
    0   21    7     -0.62      0.00
    0   22    8      1.03      0.00
    0   23    9     -1.28      0.00
    0   24   10      0.69      0.00
    0   14   30     -0.84      0.00
    0   13   29      0.14      0.00
    0   12   28     -0.58      0.00
    0   11   27      0.59      0.00
    0   10   26      1.48      0.00
    0    9   25     -1.00      0.00
    0    8   24      0.37      0.00
    0    7   23     -1.79      0.00
    0    6   22     -1.19      0.00
    0    5   21      2.36      0.00
    0    4   20      3.40      0.00
    0    3   19     -2.48      0.00
    0    2   18     -2.53      0.00
    0    1   17     -1.15      0.00
    0    0   16      3.93      0.00
    0   16    0      6.00      0.00
    0   17    1      0.08      0.00
    0   18    2     -2.91      0.00
    0   19    3     -0.82      0.00
    0   20    4      1.24      0.00
    0   21    5     -0.06      0.00
    0   22    6      0.30      0.00
    0   23    7     -0.49      0.00
    0   24    8      1.13      0.00
    0   12   30     -0.65      0.00
    0   11   29     -0.34      0.00
    0   10   28     -0.41      0.00
    0    9   27      0.40      0.00
    0    8   26      0.99      0.00
    0    7   25      0.16      0.00
    0    6   24      0.76      0.00
    0    5   23     -2.62      0.00
    0    4   22     -2.05      0.00
    0    3   21      2.72      0.00
    0    2   20      4.50      0.00
    0    1   19     -3.42      0.00
    0    0   18     -2.02      0.00
    0   18    0      3.73      0.00
    0   19    1     -0.16      0.00
    0   20    2     -0.65      0.00
    0   21    3     -1.02      0.00
    0   22    4      0.64      0.00
    0   23    5     -0.67      0.00
    0   24    6      0.56      0.00
    0   11   31      0.06      0.00
    0   10   30     -0.17      0.00
    0    9   29     -0.48      0.00
    0    8   28     -0.71      0.00
    0    7   27      0.41      0.00
    0    6   26      0.29      0.00
    0    5   25      1.11      0.00
    0    4   24      1.41      0.00
    0    3   23     -3.14      0.00
    0    2   22     -2.82      0.00
    0    1   21      2.82      0.00
    0    0   20      5.00      0.00
    0   20    0      1.84      0.00
    0   21    1     -0.64      0.00
    0   22    2      1.47      0.00
    0   23    3     -1.18      0.00
    0   24    4      0.16      0.00
    0   10   32      1.19      0.00
    0    9   31     -0.19      0.00
    0    8   30      0.25      0.00
    0    7   29     -0.28      0.00
    0    6   28     -1.04      0.00
    0    5   27      0.22      0.00
    0    4   26     -0.08      0.00
    0    3   25      1.37      0.00
    0    2   24      2.15      0.00
    0    1   23     -3.36      0.00
    0    0   22     -3.14      0.00
    0   22    0      0.25      0.00
    0   23    1     -0.90      0.00
    0   24    2      2.46      0.00
    0    9   33     -0.85      0.00
    0    8   32      1.13      0.00
    0    7   31     -0.13      0.00
    0    6   30      0.52      0.00
    0    5   29     -0.43      0.00
    0    4   28     -0.59      0.00
    0    3   27     -0.46      0.00
    0    2   26      0.03      0.00
    0    1   25      1.21      0.00
    0    0   24      2.49      0.00
    0   24    0     -1.08      0.00
    0   25    1     -0.49      0.00
    0    8   34      0.20      0.00
    0    7   33     -0.95      0.00
    0    6   32      0.63      0.00
    0    5   31      0.38      0.00
    0    4   30      0.77      0.00
    0    3   29     -1.28      0.00
    0    2   28      0.51      0.00
    0    1   27     -1.18      0.00
    0    0   26      0.17      0.00
    0    6   34      0.19      0.00
    0    5   33     -1.02      0.00
    0    4   32      0.02      0.00
    0    3   31      1.12      0.00
    0    2   30      1.01      0.00
    0    1   29     -2.18      0.00
    0    0   28      1.10      0.00
    0    5   35      0.10      0.00
    0    4   34      0.21      0.00
    0    3   33     -1.32      0.00
    0    2   32     -0.39      0.00
    0    1   31      1.67      0.00
    0    0   30      1.12      0.00
    0    3   35      0.12      0.00
    0    2   34      0.34      0.00
    0    1   33     -1.68      0.00
    0    0   32     -0.51      0.00
    0    2   36      1.71      0.00
    0    1   35      0.04      0.00
    0    0   34      0.44      0.00
    0    0   36      2.18      0.00
    1   18   25      0.03      0.00
    1   17   26      0.36      0.00
    1   16   27      0.26      0.00
    1   15   28     -0.12      0.00
    1   14   29     -0.59      0.00
    1   13   30      0.97      0.00
    1   12   31     -0.67      0.00
    1   11   32     -0.52      0.00
    1   10   33      1.03      0.00
    1   20   21      0.92      0.00
    1   19   22      0.57      0.00
    1   18   23     -0.41      0.00
    1   17   24     -0.45      0.00
    1   16   25      0.01      0.00
    1   15   26      0.15      0.00
    1   14   27      0.35      0.00
    1   13   28     -0.77      0.00
    1   12   29      0.74      0.00
    1   11   30      0.52      0.00
    1   10   31     -1.12      0.00
    1    9   32     -0.57      0.00
    1    8   33      1.37      0.00
    1    7   34      0.29      0.00
    1    6   35     -0.83      0.00
    1   22   17      0.28      0.00
    1   21   18      0.38      0.00
    1   20   19     -0.04      0.00
    1   19   20     -1.47      0.00
    1   18   21      0.72      0.00
    1   17   22      1.14      0.00
    1   16   23     -0.73      0.00
    1   15   24     -0.20      0.00
    1   14   25      0.26      0.00
    1   13   26     -0.20      0.00
    1   12   27      0.27      0.00
    1   11   28     -1.39      0.00
    1   10   29      1.96      0.00
    1    9   30      0.20      0.00
    1    8   31     -1.48      0.00
    1    7   32     -0.49      0.00
    1    6   33      1.27      0.00
    1    5   34      0.63      0.00
    1    4   35     -0.65      0.00
    1   23   14     -0.62      0.00
    1   22   15      0.45      0.00
    1   21   16     -0.30      0.00
    1   20   17     -0.04      0.00
    1   19   18      0.87      0.00
    1   18   19      0.06      0.00
    1   17   20     -1.45      0.00
    1   16   21      0.03      0.00
    1   15   22      1.47      0.00
    1   14   23     -0.86      0.00
    1   13   24     -0.01      0.00
    1   12   25      0.64      0.00
    1   11   26     -0.37      0.00
    1   10   27     -0.22      0.00
    1    9   28     -1.25      0.00
    1    8   29      2.18      0.00
    1    7   30      0.13      0.00
    1    6   31     -1.40      0.00
    1    5   32     -0.43      0.00
    1    4   33      0.81      0.00
    1    3   34      1.03      0.00
    1    2   35     -0.35      0.00
    1    1   36     -1.92      0.00
    1   23   12      0.10      0.00
    1   22   13      0.27      0.00
    1   21   14     -0.57      0.00
    1   20   15      0.32      0.00
    1   19   16     -0.38      0.00
    1   18   17     -0.19      0.00
    1   17   18      0.87      0.00
    1   16   19      0.49      0.00
    1   15   20     -1.07      0.00
    1   14   21     -0.67      0.00
    1   13   22      1.29      0.00
    1   12   23     -0.69      0.00
    1   11   24      0.03      0.00
    1   10   25      0.88      0.00
    1    9   26     -0.17      0.00
    1    8   27     -0.97      0.00
    1    7   28     -0.45      0.00
    1    6   29      1.50      0.00
    1    5   30      0.18      0.00
    1    4   31     -0.99      0.00
    1    3   32     -0.39      0.00
    1    2   33      0.29      0.00
    1    1   34      1.31      0.00
    1    0   35     -0.21      0.00
    1   24    9      0.05      0.00
    1   23   10     -0.49      0.00
    1   22   11      0.43      0.00
    1   21   12     -0.15      0.00
    1   20   13      0.46      0.00
    1   19   14     -0.45      0.00
    1   18   15      0.37      0.00
    1   17   16     -0.62      0.00
    1   16   17     -0.28      0.00
    1   15   18      0.41      0.00
    1   14   19      1.22      0.00
    1   13   20     -0.77      0.00
    1   12   21     -0.89      0.00
    1   11   22      0.62      0.00
    1   10   23     -0.20      0.00
    1    9   24     -0.07      0.00
    1    8   25      0.64      0.00
    1    7   26      0.33      0.00
    1    6   27     -1.24      0.00
    1    5   28      0.10      0.00
    1    4   29      0.65      0.00
    1    3   30      0.26      0.00
    1    2   31     -0.59      0.00
    1    1   32     -0.38      0.00
    1    0   33      0.07      0.00
    1   24    7     -0.61      0.00
    1   23    8      0.69      0.00
    1   22    9     -0.23      0.00
    1   21   10     -0.61      0.00
    1   20   11      0.70      0.00
    1   19   12     -0.51      0.00
    1   18   13      0.41      0.00
    1   17   14      0.04      0.00
    1   16   15      0.43      0.00
    1   15   16     -0.77      0.00
    1   14   17     -0.39      0.00
    1   13   18     -0.29      0.00
    1   12   19      2.00      0.00
    1   11   20     -0.75      0.00
    1   10   21     -0.58      0.00
    1    9   22     -0.19      0.00
    1    8   23      0.47      0.00
    1    7   24     -0.18      0.00
    1    6   25     -0.16      0.00
    1    5   26      0.76      0.00
    1    4   27     -0.49      0.00
    1    3   28     -0.17      0.00
    1    2   29      0.15      0.00
    1    1   30      0.34      0.00
    1    0   31     -0.44      0.00
    1   24    5     -0.65      0.00
    1   23    6      0.43      0.00
    1   22    7     -0.50      0.00
    1   21    8      0.85      0.00
    1   20    9     -0.42      0.00
    1   19   10     -0.41      0.00
    1   18   11      0.68      0.00
    1   17   12     -0.68      0.00
    1   16   13     -0.24      0.00
    1   15   14      1.05      0.00
    1   14   15      0.35      0.00
    1   13   16     -0.90      0.00
    1   12   17     -0.31      0.00
    1   11   18     -0.82      0.00
    1   10   19      2.29      0.00
    1    9   20     -0.86      0.00
    1    8   21     -0.16      0.00
    1    7   22     -0.60      0.00
    1    6   23      1.07      0.00
    1    5   24     -0.26      0.00
    1    4   25     -1.21      0.00
    1    3   26      0.84      0.00
    1    2   27      0.80      0.00
    1    1   28     -0.73      0.00
    1    0   29      0.01      0.00
    1   24    3      0.45      0.00
    1   23    4      0.74      0.00
    1   22    5     -1.01      0.00
    1   21    6      0.49      0.00
    1   20    7     -0.41      0.00
    1   19    8      0.62      0.00
    1   18    9     -0.40      0.00
    1   17   10      0.14      0.00
    1   16   11      0.39      0.00
    1   15   12     -0.68      0.00
    1   14   13     -1.11      0.00
    1   13   14      2.05      0.00
    1   12   15      0.33      0.00
    1   11   16     -1.29      0.00
    1   10   17     -0.02      0.00
    1    9   18     -0.55      0.00
    1    8   19      1.64      0.00
    1    7   20     -0.92      0.00
    1    6   21     -0.10      0.00
    1    5   22     -0.22      0.00
    1    4   23      1.42      0.00
    1    3   24     -0.34      0.00
    1    2   25     -2.03      0.00
    1    1   26      0.72      0.00
    1    0   27      1.45      0.00
    1   25    0      1.95      0.00
    1   24    1     -0.83      0.00
    1   23    2     -0.87      0.00
    1   22    3      0.51      0.00
    1   21    4      0.64      0.00
    1   20    5     -0.92      0.00
    1   19    6      0.67      0.00
    1   18    7     -0.41      0.00
    1   17    8      0.05      0.00
    1   16    9     -0.15      0.00
    1   15   10      0.76      0.00
    1   14   11      0.08      0.00
    1   13   12     -1.00      0.00
    1   12   13     -1.10      0.00
    1   11   14      2.22      0.00
    1   10   15      0.53      0.00
    1    9   16     -1.87      0.00
    1    8   17      0.17      0.00
    1    7   18      0.71      0.00
    1    6   19      0.38      0.00
    1    5   20     -1.01      0.00
    1    4   21     -0.56      0.00
    1    3   22      0.77      0.00
    1    2   23      1.55      0.00
    1    1   24     -0.41      0.00
    1    0   25     -2.32      0.00
    1   23    0      2.00      0.00
    1   22    1     -0.70      0.00
    1   21    2     -0.47      0.00
    1   20    3      0.22      0.00
    1   19    4      0.10      0.00
    1   18    5     -0.43      0.00
    1   17    6      0.90      0.00
    1   16    7     -0.53      0.00
    1   15    8     -0.82      0.00
    1   14    9      0.70      0.00
    1   13   10      1.01      0.00
    1   12   11     -0.04      0.00
    1   11   12     -2.13      0.00
    1   10   13      0.45      0.00
    1    9   14      1.48      0.00
    1    8   15      0.53      0.00
    1    7   16     -2.28      0.00
    1    6   17      0.22      0.00
    1    5   18      2.24      0.00
    1    4   19     -0.63      0.00
    1    3   20     -1.21      0.00
    1    2   21     -1.23      0.00
    1    1   22      1.61      0.00
    1    0   23      1.56      0.00
    1   21    0      1.30      0.00
    1   20    1     -0.54      0.00
    1   19    2      0.62      0.00
    1   18    3     -0.43      0.00
    1   17    4     -0.48      0.00
    1   16    5      0.30      0.00
    1   15    6      1.01      0.00
    1   14    7     -0.69      0.00
    1   13    8     -2.11      0.00
    1   12    9      2.25      0.00
    1   11   10      0.99      0.00
    1   10   11     -0.07      0.00
    1    9   12     -3.94      0.00
    1    8   13      2.92      0.00
    1    7   14      0.84      0.00
    1    6   15     -0.28      0.00
    1    5   16     -2.43      0.00
    1    4   17      0.55      0.00
    1    3   18      3.07      0.00
    1    2   19     -0.96      0.00
    1    1   20     -1.42      0.00
    1    0   21     -1.55      0.00
    1   19    0      0.06      0.00
    1   18    1     -0.32      0.00
    1   17    2      1.73      0.00
    1   16    3     -1.23      0.00
    1   15    4     -0.87      0.00
    1   14    5      1.36      0.00
    1   13    6      0.83      0.00
    1   12    7     -0.80      0.00
    1   11    8     -3.49      0.00
    1   10    9      3.55      0.00
    1    9   10      1.48      0.00
    1    8   11     -0.37      0.00
    1    7   12     -5.61      0.00
    1    6   13      4.83      0.00
    1    5   14      1.32      0.00
    1    4   15     -1.88      0.00
    1    3   16     -2.55      0.00
    1    2   17      1.25      0.00
    1    1   18      3.18      0.00
    1    0   19     -0.97      0.00
    1   17    0     -1.30      0.00
    1   16    1      0.23      0.00
    1   15    2      2.22      0.00
    1   14    3     -2.03      0.00
    1   13    4     -1.29      0.00
    1   12    5      2.98      0.00
    1   11    6      0.30      0.00
    1   10    7     -0.94      0.00
    1    9    8     -4.05      0.00
    1    8    9      3.32      0.00
    1    7   10      2.88      0.00
    1    6   11     -1.12      0.00
    1    5   12     -6.23      0.00
    1    4   13      5.23      0.00
    1    3   14      2.80      0.00
    1    2   15     -3.48      0.00
    1    1   16     -2.69      0.00
    1    0   17      1.65      0.00
    1   15    0     -2.86      0.00
    1   14    1      1.50      0.00
    1   13    2      2.14      0.00
    1   12    3     -2.79      0.00
    1   11    4     -2.19      0.00
    1   10    5      5.08      0.00
    1    9    6     -0.42      0.00
    1    8    7     -1.08      0.00
    1    7    8     -3.60      0.00
    1    6    9      1.94      0.00
    1    5   10      4.38      0.00
    1    4   11     -2.08      0.00
    1    3   12     -5.75      0.00
    1    2   13      4.58      0.00
    1    1   14      4.10      0.00
    1    0   15     -4.14      0.00
    1   13    0     -4.99      0.00
    1   12    1      3.24      0.00
    1   11    2      2.26      0.00
    1   10    3     -3.43      0.00
    1    9    4     -3.71      0.00
    1    8    5      7.10      0.00
    1    7    6     -1.08      0.00
    1    6    7     -0.81      0.00
    1    5    8     -3.36      0.00
    1    4    9      1.20      0.00
    1    3   10      4.99      0.00
    1    2   11     -2.86      0.00
    1    1   12     -5.04      0.00
    1    0   13      4.15      0.00
    1   11    0     -7.37      0.00
    1   10    1      4.43      0.00
    1    9    2      3.24      0.00
    1    8    3     -3.75      0.00
    1    7    4     -5.54      0.00
    1    6    5      8.38      0.00
    1    5    6     -1.54      0.00
    1    4    7      0.28      0.00
    1    3    8     -4.39      0.00
    1    2    9      1.76      0.00
    1    1   10      4.86      0.00
    1    0   11     -3.15      0.00
    1    9    0     -9.05      0.00
    1    8    1      4.49      0.00
    1    7    2      4.89      0.00
    1    6    3     -3.69      0.00
    1    4    5      8.73      0.00
    1    3    6     -1.80      0.00
    1    2    7      1.80      0.00
    1    1    8     -5.77      0.00
    1    0    9      2.29      0.00
    1    7    0    -10.40      0.00
    1    6    1      4.57      0.00
    1    5    2      6.32      0.00
    1    4    3     -3.43      0.00
    1    3    4     -8.26      0.00
    1    2    5      8.56      0.00
    1    1    6     -1.93      0.00
    1    0    7      2.53      0.00
    1    5    0    -13.45      0.00
    1    4    1      6.33      0.00
    1    3    2      6.91      0.00
    1    2    3     -3.23      0.00
    1    1    4     -8.76      0.00
    1    0    5      8.42      0.00
    1    3    0    -18.83      0.00
    1    2    1      9.31      0.00
    1    1    2      6.91      0.00
    1    0    3     -3.17      0.00
    1    5    4     -7.18      0.00
    1    1    0    -23.49      0.00
    1    0    1     10.84      0.00
    2   19   23     -1.07      0.00
    2   18   24      0.34      0.00
    2   17   25      0.95      0.00
    2   16   26      0.20      0.00
    2   15   27     -0.71      0.00
    2   14   28     -0.53      0.00
    2   13   29     -0.05      0.00
    2   12   30      0.56      0.00
    2   11   31      0.54      0.00
    2   10   32      0.62      0.00
    2    9   33     -2.34      0.00
    2    8   34      0.43      0.00
    2   21   19     -1.41      0.00
    2   20   20      1.46      0.00
    2   19   21     -0.33      0.00
    2   18   22      0.03      0.00
    2   17   23     -0.96      0.00
    2   16   24      0.07      0.00
    2   15   25      0.80      0.00
    2   14   26      0.48      0.00
    2   13   27     -0.40      0.00
    2   12   28     -0.01      0.00
    2   11   29     -1.55      0.00
    2   10   30      0.78      0.00
    2    9   31      1.42      0.00
    2    8   32      0.51      0.00
    2    7   33     -2.56      0.00
    2    6   34     -0.14      0.00
    2    5   35      2.06      0.00
    2   22   16      0.76      0.00
    2   21   17     -0.85      0.00
    2   20   18      0.48      0.00
    2   19   19     -1.00      0.00
    2   18   20      1.42      0.00
    2   17   21     -0.13      0.00
    2   16   22     -0.11      0.00
    2   15   23     -0.79      0.00
    2   14   24     -0.04      0.00
    2   13   25      0.24      0.00
    2   12   26      0.58      0.00
    2   11   27      0.28      0.00
    2   10   28      0.35      0.00
    2    9   29     -2.46      0.00
    2    8   30      0.45      0.00
    2    7   31      2.24      0.00
    2    6   32      0.26      0.00
    2    5   33     -2.20      0.00
    2    4   34     -0.90      0.00
    2    3   35      2.31      0.00
    2   23   13     -0.49      0.00
    2   22   14      0.19      0.00
    2   21   15     -0.16      0.00
    2   20   16      1.07      0.00
    2   19   17     -0.95      0.00
    2   18   18     -0.31      0.00
    2   17   19     -0.16      0.00
    2   16   20      0.72      0.00
    2   15   21      0.36      0.00
    2   14   22     -0.12      0.00
    2   13   23     -0.61      0.00
    2   12   24      0.02      0.00
    2   11   25     -0.39      0.00
    2   10   26      0.29      0.00
    2    9   27      1.25      0.00
    2    8   28      0.04      0.00
    2    7   29     -2.12      0.00
    2    6   30     -0.36      0.00
    2    5   31      2.71      0.00
    2    4   32     -0.01      0.00
    2    3   33     -1.57      0.00
    2    2   34     -1.52      0.00
    2    1   35      2.33      0.00
    2   23   11     -0.73      0.00
    2   22   12      0.82      0.00
    2   21   13     -0.76      0.00
    2   20   14     -0.29      0.00
    2   19   15      0.25      0.00
    2   18   16      1.37      0.00
    2   17   17     -0.84      0.00
    2   16   18     -0.96      0.00
    2   15   19      0.53      0.00
    2   14   20     -0.16      0.00
    2   13   21      0.74      0.00
    2   12   22      0.01      0.00
    2   11   23     -0.41      0.00
    2   10   24      0.12      0.00
    2    9   25     -0.68      0.00
    2    8   26     -0.26      0.00
    2    7   27      1.96      0.00
    2    6   28     -0.55      0.00
    2    5   29     -0.96      0.00
    2    4   30     -1.28      0.00
    2    3   31      2.87      0.00
    2    2   32     -0.20      0.00
    2    1   33     -1.12      0.00
    2    0   34     -1.75      0.00
    2   24    8      0.58      0.00
    2   23    9     -0.87      0.00
    2   22   10      0.88      0.00
    2   21   11     -0.85      0.00
    2   20   12      1.46      0.00
    2   19   13     -1.07      0.00
    2   18   14     -0.81      0.00
    2   17   15      0.49      0.00
    2   16   16      1.36      0.00
    2   15   17     -0.41      0.00
    2   14   18     -1.12      0.00
    2   13   19      0.69      0.00
    2   12   20     -0.77      0.00
    2   11   21      0.82      0.00
    2   10   22      0.15      0.00
    2    9   23     -0.16      0.00
    2    8   24      0.10      0.00
    2    7   25     -0.44      0.00
    2    6   26     -0.68      0.00
    2    5   27      1.65      0.00
    2    4   28     -0.66      0.00
    2    3   29      0.15      0.00
    2    2   30     -1.98      0.00
    2    1   31      2.90      0.00
    2    0   32     -0.27      0.00
    2   24    6     -0.10      0.00
    2   23    7     -0.62      0.00
    2   22    8      0.57      0.00
    2   21    9     -0.40      0.00
    2   20   10      0.18      0.00
    2   19   11     -0.63      0.00
    2   18   12      1.88      0.00
    2   17   13     -0.93      0.00
    2   16   14     -1.35      0.00
    2   15   15      0.60      0.00
    2   14   16      0.88      0.00
    2   13   17      0.11      0.00
    2   12   18     -0.71      0.00
    2   11   19      0.53      0.00
    2   10   20     -1.06      0.00
    2    9   21      0.68      0.00
    2    8   22      0.06      0.00
    2    7   23      0.12      0.00
    2    6   24     -0.03      0.00
    2    5   25      0.14      0.00
    2    4   26     -0.58      0.00
    2    3   27      0.35      0.00
    2    2   28     -0.20      0.00
    2    1   29      0.73      0.00
    2    0   30     -2.23      0.00
    2   24    4      0.20      0.00
    2   23    5      0.81      0.00
    2   22    6     -0.03      0.00
    2   21    7     -0.63      0.00
    2   20    8      0.33      0.00
    2   19    9      0.17      0.00
    2   18   10     -0.73      0.00
    2   17   11     -0.17      0.00
    2   16   12      1.61      0.00
    2   15   13     -0.11      0.00
    2   14   14     -1.77      0.00
    2   13   15      0.65      0.00
    2   12   16      0.19      0.00
    2   11   17      0.38      0.00
    2   10   18     -0.29      0.00
    2    9   19      0.67      0.00
    2    8   20     -1.12      0.00
    2    7   21      0.50      0.00
    2    6   22     -0.42      0.00
    2    5   23      0.38      0.00
    2    4   24     -0.10      0.00
    2    3   25      0.64      0.00
    2    2   26     -0.09      0.00
    2    1   27     -0.88      0.00
    2    0   28      0.11      0.00
    2   24    2      1.06      0.00
    2   23    3     -1.52      0.00
    2   22    4     -0.13      0.00
    2   21    5      1.00      0.00
    2   20    6     -0.14      0.00
    2   19    7     -0.24      0.00
    2   18    8      0.05      0.00
    2   17    9      0.62      0.00
    2   16   10     -1.50      0.00
    2   15   11      0.46      0.00
    2   14   12      0.70      0.00
    2   13   13      0.81      0.00
    2   12   14     -1.73      0.00
    2   11   15      0.62      0.00
    2   10   16     -0.34      0.00
    2    9   17      0.40      0.00
    2    8   18     -0.45      0.00
    2    7   19      1.21      0.00
    2    6   20     -0.77      0.00
    2    5   21      0.38      0.00
    2    4   22     -1.22      0.00
    2    3   23      0.53      0.00
    2    2   24     -0.02      0.00
    2    1   25      0.87      0.00
    2    0   26      0.18      0.00
    2   24    0     -0.48      0.00
    2   23    1      0.01      0.00
    2   22    2      1.47      0.00
    2   21    3     -1.39      0.00
    2   20    4     -0.32      0.00
    2   19    5      0.67      0.00
    2   18    6     -0.15      0.00
    2   17    7      0.25      0.00
    2   16    8     -0.16      0.00
    2   15    9      0.72      0.00
    2   14   10     -1.91      0.00
    2   13   11      1.29      0.00
    2   12   12     -0.28      0.00
    2   11   13      0.89      0.00
    2   10   14     -1.09      0.00
    2    9   15      0.72      0.00
    2    8   16     -0.61      0.00
    2    7   17      0.21      0.00
    2    6   18     -0.97      0.00
    2    5   19      1.48      0.00
    2    4   20      0.15      0.00
    2    3   21      0.31      0.00
    2    2   22     -2.00      0.00
    2    1   23      0.59      0.00
    2    0   24      0.05      0.00
    2   22    0     -0.95      0.00
    2   21    1      0.21      0.00
    2   20    2      1.24      0.00
    2   19    3     -0.84      0.00
    2   18    4     -0.28      0.00
    2   17    5     -0.07      0.00
    2   16    6      0.07      0.00
    2   15    7      0.68      0.00
    2   14    8     -0.08      0.00
    2   13    9      0.11      0.00
    2   12   10     -2.01      0.00
    2   11   11      2.34      0.00
    2   10   12     -0.68      0.00
    2    9   13     -0.24      0.00
    2    8   14     -0.35      0.00
    2    7   15      1.36      0.00
    2    6   16     -0.56      0.00
    2    5   17     -0.58      0.00
    2    4   18     -0.94      0.00
    2    3   19      0.98      0.00
    2    2   20      1.26      0.00
    2    1   21      0.28      0.00
    2    0   22     -2.33      0.00
    2   20    0     -1.37      0.00
    2   19    1      0.47      0.00
    2   18    2      0.90      0.00
    2   17    3     -0.30      0.00
    2   16    4     -0.32      0.00
    2   15    5     -0.76      0.00
    2   14    6      0.25      0.00
    2   13    7      1.19      0.00
    2   12    8      0.36      0.00
    2   11    9     -1.10      0.00
    2   10   10     -2.21      0.00
    2    9   11      3.63      0.00
    2    8   12     -0.33      0.00
    2    7   13     -2.01      0.00
    2    6   14     -0.32      0.00
    2    5   15      2.64      0.00
    2    4   16     -0.05      0.00
    2    3   17     -2.11      0.00
    2    2   18     -0.21      0.00
    2    1   19      0.27      0.00
    2    0   20      1.77      0.00
    2   18    0     -1.66      0.00
    2   17    1      0.48      0.00
    2   16    2      1.18      0.00
    2   15    3      0.03      0.00
    2   14    4     -0.76      0.00
    2   13    5     -1.16      0.00
    2   12    6      0.12      0.00
    2   11    7      2.17      0.00
    2   10    8      0.65      0.00
    2    9    9     -2.22      0.00
    2    8   10     -2.80      0.00
    2    7   11      5.00      0.00
    2    6   12      0.40      0.00
    2    5   13     -3.49      0.00
    2    4   14     -1.24      0.00
    2    3   15      4.11      0.00
    2    2   16      0.74      0.00
    2    1   17     -3.48      0.00
    2    0   18      0.25      0.00
    2   16    0     -2.01      0.00
    2   15    1      0.14      0.00
    2   14    2      2.17      0.00
    2   13    3      0.38      0.00
    2   12    4     -1.58      0.00
    2   11    5     -1.41      0.00
    2   10    6     -0.40      0.00
    2    9    7      3.89      0.00
    2    8    8      0.39      0.00
    2    7    9     -3.20      0.00
    2    6   10     -3.25      0.00
    2    5   11      6.10      0.00
    2    4   12      1.06      0.00
    2    3   13     -4.23      0.00
    2    2   14     -2.44      0.00
    2    1   15      5.06      0.00
    2    0   16      1.14      0.00
    2   14    0     -2.58      0.00
    2   13    1     -0.29      0.00
    2   12    2      3.25      0.00
    2   11    3      1.04      0.00
    2   10    4     -2.56      0.00
    2    9    5     -1.70      0.00
    2    8    6     -1.09      0.00
    2    7    7      5.78      0.00
    2    6    8      0.50      0.00
    2    5    9     -5.18      0.00
    2    4   10     -2.67      0.00
    2    3   11      6.65      0.00
    2    2   12      1.41      0.00
    2    1   13     -4.43      0.00
    2    0   14     -2.98      0.00
    2   12    0     -3.74      0.00
    2   11    1     -0.06      0.00
    2   10    2      3.87      0.00
    2    9    3      1.82      0.00
    2    8    4     -3.49      0.00
    2    7    5     -1.98      0.00
    2    6    6     -1.53      0.00
    2    5    7      6.63      0.00
    2    4    8      2.36      0.00
    2    3    9     -8.63      0.00
    2    2   10     -1.27      0.00
    2    1   11      6.78      0.00
    2    0   12      1.50      0.00
    2   10    0     -6.35      0.00
    2    9    1      1.33      0.00
    2    8    2      4.57      0.00
    2    7    3      1.88      0.00
    2    6    4     -4.20      0.00
    2    5    5     -2.13      0.00
    2    4    6     -1.40      0.00
    2    3    7      5.90      0.00
    2    2    8      5.38      0.00
    2    1    9    -11.66      0.00
    2    0   10     -0.50      0.00
    2    8    0    -10.44      0.00
    2    7    1      2.79      0.00
    2    6    2      6.89      0.00
    2    5    3      0.47      0.00
    2    4    4     -4.56      0.00
    2    3    5     -2.18      0.00
    2    2    6     -0.89      0.00
    2    1    7      4.73      0.00
    2    0    8      6.92      0.00
    2    6    0    -13.87      0.00
    2    5    1      1.97      0.00
    2    4    2     11.54      0.00
    2    3    3     -2.01      0.00
    2    2    4     -4.62      0.00
    2    1    5     -2.19      0.00
    2    0    6     -0.60      0.00
    2    4    0    -13.96      0.00
    2    3    1     -1.74      0.00
    2    2    2     16.72      0.00
    2    1    3     -4.01      0.00
    2    2    0    -11.28      0.00
    2    1    1     -5.43      0.00
    2    0    2     19.02      0.00
    2    0    0     -9.62      0.00
    2    0    4     -4.59      0.00
    3   16   27     -0.09      0.00
    3   15   28      0.72      0.00
    3   14   29      0.08      0.00
    3   13   30      0.05      0.00
    3   12   31     -0.55      0.00
    3   19   22     -0.78      0.00
    3   18   23      0.41      0.00
    3   17   24      1.05      0.00
    3   16   25     -0.50      0.00
    3   15   26     -0.75      0.00
    3   14   27     -0.16      0.00
    3   13   28      0.54      0.00
    3   12   29      0.34      0.00
    3   11   30     -0.09      0.00
    3   10   31     -0.36      0.00
    3    9   32      0.26      0.00
    3    8   33     -0.25      0.00
    3    7   34      0.60      0.00
    3   21   18      0.40      0.00
    3   20   19     -0.77      0.00
    3   19   20      0.52      0.00
    3   18   21      0.03      0.00
    3   17   22     -0.96      0.00
    3   16   23      0.21      0.00
    3   15   24      1.30      0.00
    3   14   25     -0.21      0.00
    3   13   26     -0.83      0.00
    3   12   27     -0.16      0.00
    3   11   28      0.23      0.00
    3   10   29      0.47      0.00
    3    9   30     -0.30      0.00
    3    8   31     -0.19      0.00
    3    7   32      0.22      0.00
    3    6   33      0.51      0.00
    3    5   34      0.19      0.00
    3    4   35     -2.25      0.00
    3   22   15     -1.10      0.00
    3   21   16      0.51      0.00
    3   20   17      0.10      0.00
    3   19   18      0.39      0.00
    3   18   19     -0.71      0.00
    3   17   20      0.84      0.00
    3   16   21     -0.22      0.00
    3   15   22     -0.77      0.00
    3   14   23     -0.34      0.00
    3   13   24      1.34      0.00
    3   12   25      0.04      0.00
    3   11   26     -0.69      0.00
    3   10   27     -0.11      0.00
    3    9   28      0.27      0.00
    3    8   29      0.22      0.00
    3    7   30     -0.49      0.00
    3    6   31     -0.30      0.00
    3    5   32      0.25      0.00
    3    4   33      1.53      0.00
    3    3   34     -0.14      0.00
    3    2   35     -3.02      0.00
    3   23   12      0.26      0.00
    3   22   13      0.41      0.00
    3   21   14      0.53      0.00
    3   20   15     -1.40      0.00
    3   19   16      0.49      0.00
    3   18   17      0.24      0.00
    3   17   18      0.03      0.00
    3   16   19     -0.62      0.00
    3   15   20      1.07      0.00
    3   14   21     -0.26      0.00
    3   13   22     -0.32      0.00
    3   12   23     -0.86      0.00
    3   11   24      1.13      0.00
    3   10   25      0.04      0.00
    3    9   26     -0.38      0.00
    3    8   27     -0.18      0.00
    3    7   28      0.73      0.00
    3    6   29      0.00      0.00
    3    5   30     -0.74      0.00
    3    4   31     -0.76      0.00
    3    3   32      0.34      0.00
    3    2   33      2.46      0.00
    3    1   34     -0.34      0.00
    3    0   35     -3.32      0.00
    3   23   10      0.87      0.00
    3   22   11     -1.08      0.00
    3   21   12     -0.11      0.00
    3   20   13      0.80      0.00
    3   19   14      0.41      0.00
    3   18   15     -1.27      0.00
    3   17   16      0.35      0.00
    3   16   17      0.59      0.00
    3   15   18     -0.39      0.00
    3   14   19     -0.58      0.00
    3   13   20      0.82      0.00
    3   12   21      0.07      0.00
    3   11   22      0.03      0.00
    3   10   23     -0.86      0.00
    3    9   24      0.66      0.00
    3    8   25     -0.21      0.00
    3    7   26     -0.09      0.00
    3    6   27     -0.29      0.00
    3    5   28      1.06      0.00
    3    4   29      0.34      0.00
    3    3   30     -1.11      0.00
    3    2   31     -1.30      0.00
    3    1   32      0.41      0.00
    3    0   33      2.85      0.00
    3   24    7      0.32      0.00
    3   23    8     -0.70      0.00
    3   22    9      0.05      0.00
    3   21   10      0.91      0.00
    3   20   11     -0.71      0.00
    3   19   12     -0.52      0.00
    3   18   13      0.94      0.00
    3   17   14      0.32      0.00
    3   16   15     -1.22      0.00
    3   15   16      0.19      0.00
    3   14   17      1.15      0.00
    3   13   18     -0.67      0.00
    3   12   19     -0.58      0.00
    3   11   20      0.22      0.00
    3   10   21      0.50      0.00
    3    9   22      0.10      0.00
    3    8   23     -0.25      0.00
    3    7   24      0.06      0.00
    3    6   25     -0.36      0.00
    3    5   26     -0.14      0.00
    3    4   27     -0.14      0.00
    3    3   28      0.84      0.00
    3    2   29      1.13      0.00
    3    1   30     -1.41      0.00
    3    0   31     -1.54      0.00
    3   24    5      0.14      0.00
    3   23    6      0.29      0.00
    3   22    7      0.21      0.00
    3   21    8     -0.46      0.00
    3   20    9     -0.29      0.00
    3   19   10      0.60      0.00
    3   18   11     -0.11      0.00
    3   17   12     -0.50      0.00
    3   16   13      0.48      0.00
    3   15   14      0.82      0.00
    3   14   15     -1.65      0.00
    3   13   16     -0.04      0.00
    3   12   17      1.87      0.00
    3   11   18     -0.77      0.00
    3   10   19     -0.62      0.00
    3    9   20     -0.34      0.00
    3    8   21      0.69      0.00
    3    7   22      0.08      0.00
    3    6   23      0.45      0.00
    3    5   24     -0.51      0.00
    3    4   25     -0.09      0.00
    3    3   26     -0.65      0.00
    3    2   27      0.27      0.00
    3    1   28      0.40      0.00
    3    0   29      1.55      0.00
    3   24    3      0.74      0.00
    3   23    4     -0.72      0.00
    3   22    5     -0.18      0.00
    3   21    6      0.56      0.00
    3   20    7      0.32      0.00
    3   19    8     -0.12      0.00
    3   18    9     -0.76      0.00
    3   17   10      0.39      0.00
    3   16   11      0.04      0.00
    3   15   12      0.04      0.00
    3   14   13     -0.30      0.00
    3   13   14      1.60      0.00
    3   12   15     -2.15      0.00
    3   11   16     -0.38      0.00
    3   10   17      2.37      0.00
    3    9   18     -0.54      0.00
    3    8   19     -0.74      0.00
    3    7   20     -0.71      0.00
    3    6   21      0.62      0.00
    3    5   22      0.35      0.00
    3    4   23      0.65      0.00
    3    3   24     -0.93      0.00
    3    2   25      0.50      0.00
    3    1   26     -1.20      0.00
    3    0   27      0.50      0.00
    3   24    1      0.38      0.00
    3   23    2     -0.59      0.00
    3   22    3      0.92      0.00
    3   21    4     -0.69      0.00
    3   20    5     -0.73      0.00
    3   19    6      0.57      0.00
    3   18    7      0.77      0.00
    3   17    8      0.06      0.00
    3   16    9     -1.19      0.00
    3   15   10      0.60      0.00
    3   14   11     -0.39      0.00
    3   13   12      0.59      0.00
    3   12   13     -0.52      0.00
    3   11   14      1.55      0.00
    3   10   15     -2.00      0.00
    3    9   16     -0.55      0.00
    3    8   17      2.11      0.00
    3    7   18      0.10      0.00
    3    6   19     -0.83      0.00
    3    5   20     -1.11      0.00
    3    4   21      0.46      0.00
    3    3   22      0.98      0.00
    3    2   23      0.38      0.00
    3    1   24     -1.16      0.00
    3    0   25      0.80      0.00
    3   23    0     -0.67      0.00
    3   22    1      0.64      0.00
    3   21    2     -0.33      0.00
    3   20    3      0.99      0.00
    3   19    4     -0.51      0.00
    3   18    5     -1.44      0.00
    3   17    6      0.71      0.00
    3   16    7      1.20      0.00
    3   15    8     -0.21      0.00
    3   14    9     -1.15      0.00
    3   13   10      0.82      0.00
    3   12   11     -0.75      0.00
    3   11   12      0.59      0.00
    3   10   13      0.35      0.00
    3    9   14      0.10      0.00
    3    8   15     -1.20      0.00
    3    7   16     -0.17      0.00
    3    6   17      1.19      0.00
    3    5   18      0.79      0.00
    3    4   19     -0.71      0.00
    3    3   20     -1.65      0.00
    3    2   21      0.37      0.00
    3    1   22      1.54      0.00
    3    0   23      0.18      0.00
    3   21    0     -1.11      0.00
    3   20    1      0.43      0.00
    3   19    2      0.03      0.00
    3   18    3      1.24      0.00
    3   17    4     -0.33      0.00
    3   16    5     -2.52      0.00
    3   15    6      1.56      0.00
    3   14    7      1.45      0.00
    3   13    8     -1.23      0.00
    3   12    9     -0.32      0.00
    3   11   10      0.43      0.00
    3   10   11     -0.51      0.00
    3    9   12      0.25      0.00
    3    8   13      1.65      0.00
    3    7   14     -1.86      0.00
    3    6   15     -0.53      0.00
    3    5   16      0.63      0.00
    3    4   17      0.37      0.00
    3    3   18      1.08      0.00
    3    2   19     -0.40      0.00
    3    1   20     -2.10      0.00
    3    0   21      0.35      0.00
    3   19    0     -0.99      0.00
    3   18    1     -0.12      0.00
    3   17    2      0.33      0.00
    3   16    3      1.67      0.00
    3   15    4     -0.23      0.00
    3   14    5     -3.92      0.00
    3   13    6      2.86      0.00
    3   12    7      1.87      0.00
    3   11    8     -2.62      0.00
    3   10    9      0.57      0.00
    3    9   10     -0.37      0.00
    3    8   11      0.09      0.00
    3    7   12      0.42      0.00
    3    6   13      2.04      0.00
    3    5   14     -2.83      0.00
    3    4   15     -0.66      0.00
    3    3   16      1.36      0.00
    3    2   17      0.12      0.00
    3    1   18      1.04      0.00
    3    0   19     -0.24      0.00
    3   17    0     -0.45      0.00
    3   16    1     -0.85      0.00
    3   15    2      0.60      0.00
    3   14    3      2.31      0.00
    3   13    4     -0.56      0.00
    3   12    5     -4.97      0.00
    3   11    6      3.80      0.00
    3   10    7      2.48      0.00
    3    9    8     -3.15      0.00
    3    8    9      0.33      0.00
    3    7   10     -0.88      0.00
    3    6   11      0.34      0.00
    3    5   12      1.70      0.00
    3    4   13      0.91      0.00
    3    3   14     -2.34      0.00
    3    2   15     -1.33      0.00
    3    1   16      1.71      0.00
    3    0   17      0.14      0.00
    3   15    0      0.14      0.00
    3   14    1     -1.43      0.00
    3   13    2      0.70      0.00
    3   12    3      3.47      0.00
    3   11    4     -1.83      0.00
    3   10    5     -5.17      0.00
    3    9    6      4.28      0.00
    3    8    7      2.69      0.00
    3    7    8     -2.35      0.00
    3    6    9     -0.94      0.00
    3    5   10     -0.96      0.00
    3    4   11     -0.03      0.00
    3    3   12      3.68      0.00
    3    2   13     -0.85      0.00
    3    1   14     -1.46      0.00
    3    0   15     -1.69      0.00
    3   13    0      0.26      0.00
    3   12    1     -1.65      0.00
    3   11    2      0.66      0.00
    3   10    3      5.24      0.00
    3    9    4     -4.13      0.00
    3    8    5     -4.98      0.00
    3    7    6      5.24      0.00
    3    6    7      2.22      0.00
    3    4    9     -1.73      0.00
    3    3   10     -1.06      0.00
    3    2   11     -0.62      0.00
    3    1   12      5.17      0.00
    3    0   13     -1.70      0.00
    3   11    0      0.02      0.00
    3   10    1     -2.13      0.00
    3    9    2      1.24      0.00
    3    8    3      7.17      0.00
    3    7    4     -7.01      0.00
    3    6    5     -5.29      0.00
    3    5    6      7.38      0.00
    3    4    7      1.67      0.00
    3    3    8     -1.93      0.00
    3    2    9     -1.37      0.00
    3    1   10     -1.28      0.00
    3    0   11     -0.90      0.00
    3    9    0      0.20      0.00
    3    8    1     -3.60      0.00
    3    7    2      3.22      0.00
    3    6    3      8.71      0.00
    3    5    4    -10.00      0.00
    3    4    5     -6.31      0.00
    3    3    6     10.11      0.00
    3    2    7      1.55      0.00
    3    1    8     -2.99      0.00
    3    0    9     -0.95      0.00
    3    7    0      0.38      0.00
    3    6    1     -5.32      0.00
    3    5    2      6.20      0.00
    3    4    3      9.78      0.00
    3    3    4    -12.70      0.00
    3    2    5     -7.40      0.00
    3    1    6     12.00      0.00
    3    0    7      1.61      0.00
    3    5    0     -1.54      0.00
    3    4    1     -5.48      0.00
    3    3    2      8.84      0.00
    3    2    3     10.51      0.00
    3    1    4    -14.39      0.00
    3    0    5     -7.86      0.00
    3    3    0     -6.31      0.00
    3    2    1     -3.98      0.00
    3    1    2     10.21      0.00
    3    0    3     10.79      0.00
    3    5    8     -1.49      0.00
    3    1    0    -10.78      0.00
    3    0    1     -2.99      0.00
    4   17   25      0.56      0.00
    4   16   26     -0.76      0.00
    4   15   27     -0.36      0.00
    4   14   28      0.53      0.00
    4   13   29      0.69      0.00
    4   12   30     -0.37      0.00
    4   11   31     -1.70      0.00
    4   10   32      1.67      0.00
    4   19   21     -1.43      0.00
    4   18   22     -0.08      0.00
    4   17   23      0.13      0.00
    4   16   24      0.42      0.00
    4   15   25      0.43      0.00
    4   14   26     -0.71      0.00
    4   13   27     -0.56      0.00
    4   12   28      0.76      0.00
    4   11   29      0.72      0.00
    4   10   30     -0.22      0.00
    4    9   31     -1.96      0.00
    4    8   32      1.43      0.00
    4    7   33      0.35      0.00
    4    6   34     -0.67      0.00
    4   21   17     -0.36      0.00
    4   20   18     -0.99      0.00
    4   19   19      1.22      0.00
    4   18   20      1.12      0.00
    4   17   21     -1.44      0.00
    4   16   22      0.03      0.00
    4   15   23     -0.20      0.00
    4   14   24      0.61      0.00
    4   13   25      0.19      0.00
    4   12   26     -0.46      0.00
    4   11   27     -0.65      0.00
    4   10   28      0.58      0.00
    4    9   29      1.00      0.00
    4    8   30     -0.16      0.00
    4    7   31     -1.83      0.00
    4    6   32      0.81      0.00
    4    5   33      0.66      0.00
    4    4   34     -0.87      0.00
    4   22   14      0.03      0.00
    4   21   15      0.68      0.00
    4   20   16      0.04      0.00
    4   19   17     -0.55      0.00
    4   18   18     -1.18      0.00
    4   17   19      1.15      0.00
    4   16   20      0.80      0.00
    4   15   21     -0.84      0.00
    4   14   22      0.08      0.00
    4   13   23     -0.27      0.00
    4   12   24      0.47      0.00
    4   11   25     -0.03      0.00
    4   10   26     -0.21      0.00
    4    9   27     -0.40      0.00
    4    8   28     -0.16      0.00
    4    7   29      1.53      0.00
    4    6   30     -0.12      0.00
    4    5   31     -1.52      0.00
    4    4   32      0.07      0.00
    4    3   33      1.07      0.00
    4    2   34     -1.18      0.00
    4    1   35      1.63      0.00
    4   23   11      0.09      0.00
    4   22   12     -0.81      0.00
    4   21   13     -0.01      0.00
    4   20   14      0.23      0.00
    4   19   15      0.47      0.00
    4   18   16      0.39      0.00
    4   17   17     -0.45      0.00
    4   16   18     -1.03      0.00
    4   15   19      0.81      0.00
    4   14   20      0.11      0.00
    4   13   21     -0.18      0.00
    4   12   22      0.20      0.00
    4   11   23     -0.08      0.00
    4   10   24      0.12      0.00
    4    9   25     -0.16      0.00
    4    8   26     -0.05      0.00
    4    7   27     -0.06      0.00
    4    6   28     -0.95      0.00
    4    5   29      1.93      0.00
    4    4   30      0.00      0.00
    4    3   31     -1.20      0.00
    4    2   32     -0.55      0.00
    4    1   33      1.41      0.00
    4    0   34     -1.35      0.00
    4   23    9     -0.53      0.00
    4   22   10      0.87      0.00
    4   21   11      0.20      0.00
    4   20   12     -0.90      0.00
    4   19   13     -0.36      0.00
    4   18   14      0.57      0.00
    4   17   15     -0.07      0.00
    4   16   16      0.48      0.00
    4   15   17      0.05      0.00
    4   14   18     -0.66      0.00
    4   13   19      0.36      0.00
    4   12   20     -0.51      0.00
    4   11   21      0.10      0.00
    4   10   22      0.49      0.00
    4    9   23      0.05      0.00
    4    8   24     -0.13      0.00
    4    7   25     -0.17      0.00
    4    6   26      0.16      0.00
    4    5   27     -0.14      0.00
    4    4   28     -1.24      0.00
    4    3   29      2.01      0.00
    4    2   30      0.12      0.00
    4    1   31     -0.98      0.00
    4    0   32     -0.80      0.00
    4   23    7     -0.39      0.00
    4   22    8      0.06      0.00
    4   21    9     -0.47      0.00
    4   20   10      0.94      0.00
    4   19   11      0.37      0.00
    4   18   12     -0.79      0.00
    4   17   13     -0.45      0.00
    4   16   14      0.71      0.00
    4   15   15     -0.62      0.00
    4   14   16      0.29      0.00
    4   13   17      0.62      0.00
    4   12   18     -0.20      0.00
    4   11   19      0.01      0.00
    4   10   20     -0.89      0.00
    4    9   21      0.06      0.00
    4    8   22      0.85      0.00
    4    7   23     -0.06      0.00
    4    6   24     -0.22      0.00
    4    5   25     -0.11      0.00
    4    4   26      0.63      0.00
    4    3   27     -0.77      0.00
    4    2   28     -1.05      0.00
    4    1   29      1.93      0.00
    4    0   30      0.18      0.00
    4   24    4     -0.49      0.00
    4   23    5      0.23      0.00
    4   22    6      0.55      0.00
    4   21    7     -0.38      0.00
    4   20    8     -0.48      0.00
    4   19    9     -0.08      0.00
    4   18   10      0.55      0.00
    4   17   11      0.53      0.00
    4   16   12     -0.69      0.00
    4   15   13      0.10      0.00
    4   14   14      0.26      0.00
    4   13   15     -0.98      0.00
    4   12   16      0.22      0.00
    4   11   17      0.89      0.00
    4   10   18      0.13      0.00
    4    9   19     -0.10      0.00
    4    8   20     -1.09      0.00
    4    7   21      0.00      0.00
    4    6   22      1.03      0.00
    4    5   23     -0.25      0.00
    4    4   24     -0.29      0.00
    4    3   25     -0.08      0.00
    4    2   26      1.24      0.00
    4    1   27     -1.42      0.00
    4    0   28     -0.89      0.00
    4   24    2      0.67      0.00
    4   23    3      0.02      0.00
    4   22    4     -0.61      0.00
    4   21    5      0.09      0.00
    4   20    6      0.78      0.00
    4   19    7     -0.17      0.00
    4   18    8     -0.82      0.00
    4   17    9      0.29      0.00
    4   16   10     -0.07      0.00
    4   15   11      0.56      0.00
    4   14   12     -0.55      0.00
    4   13   13      1.05      0.00
    4   12   14     -0.54      0.00
    4   11   15     -1.27      0.00
    4   10   16      0.44      0.00
    4    9   17      0.94      0.00
    4    8   18      0.20      0.00
    4    7   19     -0.11      0.00
    4    6   20     -1.04      0.00
    4    5   21      0.05      0.00
    4    4   22      0.94      0.00
    4    3   23     -0.26      0.00
    4    2   24     -0.42      0.00
    4    1   25     -0.09      0.00
    4    0   26      1.54      0.00
    4   24    0      0.62      0.00
    4   23    1     -0.95      0.00
    4   22    2      0.91      0.00
    4   21    3     -0.10      0.00
    4   20    4     -0.38      0.00
    4   19    5     -0.13      0.00
    4   18    6      0.58      0.00
    4   17    7      0.15      0.00
    4   16    8     -0.57      0.00
    4   15    9      0.23      0.00
    4   14   10     -0.62      0.00
    4   13   11      0.38      0.00
    4   12   12     -0.06      0.00
    4   11   13      1.61      0.00
    4   10   14     -1.01      0.00
    4    9   15     -1.63      0.00
    4    8   16      0.69      0.00
    4    7   17      0.98      0.00
    4    6   18      0.22      0.00
    4    5   19     -0.42      0.00
    4    4   20     -0.64      0.00
    4    3   21      0.08      0.00
    4    2   22      0.69      0.00
    4    1   23     -0.16      0.00
    4    0   24     -0.49      0.00
    4   22    0      0.81      0.00
    4   21    1     -0.91      0.00
    4   20    2      0.63      0.00
    4   19    3     -0.25      0.00
    4   18    4      0.30      0.00
    4   17    5     -0.38      0.00
    4   16    6     -0.07      0.00
    4   15    7      0.43      0.00
    4   14    8      0.49      0.00
    4   13    9     -0.42      0.00
    4   12   10     -1.08      0.00
    4   11   11      0.05      0.00
    4   10   12      0.91      0.00
    4    9   13      1.33      0.00
    4    8   14     -0.90      0.00
    4    7   15     -1.88      0.00
    4    6   16      0.78      0.00
    4    5   17      0.81      0.00
    4    4   18      0.65      0.00
    4    3   19     -1.13      0.00
    4    2   20     -0.06      0.00
    4    1   21      0.06      0.00
    4    0   22      0.57      0.00
    4   20    0      0.67      0.00
    4   19    1     -0.37      0.00
    4   18    2      0.03      0.00
    4   17    3     -0.60      0.00
    4   16    4      1.27      0.00
    4   15    5     -0.51      0.00
    4   14    6     -1.15      0.00
    4   13    7      0.63      0.00
    4   12    8      2.08      0.00
    4   11    9     -1.17      0.00
    4   10   10     -1.74      0.00
    4    9   11     -0.22      0.00
    4    8   12      2.00      0.00
    4    7   13      0.71      0.00
    4    6   14     -0.73      0.00
    4    5   15     -1.76      0.00
    4    4   16      0.90      0.00
    4    3   17      0.15      0.00
    4    2   18      1.42      0.00
    4    1   19     -1.78      0.00
    4    0   20      0.22      0.00
    4   18    0      0.23      0.00
    4   17    1      0.32      0.00
    4   16    2     -0.36      0.00
    4   15    3     -1.17      0.00
    4   14    4      2.19      0.00
    4   13    5     -0.34      0.00
    4   12    6     -2.59      0.00
    4   11    7      0.88      0.00
    4   10    8      3.36      0.00
    4    9    9     -1.19      0.00
    4    8   10     -2.68      0.00
    4    7   11     -0.36      0.00
    4    6   12      2.55      0.00
    4    5   13      0.65      0.00
    4    4   14     -1.12      0.00
    4    3   15     -1.33      0.00
    4    2   16      1.18      0.00
    4    1   17     -0.56      0.00
    4    0   18      1.83      0.00
    4   16    0     -0.19      0.00
    4   15    1      0.63      0.00
    4   14    2     -0.28      0.00
    4   13    3     -1.69      0.00
    4   12    4      2.82      0.00
    4   11    5      0.12      0.00
    4   10    6     -4.16      0.00
    4    9    7      1.30      0.00
    4    8    8      3.74      0.00
    4    7    9     -0.47      0.00
    4    6   10     -3.32      0.00
    4    5   11     -0.51      0.00
    4    4   12      2.29      0.00
    4    3   13      1.41      0.00
    4    2   14     -1.90      0.00
    4    1   15     -0.96      0.00
    4    0   16      1.35      0.00
    4   14    0     -0.27      0.00
    4   13    1      0.53      0.00
    4   12    2     -0.18      0.00
    4   11    3     -1.91      0.00
    4   10    4      3.34      0.00
    4    9    5      0.66      0.00
    4    8    6     -5.58      0.00
    4    7    7      1.65      0.00
    4    6    8      3.72      0.00
    4    5    9     -0.09      0.00
    4    4   10     -2.96      0.00
    4    3   11     -0.82      0.00
    4    2   12      1.63      0.00
    4    1   13      2.23      0.00
    4    0   14     -2.31      0.00
    4   12    0     -0.29      0.00
    4   11    1      0.80      0.00
    4   10    2     -0.79      0.00
    4    9    3     -1.93      0.00
    4    8    4      4.11      0.00
    4    7    5      1.12      0.00
    4    6    6     -6.65      0.00
    4    5    7      1.45      0.00
    4    4    8      4.38      0.00
    4    3    9     -0.86      0.00
    4    2   10     -1.89      0.00
    4    1   11     -1.12      0.00
    4    0   12      1.29      0.00
    4   10    0     -0.95      0.00
    4    9    1      2.01      0.00
    4    8    2     -2.26      0.00
    4    7    3     -2.05      0.00
    4    6    4      5.20      0.00
    4    5    5      1.58      0.00
    4    4    6     -7.35      0.00
    4    3    7      0.58      0.00
    4    2    8      5.72      0.00
    4    1    9     -1.96      0.00
    4    0   10     -1.30      0.00
    4    8    0     -1.98      0.00
    4    7    1      3.41      0.00
    4    6    2     -3.90      0.00
    4    5    3     -2.35      0.00
    4    4    4      6.25      0.00
    4    3    5      2.14      0.00
    4    2    6     -7.76      0.00
    4    1    7     -0.27      0.00
    4    6    0     -1.49      0.00
    4    5    1      3.27      0.00
    4    4    2     -4.91      0.00
    4    3    3     -2.65      0.00
    4    2    4      6.91      0.00
    4    1    5      2.59      0.00
    4    0    6     -7.90      0.00
    4    4    0      1.99      0.00
    4    3    1      1.12      0.00
    4    2    2     -5.17      0.00
    4    1    3     -2.80      0.00
    4    0    4      7.10      0.00
    4    2    0      6.86      0.00
    4    1    1     -1.13      0.00
    4    0    2     -5.15      0.00
    4    0    0      9.20      0.00
    4    0    8      6.44      0.00
    5   17   24      0.66      0.00
    5   16   25     -1.35      0.00
    5   15   26     -0.63      0.00
    5   14   27      1.82      0.00
    5   13   28     -0.16      0.00
    5   12   29     -0.67      0.00
    5   11   30     -0.02      0.00
    5   10   31      0.42      0.00
    5   19   20     -0.98      0.00
    5   18   21      0.94      0.00
    5   17   22     -0.01      0.00
    5   16   23      0.15      0.00
    5   15   24      0.89      0.00
    5   14   25     -1.36      0.00
    5   13   26     -0.86      0.00
    5   12   27      1.69      0.00
    5   11   28     -0.31      0.00
    5   10   29     -0.24      0.00
    5    9   30      0.07      0.00
    5    8   31      0.45      0.00
    5    7   32     -0.86      0.00
    5    6   33     -0.54      0.00
    5   21   16     -0.63      0.00
    5   20   17      0.07      0.00
    5   19   18      1.96      0.00
    5   18   19     -1.26      0.00
    5   17   20     -1.20      0.00
    5   16   21      0.87      0.00
    5   15   22     -0.08      0.00
    5   14   23      0.12      0.00
    5   13   24      1.25      0.00
    5   12   25     -1.20      0.00
    5   11   26     -0.84      0.00
    5   10   27      1.00      0.00
    5    9   28     -0.15      0.00
    5    8   29     -0.21      0.00
    5    7   30      0.47      0.00
    5    6   31      0.63      0.00
    5    5   32     -1.29      0.00
    5    4   33     -1.36      0.00
    5    3   34      3.44      0.00
    5   22   13     -0.53      0.00
    5   21   14      1.01      0.00
    5   20   15     -0.60      0.00
    5   19   16     -0.97      0.00
    5   18   17      0.25      0.00
    5   17   18      2.20      0.00
    5   16   19     -1.14      0.00
    5   15   20     -0.81      0.00
    5   14   21      0.09      0.00
    5   13   22      0.03      0.00
    5   12   23     -0.18      0.00
    5   11   24      1.53      0.00
    5   10   25     -0.76      0.00
    5    9   26     -0.56      0.00
    5    8   27      0.06      0.00
    5    7   28      0.25      0.00
    5    6   29     -0.77      0.00
    5    5   30      1.10      0.00
    5    4   31      0.92      0.00
    5    3   32     -1.46      0.00
    5    2   33     -2.36      0.00
    5    1   34      4.42      0.00
    5   22   11      0.18      0.00
    5   21   12     -0.03      0.00
    5   20   13     -0.16      0.00
    5   19   14      1.00      0.00
    5   18   15     -0.57      0.00
    5   17   16     -1.27      0.00
    5   16   17      0.09      0.00
    5   15   18      1.91      0.00
    5   14   19     -0.52      0.00
    5   13   20     -0.13      0.00
    5   12   21     -0.75      0.00
    5   11   22      0.14      0.00
    5   10   23     -0.53      0.00
    5    9   24      1.40      0.00
    5    8   25     -0.26      0.00
    5    7   26     -0.05      0.00
    5    6   27     -0.55      0.00
    5    5   28      0.48      0.00
    5    4   29     -1.56      0.00
    5    3   30      1.67      0.00
    5    2   31      1.20      0.00
    5    1   32     -1.45      0.00
    5    0   33     -2.82      0.00
    5   23    8     -0.07      0.00
    5   22    9     -0.35      0.00
    5   21   10     -0.19      0.00
    5   20   11      0.31      0.00
    5   19   12     -0.43      0.00
    5   18   13      0.27      0.00
    5   17   14      0.96      0.00
    5   16   15     -0.27      0.00
    5   15   16     -1.14      0.00
    5   14   17     -0.59      0.00
    5   13   18      1.32      0.00
    5   12   19      0.32      0.00
    5   11   20      0.36      0.00
    5   10   21     -1.11      0.00
    5    9   22      0.08      0.00
    5    8   23     -0.53      0.00
    5    7   24      0.86      0.00
    5    6   25     -0.08      0.00
    5    5   26      0.47      0.00
    5    4   27     -0.43      0.00
    5    3   28      0.30      0.00
    5    2   29     -2.13      0.00
    5    1   30      1.98      0.00
    5    0   31      1.32      0.00
    5   23    6     -0.63      0.00
    5   22    7      0.95      0.00
    5   21    8      0.16      0.00
    5   20    9     -0.37      0.00
    5   19   10     -0.28      0.00
    5   18   11      0.36      0.00
    5   17   12     -0.59      0.00
    5   16   13     -0.21      0.00
    5   15   14      1.43      0.00
    5   14   15      0.08      0.00
    5   13   16     -0.72      0.00
    5   12   17     -1.44      0.00
    5   11   18      0.79      0.00
    5   10   19      0.95      0.00
    5    9   20      0.44      0.00
    5    8   21     -0.93      0.00
    5    7   22     -0.13      0.00
    5    6   23     -0.12      0.00
    5    5   24      0.23      0.00
    5    4   25     -0.34      0.00
    5    3   26      0.76      0.00
    5    2   27      0.19      0.00
    5    1   28     -0.02      0.00
    5    0   29     -2.32      0.00
    5   23    4     -0.15      0.00
    5   22    5     -0.42      0.00
    5   21    6     -0.76      0.00
    5   20    7      0.94      0.00
    5   19    8      0.28      0.00
    5   18    9     -0.35      0.00
    5   17   10     -0.09      0.00
    5   16   11      0.21      0.00
    5   15   12     -0.07      0.00
    5   14   13     -1.82      0.00
    5   13   14      2.31      0.00
    5   12   15      0.60      0.00
    5   11   16     -0.56      0.00
    5   10   17     -2.05      0.00
    5    9   18      0.67      0.00
    5    8   19      1.12      0.00
    5    7   20      0.19      0.00
    5    6   21     -0.53      0.00
    5    5   22     -0.29      0.00
    5    4   23      0.40      0.00
    5    3   24     -0.17      0.00
    5    2   25     -0.75      0.00
    5    1   26      0.83      0.00
    5    0   27      0.54      0.00
    5   23    2     -1.28      0.00
    5   22    3      1.46      0.00
    5   21    4      0.18      0.00
    5   20    5     -0.65      0.00
    5   19    6     -0.67      0.00
    5   18    7      0.63      0.00
    5   17    8      0.42      0.00
    5   16    9     -0.47      0.00
    5   15   10      0.31      0.00
    5   14   11      0.06      0.00
    5   13   12      0.64      0.00
    5   12   13     -3.45      0.00
    5   11   14      2.76      0.00
    5   10   15      1.50      0.00
    5    9   16     -0.87      0.00
    5    8   17     -2.29      0.00
    5    7   18      0.95      0.00
    5    6   19      0.98      0.00
    5    5   20     -0.29      0.00
    5    4   21     -0.15      0.00
    5    3   22     -0.30      0.00
    5    2   23      0.75      0.00
    5    1   24     -0.30      0.00
    5    0   25     -0.94      0.00
    5   23    0      0.50      0.00
    5   22    1      0.27      0.00
    5   21    2     -1.71      0.00
    5   20    3      1.49      0.00
    5   19    4      0.26      0.00
    5   18    5     -0.53      0.00
    5   17    6     -0.42      0.00
    5   16    7      0.02      0.00
    5   15    8      0.56      0.00
    5   14    9     -0.51      0.00
    5   13   10      0.54      0.00
    5   12   11      0.27      0.00
    5   11   12      0.51      0.00
    5   10   13     -3.63      0.00
    5    9   14      2.16      0.00
    5    8   15      2.46      0.00
    5    7   16     -1.35      0.00
    5    6   17     -2.15      0.00
    5    5   18      1.26      0.00
    5    4   19      0.89      0.00
    5    3   20     -0.89      0.00
    5    2   21      0.12      0.00
    5    1   22     -0.25      0.00
    5    0   23      0.86      0.00
    5   21    0      0.51      0.00
    5   20    1      0.26      0.00
    5   19    2     -1.53      0.00
    5   18    3      1.18      0.00
    5   17    4      0.25      0.00
    5   16    5     -0.30      0.00
    5   15    6      0.01      0.00
    5   14    7     -0.67      0.00
    5   13    8      0.30      0.00
    5   12    9      0.03      0.00
    5   11   10      0.45      0.00
    5   10   11      0.81      0.00
    5    9   12     -0.75      0.00
    5    8   13     -2.12      0.00
    5    7   14      1.07      0.00
    5    6   15      2.72      0.00
    5    5   16     -1.68      0.00
    5    4   17     -1.56      0.00
    5    3   18      1.22      0.00
    5    2   19      0.99      0.00
    5    1   20     -1.32      0.00
    5    0   21      0.22      0.00
    5   19    0      0.67      0.00
    5   18    1     -0.01      0.00
    5   17    2     -1.07      0.00
    5   16    3      0.57      0.00
    5   15    4      0.49      0.00
    5   14    5     -0.09      0.00
    5   13    6      0.41      0.00
    5   12    7     -1.11      0.00
    5   11    8     -0.58      0.00
    5   10    9      1.06      0.00
    5    9   10      0.43      0.00
    5    8   11      1.04      0.00
    5    7   12     -2.31      0.00
    5    6   13     -0.18      0.00
    5    5   14      0.69      0.00
    5    4   15      1.91      0.00
    5    3   16     -1.87      0.00
    5    2   17     -0.74      0.00
    5    1   18      1.00      0.00
    5    0   19      1.07      0.00
    5   17    0      0.93      0.00
    5   16    1     -0.20      0.00
    5   15    2     -0.81      0.00
    5   14    3     -0.17      0.00
    5   13    4      0.75      0.00
    5   12    5      0.52      0.00
    5   11    6      0.44      0.00
    5   10    7     -1.42      0.00
    5    9    8     -1.41      0.00
    5    8    9      1.82      0.00
    5    7   10      1.03      0.00
    5    6   11      0.37      0.00
    5    5   12     -3.07      0.00
    5    4   13      0.83      0.00
    5    3   14      1.44      0.00
    5    2   15      0.66      0.00
    5    1   16     -1.97      0.00
    5    0   17     -0.34      0.00
    5   15    0      1.02      0.00
    5   14    1      0.11      0.00
    5   13    2     -1.00      0.00
    5   12    3     -0.72      0.00
    5   11    4      0.38      0.00
    5   10    5      1.99      0.00
    5    9    6      0.18      0.00
    5    8    7     -2.16      0.00
    5    7    8     -1.39      0.00
    5    6    9      1.91      0.00
    5    5   10      2.11      0.00
    5    4   11     -1.06      0.00
    5    3   12     -2.79      0.00
    5    2   13      0.79      0.00
    5    1   14      2.39      0.00
    5    0   15      0.06      0.00
    5   13    0      0.60      0.00
    5   12    1      0.93      0.00
    5   11    2     -1.37      0.00
    5   10    3     -0.96      0.00
    5    9    4     -0.71      0.00
    5    8    5      3.83      0.00
    5    7    6      0.18      0.00
    5    6    7     -3.57      0.00
    5    5    8     -0.70      0.00
    5    4    9      1.82      0.00
    5    3   10      3.06      0.00
    5    2   11     -2.45      0.00
    5    1   12     -2.25      0.00
    5    0   13      0.60      0.00
    5   11    0     -0.06      0.00
    5   10    1      1.50      0.00
    5    9    2     -1.27      0.00
    5    8    3     -1.34      0.00
    5    7    4     -1.49      0.00
    5    6    5      4.82      0.00
    5    5    6      0.83      0.00
    5    4    7     -5.09      0.00
    5    3    8     -0.17      0.00
    5    2    9      1.99      0.00
    5    1   10      3.52      0.00
    5    0   11     -3.01      0.00
    5    9    0      0.06      0.00
    5    8    1      0.98      0.00
    5    7    2     -0.34      0.00
    5    6    3     -2.44      0.00
    5    5    4     -0.84      0.00
    5    4    5      4.27      0.00
    5    3    6      1.89      0.00
    5    2    7     -6.06      0.00
    5    1    8     -0.08      0.00
    5    0    9      2.15      0.00
    5    7    0      1.35      0.00
    5    6    1     -0.29      0.00
    5    5    2      0.88      0.00
    5    4    3     -4.19      0.00
    5    3    4      1.08      0.00
    5    2    5      2.91      0.00
    5    1    6      2.67      0.00
    5    0    7     -6.35      0.00
    5    5    0      2.72      0.00
    5    4    1     -1.03      0.00
    5    3    2      1.64      0.00
    5    2    3     -5.85      0.00
    5    1    4      2.75      0.00
    5    0    5      2.22      0.00
    5    3    0      2.94      0.00
    5    2    1     -0.78      0.00
    5    1    2      1.83      0.00
    5    0    3     -6.52      0.00
    5    1    0      2.41      0.00
    5    0    1     -0.46      0.00
    6   17   23     -0.51      0.00
    6   16   24      0.18      0.00
    6   15   25     -0.49      0.00
    6   14   26     -0.08      0.00
    6   13   27      1.19      0.00
    6   12   28     -0.08      0.00
    6   11   29     -1.01      0.00
    6   10   30     -0.02      0.00
    6    9   31      0.35      0.00
    6   19   19     -0.79      0.00
    6   18   20      0.64      0.00
    6   17   21     -0.15      0.00
    6   16   22      0.50      0.00
    6   15   23     -0.35      0.00
    6   14   24      0.27      0.00
    6   13   25     -0.68      0.00
    6   12   26     -0.63      0.00
    6   11   27      1.59      0.00
    6   10   28      0.21      0.00
    6    9   29     -0.96      0.00
    6    8   30     -0.26      0.00
    6    7   31      0.07      0.00
    6    6   32      0.48      0.00
    6   20   16      0.03      0.00
    6   19   17      0.42      0.00
    6   18   18     -0.19      0.00
    6   17   19     -0.66      0.00
    6   16   20      0.41      0.00
    6   15   21     -0.21      0.00
    6   14   22      0.36      0.00
    6   13   23      0.08      0.00
    6   12   24      0.34      0.00
    6   11   25     -0.61      0.00
    6   10   26     -1.18      0.00
    6    9   27      1.61      0.00
    6    8   28      0.27      0.00
    6    7   29     -0.31      0.00
    6    6   30     -0.75      0.00
    6    5   31     -0.04      0.00
    6    4   32      0.71      0.00
    6    3   33      0.39      0.00
    6   21   13      0.74      0.00
    6   20   14     -1.09      0.00
    6   19   15      0.21      0.00
    6   18   16     -0.03      0.00
    6   17   17      0.62      0.00
    6   16   18     -0.19      0.00
    6   15   19     -0.32      0.00
    6   14   20      0.07      0.00
    6   13   21     -0.12      0.00
    6   12   22     -0.17      0.00
    6   11   23      0.56      0.00
    6   10   24      0.35      0.00
    6    9   25     -0.25      0.00
    6    8   26     -1.47      0.00
    6    7   27      1.20      0.00
    6    6   28      0.22      0.00
    6    5   29      0.37      0.00
    6    4   30     -1.15      0.00
    6    3   31      0.08      0.00
    6    2   32      0.64      0.00
    6    1   33      0.47      0.00
    6   22   10     -0.16      0.00
    6   21   11     -0.03      0.00
    6   20   12      0.01      0.00
    6   19   13      0.43      0.00
    6   18   14     -0.09      0.00
    6   17   15     -0.41      0.00
    6   16   16     -0.17      0.00
    6   15   17      0.60      0.00
    6   14   18     -0.17      0.00
    6   13   19      0.09      0.00
    6   12   20     -0.14      0.00
    6   11   21      0.12      0.00
    6   10   22     -0.77      0.00
    6    9   23      0.66      0.00
    6    8   24      0.42      0.00
    6    7   25      0.20      0.00
    6    6   26     -1.39      0.00
    6    5   27      0.52      0.00
    6    4   28      0.36      0.00
    6    3   29      0.55      0.00
    6    2   30     -1.25      0.00
    6    1   31      0.26      0.00
    6    0   32      0.55      0.00
    6   22    8      0.18      0.00
    6   21    9      0.36      0.00
    6   20   10     -0.29      0.00
    6   19   11     -0.24      0.00
    6   18   12      0.02      0.00
    6   17   13     -0.01      0.00
    6   16   14      0.73      0.00
    6   15   15     -0.54      0.00
    6   14   16     -0.34      0.00
    6   13   17      0.41      0.00
    6   12   18     -0.30      0.00
    6   11   19      0.47      0.00
    6   10   20     -0.21      0.00
    6    9   21      0.44      0.00
    6    8   22     -1.12      0.00
    6    7   23      0.30      0.00
    6    6   24      0.57      0.00
    6    5   25      0.50      0.00
    6    4   26     -1.02      0.00
    6    3   27     -0.18      0.00
    6    2   28      0.68      0.00
    6    1   29      0.40      0.00
    6    0   30     -1.24      0.00
    6   23    5      0.69      0.00
    6   22    6     -0.71      0.00
    6   21    7     -0.17      0.00
    6   20    8     -0.30      0.00
    6   19    9      1.20      0.00
    6   18   10     -0.29      0.00
    6   17   11     -0.49      0.00
    6   16   12     -0.07      0.00
    6   15   13     -0.12      0.00
    6   14   14      0.64      0.00
    6   13   15      0.00      0.00
    6   12   16     -0.44      0.00
    6   11   17      0.26      0.00
    6   10   18     -0.68      0.00
    6    9   19      0.77      0.00
    6    8   20     -0.17      0.00
    6    7   21      0.68      0.00
    6    6   22     -1.18      0.00
    6    5   23     -0.12      0.00
    6    4   24      0.65      0.00
    6    3   25      0.53      0.00
    6    2   26     -0.58      0.00
    6    1   27     -0.62      0.00
    6    0   28      0.85      0.00
    6   23    3     -0.55      0.00
    6   22    4      0.17      0.00
    6   21    5      1.05      0.00
    6   20    6     -0.49      0.00
    6   19    7     -0.57      0.00
    6   18    8     -0.96      0.00
    6   17    9      2.00      0.00
    6   16   10     -0.31      0.00
    6   15   11     -0.50      0.00
    6   14   12     -0.24      0.00
    6   13   13      0.17      0.00
    6   12   14     -0.14      0.00
    6   11   15      0.68      0.00
    6   10   16     -0.38      0.00
    6    9   17      0.26      0.00
    6    8   18     -1.17      0.00
    6    7   19      0.94      0.00
    6    6   20      0.09      0.00
    6    5   21      0.61      0.00
    6    4   22     -1.18      0.00
    6    3   23     -0.19      0.00
    6    2   24      0.61      0.00
    6    1   25      0.46      0.00
    6    0   26     -0.38      0.00
    6   23    1     -0.10      0.00
    6   22    2     -0.16      0.00
    6   21    3     -0.51      0.00
    6   20    4     -0.02      0.00
    6   19    5      1.19      0.00
    6   18    6      0.22      0.00
    6   17    7     -1.11      0.00
    6   16    8     -1.37      0.00
    6   15    9      2.39      0.00
    6   14   10     -0.43      0.00
    6   13   11     -0.31      0.00
    6   12   12     -0.31      0.00
    6   11   13      0.39      0.00
    6   10   14     -0.69      0.00
    6    9   15      0.90      0.00
    6    8   16     -0.12      0.00
    6    7   17      0.20      0.00
    6    6   18     -1.44      0.00
    6    5   19      0.86      0.00
    6    4   20      0.68      0.00
    6    3   21      0.21      0.00
    6    2   22     -1.23      0.00
    6    1   23     -0.03      0.00
    6    0   24      0.56      0.00
    6   22    0      0.63      0.00
    6   21    1      0.09      0.00
    6   20    2     -0.42      0.00
    6   19    3     -0.61      0.00
    6   18    4     -0.10      0.00
    6   17    5      1.03      0.00
    6   16    6      0.93      0.00
    6   15    7     -1.54      0.00
    6   14    8     -1.22      0.00
    6   13    9      2.22      0.00
    6   12   10     -0.54      0.00
    6   11   11     -0.21      0.00
    6   10   12     -0.08      0.00
    6    9   13      0.11      0.00
    6    8   14     -0.48      0.00
    6    7   15      0.71      0.00
    6    6   16      0.29      0.00
    6    5   17     -0.34      0.00
    6    4   18     -1.27      0.00
    6    3   19      0.61      0.00
    6    2   20      1.38      0.00
    6    1   21     -0.19      0.00
    6    0   22     -1.27      0.00
    6   20    0      0.34      0.00
    6   19    1      0.55      0.00
    6   18    2     -0.44      0.00
    6   17    3     -0.82      0.00
    6   16    4     -0.13      0.00
    6   15    5      0.95      0.00
    6   14    6      1.12      0.00
    6   13    7     -1.80      0.00
    6   12    8     -0.65      0.00
    6   11    9      1.79      0.00
    6   10   10     -0.46      0.00
    6    9   11     -0.36      0.00
    6    8   12      0.27      0.00
    6    7   13     -0.51      0.00
    6    6   14     -0.05      0.00
    6    5   15      0.75      0.00
    6    4   16      0.84      0.00
    6    3   17     -1.38      0.00
    6    2   18     -0.84      0.00
    6    1   19      0.38      0.00
    6    0   20      1.69      0.00
    6   18    0     -0.26      0.00
    6   17    1      0.87      0.00
    6   16    2     -0.32      0.00
    6   15    3     -0.81      0.00
    6   14    4     -0.40      0.00
    6   13    5      1.21      0.00
    6   12    6      0.97      0.00
    6   11    7     -1.97      0.00
    6   10    8     -0.36      0.00
    6    9    9      1.68      0.00
    6    8   10     -0.21      0.00
    6    7   11     -0.57      0.00
    6    6   12      0.40      0.00
    6    5   13     -0.88      0.00
    6    4   14     -0.28      0.00
    6    3   15      1.34      0.00
    6    2   16      1.36      0.00
    6    1   17     -2.27      0.00
    6    0   18     -0.62      0.00
    6   16    0     -0.51      0.00
    6   15    1      0.76      0.00
    6   14    2     -0.24      0.00
    6   13    3     -0.45      0.00
    6   12    4     -0.85      0.00
    6   11    5      1.41      0.00
    6   10    6      1.02      0.00
    6    9    7     -1.94      0.00
    6    8    8     -0.89      0.00
    6    7    9      1.99      0.00
    6    6   10      0.12      0.00
    6    5   11     -0.60      0.00
    6    4   12      0.20      0.00
    6    3   13     -0.71      0.00
    6    2   14     -1.11      0.00
    6    1   15      1.99      0.00
    6    0   16      1.58      0.00
    6   14    0     -0.06      0.00
    6   13    1      0.24      0.00
    6   12    2     -0.26      0.00
    6   11    3      0.02      0.00
    6   10    4     -1.09      0.00
    6    9    5      1.13      0.00
    6    8    6      1.41      0.00
    6    7    7     -1.60      0.00
    6    6    8     -1.77      0.00
    6    5    9      2.11      0.00
    6    4   10      0.54      0.00
    6    3   11     -0.45      0.00
    6    2   12     -0.13      0.00
    6    1   13     -0.37      0.00
    6    0   14     -1.58      0.00
    6   12    0      0.76      0.00
    6   11    1     -0.21      0.00
    6   10    2     -0.49      0.00
    6    9    3      0.40      0.00
    6    8    4     -0.96      0.00
    6    7    5      0.59      0.00
    6    6    6      1.65      0.00
    6    5    7     -1.25      0.00
    6    4    8     -1.94      0.00
    6    3    9      1.55      0.00
    6    2   10      0.96      0.00
    6    1   11     -0.30      0.00
    6    0   12     -0.28      0.00
    6   10    0      1.11      0.00
    6    9    1      0.02      0.00
    6    8    2     -1.16      0.00
    6    7    3      0.77      0.00
    6    6    4     -0.69      0.00
    6    5    5      0.46      0.00
    6    4    6      1.34      0.00
    6    3    7     -1.25      0.00
    6    2    8     -1.28      0.00
    6    1    9      0.83      0.00
    6    0   10      1.15      0.00
    6    8    0      0.67      0.00
    6    7    1      0.77      0.00
    6    6    2     -2.19      0.00
    6    5    3      1.18      0.00
    6    4    4     -0.57      0.00
    6    3    5      0.93      0.00
    6    2    6      0.75      0.00
    6    1    7     -1.46      0.00
    6    0    8     -0.81      0.00
    6    6    0      0.55      0.00
    6    5    1      0.97      0.00
    6    4    2     -3.02      0.00
    6    3    3      1.52      0.00
    6    2    4     -0.63      0.00
    6    1    5      1.48      0.00
    6    0    6      0.46      0.00
    6    4    0      2.07      0.00
    6    3    1     -0.04      0.00
    6    2    2     -3.32      0.00
    6    1    3      1.68      0.00
    6    0    4     -0.68      0.00
    6    2    0      4.67      0.00
    6    1    1     -1.29      0.00
    6    0    2     -3.34      0.00
    6    0    0      6.00      0.00
    7   16   23     -0.06      0.00
    7   15   24     -1.03      0.00
    7   14   25      1.13      0.00
    7   13   26      0.57      0.00
    7   12   27     -0.72      0.00
    7   11   28     -0.74      0.00
    7   10   29      0.54      0.00
    7    9   30      0.23      0.00
    7   18   19      0.24      0.00
    7   17   20     -0.74      0.00
    7   16   21      0.79      0.00
    7   15   22     -0.06      0.00
    7   14   23     -0.27      0.00
    7   13   24     -0.82      0.00
    7   12   25      0.79      0.00
    7   11   26      0.87      0.00
    7   10   27     -0.53      0.00
    7    9   28     -0.83      0.00
    7    8   29      0.23      0.00
    7    7   30      0.37      0.00
    7    6   31     -0.10      0.00
    7   20   15     -0.06      0.00
    7   19   16     -0.01      0.00
    7   18   17      0.13      0.00
    7   17   18     -0.40      0.00
    7   16   19      0.50      0.00
    7   15   20     -0.44      0.00
    7   14   21      0.43      0.00
    7   13   22      0.26      0.00
    7   12   23     -0.67      0.00
    7   11   24     -0.35      0.00
    7   10   25      0.23      0.00
    7    9   26      0.96      0.00
    7    8   27     -0.14      0.00
    7    7   28     -0.75      0.00
    7    6   29     -0.09      0.00
    7    5   30      0.36      0.00
    7    4   31     -0.18      0.00
    7    3   32      0.30      0.00
    7   21   12      0.34      0.00
    7   20   13     -0.50      0.00
    7   19   14      0.06      0.00
    7   18   15      0.29      0.00
    7   17   16     -0.24      0.00
    7   16   17      0.47      0.00
    7   15   18     -1.03      0.00
    7   14   19      0.57      0.00
    7   13   20      0.22      0.00
    7   12   21     -0.12      0.00
    7   11   22      0.49      0.00
    7   10   23     -0.79      0.00
    7    9   24      0.01      0.00
    7    8   25     -0.21      0.00
    7    7   26      0.67      0.00
    7    6   27      0.36      0.00
    7    5   28     -0.63      0.00
    7    4   29     -0.12      0.00
    7    3   30      0.14      0.00
    7    2   31     -0.36      0.00
    7    1   32      0.59      0.00
    7   21   10     -0.32      0.00
    7   20   11      0.49      0.00
    7   19   12     -0.14      0.00
    7   18   13      0.01      0.00
    7   17   14     -0.47      0.00
    7   16   15      0.58      0.00
    7   15   16     -0.03      0.00
    7   14   17      0.47      0.00
    7   13   18     -1.39      0.00
    7   12   19      0.40      0.00
    7   11   20      0.78      0.00
    7   10   21     -0.36      0.00
    7    9   22      0.21      0.00
    7    8   23     -0.37      0.00
    7    7   24      0.15      0.00
    7    6   25     -0.40      0.00
    7    5   26      0.07      0.00
    7    4   27      0.85      0.00
    7    3   28     -0.59      0.00
    7    2   29      0.10      0.00
    7    1   30     -0.10      0.00
    7    0   31     -0.46      0.00
    7   22    7      0.43      0.00
    7   21    8      0.04      0.00
    7   20    9     -0.30      0.00
    7   19   10     -0.24      0.00
    7   18   11      0.78      0.00
    7   17   12     -0.50      0.00
    7   16   13      0.24      0.00
    7   15   14     -0.65      0.00
    7   14   15      0.39      0.00
    7   13   16      0.53      0.00
    7   12   17      0.23      0.00
    7   11   18     -1.36      0.00
    7   10   19      0.11      0.00
    7    9   20      1.09      0.00
    7    8   21     -0.24      0.00
    7    7   22     -0.54      0.00
    7    6   23      0.27      0.00
    7    5   24      0.38      0.00
    7    4   25     -0.46      0.00
    7    3   26     -0.60      0.00
    7    2   27      1.20      0.00
    7    1   28     -0.60      0.00
    7    0   29      0.24      0.00
    7   22    5      0.40      0.00
    7   21    6     -0.82      0.00
    7   20    7      0.69      0.00
    7   19    8      0.19      0.00
    7   18    9     -0.78      0.00
    7   17   10      0.06      0.00
    7   16   11      0.73      0.00
    7   15   12     -0.29      0.00
    7   14   13     -0.23      0.00
    7   13   14     -0.15      0.00
    7   12   15     -0.11      0.00
    7   11   16      0.93      0.00
    7   10   17      0.01      0.00
    7    9   18     -1.12      0.00
    7    8   19     -0.15      0.00
    7    7   20      1.26      0.00
    7    6   21      0.03      0.00
    7    5   22     -1.36      0.00
    7    4   23      0.54      0.00
    7    3   24      0.93      0.00
    7    2   25     -0.51      0.00
    7    1   26     -1.05      0.00
    7    0   27      1.33      0.00
    7   22    3     -0.23      0.00
    7   21    4      0.10      0.00
    7   20    5      0.48      0.00
    7   19    6     -0.98      0.00
    7   18    7      0.82      0.00
    7   17    8      0.37      0.00
    7   16    9     -1.15      0.00
    7   15   10      0.42      0.00
    7   14   11      0.38      0.00
    7   13   12      0.16      0.00
    7   12   13     -0.89      0.00
    7   11   14      0.50      0.00
    7   10   15     -0.33      0.00
    7    9   16      0.85      0.00
    7    8   17     -0.07      0.00
    7    7   18     -0.94      0.00
    7    6   19     -0.26      0.00
    7    5   20      1.36      0.00
    7    4   21      0.36      0.00
    7    3   22     -1.94      0.00
    7    2   23      0.36      0.00
    7    1   24      1.46      0.00
    7    0   25     -0.54      0.00
    7   22    1      0.59      0.00
    7   21    2     -0.10      0.00
    7   20    3     -0.34      0.00
    7   19    4      0.01      0.00
    7   18    5      0.44      0.00
    7   17    6     -0.88      0.00
    7   16    7      0.76      0.00
    7   15    8      0.31      0.00
    7   14    9     -1.09      0.00
    7   13   10      0.69      0.00
    7   12   11      0.18      0.00
    7   11   12     -0.01      0.00
    7   10   13     -0.88      0.00
    7    9   14      0.55      0.00
    7    8   15      0.00      0.00
    7    7   16      0.56      0.00
    7    6   17     -0.06      0.00
    7    5   18     -1.07      0.00
    7    4   19     -0.15      0.00
    7    3   20      1.32      0.00
    7    2   21      0.72      0.00
    7    1   22     -2.21      0.00
    7    0   23      0.20      0.00
    7   21    0     -1.04      0.00
    7   20    1      0.74      0.00
    7   19    2      0.35      0.00
    7   18    3     -0.52      0.00
    7   17    4      0.00      0.00
    7   16    5      0.21      0.00
    7   15    6     -0.48      0.00
    7   14    7      0.62      0.00
    7   13    8     -0.22      0.00
    7   12    9     -0.68      0.00
    7   11   10      0.92      0.00
    7   10   11      0.52      0.00
    7    9   12     -1.11      0.00
    7    8   13     -0.08      0.00
    7    7   14      0.01      0.00
    7    6   15      0.50      0.00
    7    5   16      0.43      0.00
    7    4   17      0.07      0.00
    7    3   18     -1.47      0.00
    7    2   19      0.09      0.00
    7    1   20      1.21      0.00
    7    0   21      0.89      0.00
    7   19    0     -1.25      0.00
    7   18    1      0.35      0.00
    7   17    2      0.92      0.00
    7   16    3     -0.79      0.00
    7   15    4      0.35      0.00
    7   14    5     -0.33      0.00
    7   13    6      0.08      0.00
    7   12    7      0.69      0.00
    7   11    8     -1.06      0.00
    7   10    9     -0.43      0.00
    7    9   10      1.18      0.00
    7    8   11      1.29      0.00
    7    7   12     -2.39      0.00
    7    6   13      0.64      0.00
    7    5   14     -0.41      0.00
    7    4   15      0.63      0.00
    7    3   16      0.53      0.00
    7    2   17      0.29      0.00
    7    1   18     -1.85      0.00
    7    0   19      0.21      0.00
    7   17    0     -0.93      0.00
    7   16    1     -0.09      0.00
    7   15    2      1.15      0.00
    7   14    3     -1.16      0.00
    7   13    4      1.06      0.00
    7   12    5     -0.94      0.00
    7   11    6      0.40      0.00
    7   10    7      1.08      0.00
    7    9    8     -1.70      0.00
    7    8    9     -0.71      0.00
    7    7   10      1.41      0.00
    7    6   11      2.01      0.00
    7    5   12     -2.84      0.00
    7    4   13      0.46      0.00
    7    3   14     -0.22      0.00
    7    2   15      0.38      0.00
    7    1   16      0.67      0.00
    7    0   17      0.41      0.00
    7   15    0     -0.63      0.00
    7   14    1     -0.05      0.00
    7   13    2      0.81      0.00
    7   12    3     -1.40      0.00
    7   11    4      1.58      0.00
    7   10    5     -1.03      0.00
    7    9    6      0.16      0.00
    7    8    7      1.64      0.00
    7    7    8     -1.76      0.00
    7    6    9     -1.39      0.00
    7    5   10      1.44      0.00
    7    4   11      2.35      0.00
    7    3   12     -2.32      0.00
    7    2   13     -0.35      0.00
    7    1   14      0.21      0.00
    7    0   15      0.20      0.00
    7   13    0     -0.63      0.00
    7   12    1      0.40      0.00
    7   11    2      0.12      0.00
    7   10    3     -1.17      0.00
    7    9    4      1.20      0.00
    7    8    5     -0.35      0.00
    7    7    6     -0.46      0.00
    7    6    7      2.03      0.00
    7    5    8     -1.36      0.00
    7    4    9     -1.98      0.00
    7    3   10      1.25      0.00
    7    2   11      2.37      0.00
    7    1   12     -1.63      0.00
    7    0   13     -0.81      0.00
    7   11    0     -0.57      0.00
    7   10    1      0.67      0.00
    7    9    2     -0.49      0.00
    7    8    3     -0.40      0.00
    7    7    4      0.05      0.00
    7    6    5      0.50      0.00
    7    5    6     -0.79      0.00
    7    4    7      2.09      0.00
    7    3    8     -0.93      0.00
    7    2    9     -2.23      0.00
    7    1   10      1.02      0.00
    7    0   11      2.32      0.00
    7    9    0     -0.12      0.00
    7    8    1      0.48      0.00
    7    7    2     -0.66      0.00
    7    6    3      0.35      0.00
    7    5    4     -0.91      0.00
    7    4    5      0.60      0.00
    7    3    6     -0.50      0.00
    7    2    7      1.95      0.00
    7    1    8     -0.72      0.00
    7    0    9     -2.26      0.00
    7    7    0      0.36      0.00
    7    6    1      0.14      0.00
    7    5    2     -0.23      0.00
    7    4    3      0.40      0.00
    7    3    4     -0.94      0.00
    7    2    5     -0.05      0.00
    7    1    6     -0.01      0.00
    7    0    7      1.86      0.00
    7    5    0      0.12      0.00
    7    4    1      0.09      0.00
    7    3    2      0.60      0.00
    7    2    3     -0.17      0.00
    7    1    4     -0.50      0.00
    7    0    5     -0.48      0.00
    7    3    0     -0.94      0.00
    7    2    1      0.35      0.00
    7    1    2      1.27      0.00
    7    0    3     -0.53      0.00
    7    1    0     -1.96      0.00
    7    0    1      0.51      0.00
    8   15   23     -1.08      0.00
    8   14   24     -1.03      0.00
    8   13   25      0.90      0.00
    8   12   26      1.26      0.00
    8   11   27     -1.00      0.00
    8   10   28     -0.16      0.00
    8   18   18     -0.54      0.00
    8   17   19      1.45      0.00
    8   16   20     -1.12      0.00
    8   15   21     -0.19      0.00
    8   14   22      2.04      0.00
    8   13   23     -1.24      0.00
    8   12   24     -1.48      0.00
    8   11   25      0.77      0.00
    8   10   26      1.51      0.00
    8    9   27     -0.97      0.00
    8    8   28      0.11      0.00
    8    7   29     -0.26      0.00
    8    6   30     -0.41      0.00
    8   19   15      0.57      0.00
    8   18   16      0.57      0.00
    8   17   17     -0.88      0.00
    8   16   18     -0.40      0.00
    8   15   19      1.39      0.00
    8   14   20     -1.56      0.00
    8   13   21     -0.10      0.00
    8   12   22      2.40      0.00
    8   11   23     -0.87      0.00
    8   10   24     -1.87      0.00
    8    9   25      0.57      0.00
    8    8   26      1.31      0.00
    8    7   27     -0.65      0.00
    8    6   28      0.07      0.00
    8    5   29      0.27      0.00
    8    4   30     -1.19      0.00
    8    3   31      0.90      0.00
    8   20   12     -0.45      0.00
    8   19   13      0.20      0.00
    8   18   14     -0.70      0.00
    8   17   15      0.59      0.00
    8   16   16      0.69      0.00
    8   15   17     -0.97      0.00
    8   14   18      0.18      0.00
    8   13   19      0.93      0.00
    8   12   20     -1.71      0.00
    8   11   21     -0.17      0.00
    8   10   22      2.25      0.00
    8    9   23     -0.25      0.00
    8    8   24     -1.84      0.00
    8    7   25      0.41      0.00
    8    6   26      0.82      0.00
    8    5   27     -0.38      0.00
    8    4   28     -0.15      0.00
    8    3   29      1.02      0.00
    8    2   30     -1.73      0.00
    8    1   31      1.06      0.00
    8   20   10     -0.54      0.00
    8   19   11      0.56      0.00
    8   18   12      0.30      0.00
    8   17   13     -0.51      0.00
    8   16   14     -0.41      0.00
    8   15   15      0.32      0.00
    8   14   16      0.58      0.00
    8   13   17     -0.78      0.00
    8   12   18      0.58      0.00
    8   11   19      0.59      0.00
    8   10   20     -1.59      0.00
    8    9   21     -0.19      0.00
    8    8   22      1.63      0.00
    8    7   23      0.18      0.00
    8    6   24     -1.48      0.00
    8    5   25      0.54      0.00
    8    4   26      0.35      0.00
    8    3   27     -0.39      0.00
    8    2   28     -0.36      0.00
    8    1   29      1.52      0.00
    8    0   30     -1.89      0.00
    8   21    7      0.04      0.00
    8   20    8      0.15      0.00
    8   19    9      0.16      0.00
    8   18   10     -0.68      0.00
    8   17   11      0.23      0.00
    8   16   12      0.82      0.00
    8   15   13     -0.54      0.00
    8   14   14     -0.36      0.00
    8   13   15      0.03      0.00
    8   12   16      0.37      0.00
    8   11   17     -0.31      0.00
    8   10   18      0.36      0.00
    8    9   19      0.60      0.00
    8    8   20     -1.37      0.00
    8    7   21      0.07      0.00
    8    6   22      0.77      0.00
    8    5   23      0.35      0.00
    8    4   24     -1.32      0.00
    8    3   25      0.99      0.00
    8    2   26      0.10      0.00
    8    1   27     -0.54      0.00
    8    0   28     -0.44      0.00
    8   21    5      0.61      0.00
    8   20    6     -0.36      0.00
    8   19    7      0.38      0.00
    8   18    8     -0.20      0.00
    8   17    9      0.33      0.00
    8   16   10     -0.54      0.00
    8   15   11     -0.14      0.00
    8   14   12      0.61      0.00
    8   13   13      0.36      0.00
    8   12   14     -0.79      0.00
    8   11   15     -0.13      0.00
    8   10   16      0.26      0.00
    8    9   17      0.25      0.00
    8    8   18     -0.25      0.00
    8    7   19      0.64      0.00
    8    6   20     -1.07      0.00
    8    5   21      0.51      0.00
    8    4   22      0.05      0.00
    8    3   23      0.47      0.00
    8    2   24     -1.54      0.00
    8    1   25      1.43      0.00
    8    0   26      0.04      0.00
    8   21    3      1.26      0.00
    8   20    4     -1.30      0.00
    8   19    5      0.32      0.00
    8   18    6     -0.26      0.00
    8   17    7      0.55      0.00
    8   16    8     -0.33      0.00
    8   15    9      0.28      0.00
    8   14   10     -0.19      0.00
    8   13   11     -0.41      0.00
    8   12   12      0.09      0.00
    8   11   13      1.37      0.00
    8   10   14     -1.29      0.00
    8    9   15     -0.26      0.00
    8    8   16      0.33      0.00
    8    7   17      0.68      0.00
    8    6   18     -0.69      0.00
    8    5   19      0.33      0.00
    8    4   20     -0.63      0.00
    8    3   21      0.80      0.00
    8    2   22     -0.35      0.00
    8    1   23      0.60      0.00
    8    0   24     -1.71      0.00
    8   21    1     -0.12      0.00
    8   20    2     -0.68      0.00
    8   19    3      1.65      0.00
    8   18    4     -0.75      0.00
    8   17    5     -0.35      0.00
    8   16    6     -0.10      0.00
    8   15    7      0.56      0.00
    8   14    8     -0.23      0.00
    8   13    9      0.09      0.00
    8   12   10      0.01      0.00
    8   11   11     -0.56      0.00
    8   10   12      0.08      0.00
    8    9   13      1.52      0.00
    8    8   14     -1.32      0.00
    8    7   15     -0.48      0.00
    8    6   16      0.47      0.00
    8    5   17      0.86      0.00
    8    4   18     -0.66      0.00
    8    3   19     -0.28      0.00
    8    2   20     -0.15      0.00
    8    1   21      0.85      0.00
    8    0   22     -0.46      0.00
    8   20    0     -0.05      0.00
    8   19    1      0.29      0.00
    8   18    2     -1.31      0.00
    8   17    3      1.42      0.00
    8   16    4      0.15      0.00
    8   15    5     -0.80      0.00
    8   14    6     -0.14      0.00
    8   13    7      0.48      0.00
    8   12    8      0.11      0.00
    8   11    9     -0.06      0.00
    8   10   10     -0.23      0.00
    8    9   11     -0.58      0.00
    8    8   12      0.74      0.00
    8    7   13      0.76      0.00
    8    6   14     -0.93      0.00
    8    5   15     -0.62      0.00
    8    4   16      0.52      0.00
    8    3   17      0.83      0.00
    8    2   18     -0.38      0.00
    8    1   19     -0.76      0.00
    8    0   20      0.06      0.00
    8   18    0     -0.04      0.00
    8   17    1      0.47      0.00
    8   16    2     -1.38      0.00
    8   15    3      0.85      0.00
    8   14    4      0.61      0.00
    8   13    5     -0.64      0.00
    8   12    6     -0.41      0.00
    8   11    7      0.34      0.00
    8   10    8      0.60      0.00
    8    9    9     -0.09      0.00
    8    8   10     -0.83      0.00
    8    7   11     -0.41      0.00
    8    6   12      1.47      0.00
    8    5   13     -0.07      0.00
    8    4   14     -0.67      0.00
    8    3   15     -0.52      0.00
    8    2   16      0.46      0.00
    8    1   17      0.74      0.00
    8    0   18     -0.22      0.00
    8   16    0      0.27      0.00
    8   15    1      0.16      0.00
    8   14    2     -0.88      0.00
    8   13    3      0.38      0.00
    8   12    4      0.54      0.00
    8   11    5     -0.31      0.00
    8   10    6     -0.64      0.00
    8    9    7      0.20      0.00
    8    8    8      1.08      0.00
    8    7    9     -0.19      0.00
    8    6   10     -1.28      0.00
    8    5   11     -0.12      0.00
    8    4   12      1.66      0.00
    8    3   13     -0.30      0.00
    8    2   14     -0.77      0.00
    8    1   15     -0.31      0.00
    8    0   16      0.42      0.00
    8   14    0      0.84      0.00
    8   13    1     -0.46      0.00
    8   12    2     -0.23      0.00
    8   11    3      0.10      0.00
    8   10    4      0.57      0.00
    8    9    5     -0.41      0.00
    8    8    6     -0.66      0.00
    8    7    7      0.19      0.00
    8    6    8      1.45      0.00
    8    5    9     -0.60      0.00
    8    4   10     -1.25      0.00
    8    3   11      0.17      0.00
    8    2   12      1.40      0.00
    8    1   13     -0.15      0.00
    8    0   14     -0.89      0.00
    8   12    0      1.27      0.00
    8   11    1     -0.83      0.00
    8   10    2      0.15      0.00
    8    9    3     -0.15      0.00
    8    8    4      0.98      0.00
    8    7    5     -0.91      0.00
    8    6    6     -0.55      0.00
    8    5    7      0.26      0.00
    8    4    8      1.77      0.00
    8    3    9     -1.29      0.00
    8    2   10     -0.87      0.00
    8    1   11      0.33      0.00
    8    0   12      1.21      0.00
    8   10    0      1.05      0.00
    8    9    1     -0.55      0.00
    8    8    2      0.16      0.00
    8    7    3     -0.35      0.00
    8    6    4      1.28      0.00
    8    5    5     -1.19      0.00
    8    4    6     -0.47      0.00
    8    3    7      0.28      0.00
    8    2    8      2.07      0.00
    8    1    9     -1.85      0.00
    8    0   10     -0.66      0.00
    8    8    0      0.08      0.00
    8    7    1      0.13      0.00
    8    6    2      0.15      0.00
    8    5    3     -0.31      0.00
    8    4    4      0.89      0.00
    8    3    5     -0.91      0.00
    8    2    6     -0.48      0.00
    8    1    7      0.24      0.00
    8    0    8      2.21      0.00
    8    6    0     -0.91      0.00
    8    5    1      0.37      0.00
    8    4    2      0.51      0.00
    8    3    3     -0.06      0.00
    8    2    4      0.04      0.00
    8    1    5     -0.47      0.00
    8    0    6     -0.50      0.00
    8    4    0     -1.06      0.00
    8    3    1     -0.21      0.00
    8    2    2      1.17      0.00
    8    1    3      0.18      0.00
    8    0    4     -0.41      0.00
    8    2    0     -0.44      0.00
    8    1    1     -0.98      0.00
    8    0    2      1.51      0.00
    8    0    0     -0.04      0.00
    9   16   19      0.15      0.00
    9   15   20      0.10      0.00
    9   14   21      0.25      0.00
    9   13   22     -0.56      0.00
    9   12   23     -0.14      0.00
    9   11   24      0.38      0.00
    9   10   25      0.39      0.00
    9    9   26     -0.30      0.00
    9    8   27     -0.38      0.00
    9    7   28      0.32      0.00
    9    6   29      0.08      0.00
    9   18   15      0.35      0.00
    9   17   16     -0.86      0.00
    9   16   17      0.93      0.00
    9   15   18     -0.60      0.00
    9   14   19      0.09      0.00
    9   13   20      0.05      0.00
    9   12   21      0.26      0.00
    9   11   22      0.02      0.00
    9   10   23     -0.61      0.00
    9    9   24      0.15      0.00
    9    8   25      0.49      0.00
    9    7   26     -0.23      0.00
    9    6   27     -0.27      0.00
    9    5   28      0.66      0.00
    9    4   29     -0.40      0.00
    9    3   30     -0.45      0.00
    9   19   12      0.08      0.00
    9   18   13      0.48      0.00
    9   17   14     -0.49      0.00
    9   16   15      0.66      0.00
    9   15   16     -1.16      0.00
    9   14   17      1.30      0.00
    9   13   18     -0.51      0.00
    9   12   19     -0.19      0.00
    9   11   20     -0.13      0.00
    9   10   21      0.21      0.00
    9    9   22      0.57      0.00
    9    8   23     -0.47      0.00
    9    7   24     -0.41      0.00
    9    6   25      0.38      0.00
    9    5   26     -0.15      0.00
    9    4   27     -0.09      0.00
    9    3   28      1.02      0.00
    9    2   29     -0.72      0.00
    9    1   30     -0.65      0.00
    9   20    9      1.48      0.00
    9   19   10     -0.17      0.00
    9   18   11     -0.64      0.00
    9   17   12     -0.03      0.00
    9   16   13      0.78      0.00
    9   15   14     -0.65      0.00
    9   14   15      0.51      0.00
    9   13   16     -1.20      0.00
    9   12   17      1.25      0.00
    9   11   18      0.09      0.00
    9   10   19     -0.46      0.00
    9    9   20     -0.41      0.00
    9    8   21     -0.14      0.00
    9    7   22      1.06      0.00
    9    6   23      0.08      0.00
    9    5   24     -0.81      0.00
    9    4   25     -0.09      0.00
    9    3   26     -0.03      0.00
    9    2   27      0.07      0.00
    9    1   28      1.24      0.00
    9    0   29     -0.81      0.00
    9   20    7     -0.76      0.00
    9   19    8     -0.43      0.00
    9   18    9      1.39      0.00
    9   17   10     -0.65      0.00
    9   16   11     -0.34      0.00
    9   15   12      0.06      0.00
    9   14   13      0.54      0.00
    9   13   14     -0.07      0.00
    9   12   15     -0.08      0.00
    9   11   16     -0.95      0.00
    9   10   17      0.66      0.00
    9    9   18      0.92      0.00
    9    8   19     -0.41      0.00
    9    7   20     -0.73      0.00
    9    6   21     -0.76      0.00
    9    5   22      1.54      0.00
    9    4   23      0.42      0.00
    9    3   24     -0.62      0.00
    9    2   25     -0.75      0.00
    9    1   26      0.06      0.00
    9    0   27      0.13      0.00
    9   20    5      0.82      0.00
    9   19    6     -0.30      0.00
    9   18    7     -0.86      0.00
    9   17    8      0.15      0.00
    9   16    9      1.40      0.00
    9   15   10     -1.19      0.00
    9   14   11     -0.11      0.00
    9   13   12      0.31      0.00
    9   12   13     -0.10      0.00
    9   11   14      0.74      0.00
    9   10   15     -0.57      0.00
    9    9   16     -0.59      0.00
    9    8   17     -0.16      0.00
    9    7   18      1.49      0.00
    9    6   19      0.04      0.00
    9    5   20     -1.11      0.00
    9    4   21     -1.26      0.00
    9    3   22      1.93      0.00
    9    2   23      0.34      0.00
    9    1   24     -0.18      0.00
    9    0   25     -1.07      0.00
    9   20    3     -0.51      0.00
    9   19    4      0.16      0.00
    9   18    5      1.51      0.00
    9   17    6     -1.03      0.00
    9   16    7     -0.84      0.00
    9   15    8      0.35      0.00
    9   14    9      1.55      0.00
    9   13   10     -1.53      0.00
    9   12   11      0.10      0.00
    9   11   12      0.40      0.00
    9   10   13     -0.46      0.00
    9    9   14      0.96      0.00
    9    8   15     -0.56      0.00
    9    7   16     -0.35      0.00
    9    6   17     -0.69      0.00
    9    5   18      1.61      0.00
    9    4   19      0.62      0.00
    9    3   20     -1.55      0.00
    9    2   21     -1.42      0.00
    9    1   22      2.14      0.00
    9    0   23      0.21      0.00
    9   20    1      0.35      0.00
    9   19    2     -0.61      0.00
    9   18    3     -0.46      0.00
    9   17    4     -0.16      0.00
    9   16    5      2.02      0.00
    9   15    6     -1.21      0.00
    9   14    7     -0.73      0.00
    9   13    8      0.15      0.00
    9   12    9      1.54      0.00
    9   11   10     -1.57      0.00
    9   10   11      0.39      0.00
    9    9   12      0.20      0.00
    9    8   13     -0.13      0.00
    9    7   14      0.42      0.00
    9    6   15     -0.34      0.00
    9    5   16     -0.30      0.00
    9    4   17     -0.69      0.00
    9    3   18      1.46      0.00
    9    2   19      1.03      0.00
    9    1   20     -1.88      0.00
    9    0   21     -1.41      0.00
    9   19    0      0.51      0.00
    9   18    1      0.27      0.00
    9   17    2     -0.73      0.00
    9   16    3     -0.20      0.00
    9   15    4     -0.51      0.00
    9   14    5      1.68      0.00
    9   13    6     -0.61      0.00
    9   12    7     -0.54      0.00
    9   11    8     -0.04      0.00
    9   10    9      1.12      0.00
    9    9   10     -1.44      0.00
    9    8   11      0.58      0.00
    9    7   12     -0.08      0.00
    9    6   13      0.65      0.00
    9    5   14     -0.15      0.00
    9    4   15     -0.47      0.00
    9    3   16     -0.33      0.00
    9    2   17     -0.40      0.00
    9    1   18      1.31      0.00
    9    0   19      1.17      0.00
    9   17    0      0.67      0.00
    9   16    1      0.28      0.00
    9   15    2     -0.62      0.00
    9   14    3     -0.01      0.00
    9   13    4     -0.51      0.00
    9   12    5      0.58      0.00
    9   11    6      0.20      0.00
    9   10    7     -0.28      0.00
    9    9    8      0.15      0.00
    9    8    9      0.50      0.00
    9    7   10     -1.24      0.00
    9    6   11      0.33      0.00
    9    5   12     -0.16      0.00
    9    4   13      1.33      0.00
    9    3   14     -0.17      0.00
    9    2   15     -0.98      0.00
    9    1   16     -0.36      0.00
    9    0   17     -0.22      0.00
    9   15    0      0.26      0.00
    9   14    1      0.43      0.00
    9   13    2     -0.24      0.00
    9   12    3      0.10      0.00
    9   11    4     -0.39      0.00
    9   10    5     -0.36      0.00
    9    9    6      0.45      0.00
    9    8    7      0.00      0.00
    9    7    8      0.54      0.00
    9    6    9      0.13      0.00
    9    5   10     -0.92      0.00
    9    4   11     -0.41      0.00
    9    3   12     -0.05      0.00
    9    2   13      1.68      0.00
    9    1   14      0.13      0.00
    9    0   15     -1.28      0.00
    9   13    0     -0.61      0.00
    9   12    1      0.57      0.00
    9   11    2      0.20      0.00
    9   10    3      0.40      0.00
    9    9    4     -0.62      0.00
    9    8    5     -0.47      0.00
    9    7    6      0.06      0.00
    9    6    7      0.23      0.00
    9    5    8      0.66      0.00
    9    4    9      0.23      0.00
    9    3   10     -0.48      0.00
    9    2   11     -1.25      0.00
    9    1   12      0.07      0.00
    9    0   13      1.77      0.00
    9   11    0     -1.33      0.00
    9   10    1      0.46      0.00
    9    9    2      0.45      0.00
    9    8    3      0.97      0.00
    9    7    4     -1.15      0.00
    9    6    5     -0.13      0.00
    9    5    6     -0.36      0.00
    9    4    7      0.41      0.00
    9    3    8      0.32      0.00
    9    2    9      0.57      0.00
    9    1   10     -0.12      0.00
    9    0   11     -1.61      0.00
    9    9    0     -1.41      0.00
    9    8    1      0.05      0.00
    9    7    2      0.47      0.00
    9    6    3      1.48      0.00
    9    5    4     -1.35      0.00
    9    4    5     -0.16      0.00
    9    3    6     -0.34      0.00
    9    2    7      0.54      0.00
    9    1    8     -0.10      0.00
    9    0    9      0.75      0.00
    9    7    0     -0.94      0.00
    9    6    1     -0.37      0.00
    9    5    2      0.39      0.00
    9    4    3      1.56      0.00
    9    3    4     -0.93      0.00
    9    2    5     -0.68      0.00
    9    1    6     -0.09      0.00
    9    0    7      0.60      0.00
    9    5    0     -0.48      0.00
    9    4    1     -0.51      0.00
    9    3    2      0.30      0.00
    9    2    3      1.30      0.00
    9    1    4     -0.37      0.00
    9    0    5     -1.00      0.00
    9    3    0     -0.39      0.00
    9    2    1     -0.39      0.00
    9    1    2      0.25      0.00
    9    0    3      1.14      0.00
    9    1    0     -0.52      0.00
    9    0    1     -0.30      0.00
   10   14   20      0.92      0.00
   10   13   21     -0.28      0.00
   10   12   22     -0.78      0.00
   10   11   23     -0.64      0.00
   10   10   24      2.48      0.00
   10    9   25     -0.44      0.00
   10    8   26     -1.25      0.00
   10   16   16      0.23      0.00
   10   15   17      0.23      0.00
   10   14   18      0.33      0.00
   10   13   19     -1.16      0.00
   10   12   20      1.62      0.00
   10   11   21     -0.33      0.00
   10   10   22     -1.23      0.00
   10    9   23     -0.81      0.00
   10    8   24      2.81      0.00
   10    7   25     -0.52      0.00
   10    6   26     -1.00      0.00
   10    5   27     -0.06      0.00
   10    4   28     -0.10      0.00
   10   18   12      0.44      0.00
   10   17   13     -0.42      0.00
   10   16   14      0.82      0.00
   10   15   15     -1.19      0.00
   10   14   16      0.48      0.00
   10   13   17     -0.12      0.00
   10   12   18      0.58      0.00
   10   11   19     -1.48      0.00
   10   10   20      2.13      0.00
   10    9   21     -0.25      0.00
   10    8   22     -1.62      0.00
   10    7   23     -0.78      0.00
   10    6   24      2.76      0.00
   10    5   25     -0.76      0.00
   10    4   26     -0.56      0.00
   10    3   27      0.34      0.00
   10    2   28     -0.62      0.00
   10   18   10     -0.24      0.00
   10   17   11     -0.19      0.00
   10   16   12      0.83      0.00
   10   15   13     -1.02      0.00
   10   14   14      1.52      0.00
   10   13   15     -1.42      0.00
   10   12   16      0.59      0.00
   10   11   17     -0.28      0.00
   10   10   18      0.40      0.00
   10    9   19     -1.38      0.00
   10    8   20      2.15      0.00
   10    7   21      0.07      0.00
   10    6   22     -1.89      0.00
   10    5   23     -0.38      0.00
   10    4   24      2.13      0.00
   10    3   25     -0.88      0.00
   10    2   26     -0.19      0.00
   10    1   27      0.64      0.00
   10    0   28     -0.82      0.00
   10   19    7      0.46      0.00
   10   18    8      0.10      0.00
   10   17    9     -0.40      0.00
   10   16   10      0.38      0.00
   10   15   11     -0.71      0.00
   10   14   12      0.85      0.00
   10   13   13     -1.03      0.00
   10   12   14      1.47      0.00
   10   11   15     -1.17      0.00
   10   10   16      0.54      0.00
   10    9   17     -0.17      0.00
   10    8   18     -0.05      0.00
   10    7   19     -0.94      0.00
   10    6   20      1.65      0.00
   10    5   21      0.40      0.00
   10    4   22     -1.90      0.00
   10    3   23      0.30      0.00
   10    2   24      1.19      0.00
   10    1   25     -0.83      0.00
   10    0   26     -0.06      0.00
   10   19    5     -0.07      0.00
   10   18    6      0.20      0.00
   10   17    7      0.29      0.00
   10   16    8      0.07      0.00
   10   15    9     -0.83      0.00
   10   14   10      1.20      0.00
   10   13   11     -1.07      0.00
   10   12   12      0.63      0.00
   10   11   13     -0.62      0.00
   10   10   14      0.93      0.00
   10    9   15     -0.79      0.00
   10    8   16      0.47      0.00
   10    7   17     -0.04      0.00
   10    6   18     -0.32      0.00
   10    5   19     -0.41      0.00
   10    4   20      0.94      0.00
   10    3   21      0.40      0.00
   10    2   22     -1.68      0.00
   10    1   23      0.87      0.00
   10    0   24      0.72      0.00
   10   19    3      0.56      0.00
   10   18    4     -0.76      0.00
   10   17    5     -0.52      0.00
   10   16    6      0.76      0.00
   10   15    7      0.00      0.00
   10   14    8      0.28      0.00
   10   13    9     -1.24      0.00
   10   12   10      1.56      0.00
   10   11   11     -1.20      0.00
   10   10   12      0.55      0.00
   10    9   13     -0.22      0.00
   10    8   14      0.43      0.00
   10    7   15     -0.54      0.00
   10    6   16      0.39      0.00
   10    5   17     -0.14      0.00
   10    4   18     -0.16      0.00
   10    3   19      0.01      0.00
   10    2   20      0.42      0.00
   10    1   21      0.21      0.00
   10    0   22     -1.53      0.00
   10   19    1      0.36      0.00
   10   18    2      0.54      0.00
   10   17    3      0.30      0.00
   10   16    4     -0.35      0.00
   10   15    5     -1.01      0.00
   10   14    6      1.14      0.00
   10   13    7     -0.30      0.00
   10   12    8      0.47      0.00
   10   11    9     -0.99      0.00
   10   10   10      1.16      0.00
   10    9   11     -1.24      0.00
   10    8   12      0.67      0.00
   10    7   13      0.01      0.00
   10    6   14      0.14      0.00
   10    5   15     -0.24      0.00
   10    4   16      0.17      0.00
   10    3   17     -0.49      0.00
   10    2   18      0.24      0.00
   10    1   19      0.23      0.00
   10    0   20      0.25      0.00
   10   18    0     -1.55      0.00
   10   17    1      0.32      0.00
   10   16    2      0.92      0.00
   10   15    3     -0.11      0.00
   10   14    4     -0.11      0.00
   10   13    5     -0.95      0.00
   10   12    6      0.99      0.00
   10   11    7     -0.43      0.00
   10   10    8      0.31      0.00
   10    9    9     -0.05      0.00
   10    8   10      0.44      0.00
   10    7   11     -1.32      0.00
   10    6   12      0.75      0.00
   10    5   13      0.17      0.00
   10    4   14     -0.11      0.00
   10    3   15      0.30      0.00
   10    2   16     -0.14      0.00
   10    1   17     -0.80      0.00
   10    0   18      0.44      0.00
   10   16    0     -1.24      0.00
   10   15    1     -0.30      0.00
   10   14    2      1.45      0.00
   10   13    3     -0.30      0.00
   10   12    4     -0.33      0.00
   10   11    5     -0.35      0.00
   10   10    6      0.54      0.00
   10    9    7     -0.41      0.00
   10    8    8     -0.13      0.00
   10    7    9      0.96      0.00
   10    6   10     -0.01      0.00
   10    5   11     -1.40      0.00
   10    4   12      0.64      0.00
   10    3   13      0.35      0.00
   10    2   14     -0.42      0.00
   10    1   15      0.80      0.00
   10    0   16     -0.29      0.00
   10   14    0     -0.35      0.00
   10   13    1     -1.02      0.00
   10   12    2      1.60      0.00
   10   11    3     -0.13      0.00
   10   10    4     -0.55      0.00
   10    9    5      0.04      0.00
   10    8    6      0.33      0.00
   10    7    7     -0.47      0.00
   10    6    8     -0.48      0.00
   10    5    9      1.50      0.00
   10    4   10     -0.08      0.00
   10    3   11     -1.39      0.00
   10    2   12      0.44      0.00
   10    1   13      0.48      0.00
   10    0   14     -0.58      0.00
   10   12    0      0.28      0.00
   10   11    1     -1.04      0.00
   10   10    2      1.05      0.00
   10    9    3      0.11      0.00
   10    8    4     -0.23      0.00
   10    7    5     -0.21      0.00
   10    6    6      0.52      0.00
   10    5    7     -0.71      0.00
   10    4    8     -0.56      0.00
   10    3    9      1.61      0.00
   10    2   10      0.00      0.00
   10    1   11     -1.33      0.00
   10    0   12      0.35      0.00
   10   10    0      0.09      0.00
   10    9    1     -0.32      0.00
   10    8    2      0.13      0.00
   10    7    3      0.14      0.00
   10    6    4      0.42      0.00
   10    5    5     -0.57      0.00
   10    4    6      0.72      0.00
   10    3    7     -0.97      0.00
   10    2    8     -0.48      0.00
   10    1    9      1.57      0.00
   10    0   10      0.03      0.00
   10    8    0     -0.38      0.00
   10    7    1      0.35      0.00
   10    6    2     -0.58      0.00
   10    5    3      0.13      0.00
   10    4    4      0.63      0.00
   10    3    5     -0.39      0.00
   10    2    6      0.67      0.00
   10    1    7     -1.11      0.00
   10    0    8     -0.43      0.00
   10    6    0     -0.25      0.00
   10    5    1      0.36      0.00
   10    4    2     -0.90      0.00
   10    3    3      0.34      0.00
   10    2    4      0.23      0.00
   10    1    5      0.05      0.00
   10    0    6      0.58      0.00
   10    4    0      0.60      0.00
   10    3    1     -0.12      0.00
   10    2    2     -1.00      0.00
   10    1    3      0.64      0.00
   10    0    4     -0.07      0.00
   10    2    0      1.51      0.00
   10    1    1     -0.52      0.00
   10    0    2     -1.03      0.00
   10    0    0      1.88      0.00
   11   14   17      0.12      0.00
   11   13   18     -0.53      0.00
   11   12   19      0.09      0.00
   11   11   20     -0.27      0.00
   11   10   21      0.50      0.00
   11    9   22      0.38      0.00
   11    8   23      0.13      0.00
   11    7   24     -1.93      0.00
   11    6   25      1.37      0.00
   11   16   13      0.69      0.00
   11   15   14     -0.93      0.00
   11   14   15      0.10      0.00
   11   13   16      0.40      0.00
   11   12   17      0.28      0.00
   11   11   18     -0.30      0.00
   11   10   19     -0.26      0.00
   11    9   20     -0.66      0.00
   11    8   21      0.96      0.00
   11    7   22      0.58      0.00
   11    6   23     -0.14      0.00
   11    5   24     -2.10      0.00
   11    4   25      1.84      0.00
   11    3   26      0.26      0.00
   11   17   10      0.49      0.00
   11   16   11     -0.41      0.00
   11   15   12      0.23      0.00
   11   14   13      0.48      0.00
   11   13   14     -0.85      0.00
   11   12   15      0.08      0.00
   11   11   16      0.27      0.00
   11   10   17      0.19      0.00
   11    9   18      0.42      0.00
   11    8   19     -0.71      0.00
   11    7   20     -0.94      0.00
   11    6   21      1.23      0.00
   11    5   22      0.63      0.00
   11    4   23     -0.58      0.00
   11    3   24     -1.49      0.00
   11    2   25      1.74      0.00
   11    1   26      0.20      0.00
   11   17    8      0.35      0.00
   11   16    9     -0.60      0.00
   11   15   10      0.21      0.00
   11   14   11     -0.15      0.00
   11   13   12      0.45      0.00
   11   12   13     -0.09      0.00
   11   11   14     -0.23      0.00
   11   10   15     -0.09      0.00
   11    9   16     -0.04      0.00
   11    8   17      0.05      0.00
   11    7   18      0.98      0.00
   11    6   19     -0.88      0.00
   11    5   20     -0.96      0.00
   11    4   21      1.37      0.00
   11    3   22      0.37      0.00
   11    2   23     -1.06      0.00
   11    1   24     -0.72      0.00
   11    0   25      1.58      0.00
   11   18    5     -0.41      0.00
   11   17    6     -0.16      0.00
   11   16    7      0.53      0.00
   11   15    8      0.07      0.00
   11   14    9     -0.39      0.00
   11   13   10     -0.12      0.00
   11   12   11      0.19      0.00
   11   11   12      0.24      0.00
   11   10   13     -0.51      0.00
   11    9   14      0.53      0.00
   11    8   15     -0.01      0.00
   11    7   16     -0.60      0.00
   11    6   17      0.11      0.00
   11    5   18      0.84      0.00
   11    4   19     -0.63      0.00
   11    3   20     -0.77      0.00
   11    2   21      1.52      0.00
   11    1   22      0.05      0.00
   11    0   23     -1.27      0.00
   11   18    3     -0.51      0.00
   11   17    4      0.23      0.00
   11   16    5     -0.19      0.00
   11   15    6     -0.53      0.00
   11   14    7      0.99      0.00
   11   13    8     -0.26      0.00
   11   12    9     -0.32      0.00
   11   11   10      0.05      0.00
   11   10   11      0.60      0.00
   11    9   12     -0.59      0.00
   11    8   13     -0.64      0.00
   11    7   14      1.03      0.00
   11    6   15      0.43      0.00
   11    5   16     -1.05      0.00
   11    4   17      0.29      0.00
   11    3   18      0.14      0.00
   11    2   19     -0.24      0.00
   11    1   20     -0.60      0.00
   11    0   21      1.60      0.00
   11   18    1     -0.86      0.00
   11   17    2      0.76      0.00
   11   16    3     -0.01      0.00
   11   15    4     -0.05      0.00
   11   14    5     -0.21      0.00
   11   13    6     -0.52      0.00
   11   12    7      1.09      0.00
   11   11    8     -0.51      0.00
   11   10    9     -0.62      0.00
   11    9   10      0.70      0.00
   11    8   11      1.13      0.00
   11    7   12     -1.55      0.00
   11    6   13     -0.86      0.00
   11    5   14      1.26      0.00
   11    4   15      0.85      0.00
   11    3   16     -1.08      0.00
   11    2   17      0.42      0.00
   11    1   18     -0.46      0.00
   11    0   19     -0.06      0.00
   11   17    0      0.65      0.00
   11   16    1     -0.66      0.00
   11   15    2      0.30      0.00
   11   14    3      0.27      0.00
   11   13    4      0.15      0.00
   11   12    5     -0.55      0.00
   11   11    6     -0.03      0.00
   11   10    7      0.82      0.00
   11    9    8     -0.64      0.00
   11    8    9     -1.14      0.00
   11    7   10      1.28      0.00
   11    6   11      1.76      0.00
   11    5   12     -1.93      0.00
   11    4   13     -1.50      0.00
   11    3   14      1.45      0.00
   11    2   15      0.98      0.00
   11    1   16     -0.87      0.00
   11    0   17      0.46      0.00
   11   15    0      0.13      0.00
   11   14    1      0.01      0.00
   11   13    2     -0.19      0.00
   11   12    3      0.15      0.00
   11   11    4      0.41      0.00
   11   10    5     -0.72      0.00
   11    9    6      0.55      0.00
   11    8    7      0.44      0.00
   11    7    8     -0.58      0.00
   11    6    9     -1.63      0.00
   11    5   10      1.33      0.00
   11    4   11      2.34      0.00
   11    3   12     -1.64      0.00
   11    2   13     -2.31      0.00
   11    1   14      1.62      0.00
   11    0   15      0.97      0.00
   11   13    0     -0.64      0.00
   11   12    1      0.67      0.00
   11   11    2     -0.37      0.00
   11   10    3     -0.06      0.00
   11    9    4      0.13      0.00
   11    8    5     -0.30      0.00
   11    7    6      0.71      0.00
   11    6    7      0.18      0.00
   11    5    8     -0.22      0.00
   11    4    9     -2.02      0.00
   11    3   10      0.98      0.00
   11    2   11      2.73      0.00
   11    1   12     -1.20      0.00
   11    0   13     -2.68      0.00
   11   11    0     -1.08      0.00
   11   10    1      0.83      0.00
   11    9    2     -0.19      0.00
   11    8    3     -0.15      0.00
   11    7    4     -0.47      0.00
   11    6    5      0.47      0.00
   11    5    6      0.35      0.00
   11    4    7      0.06      0.00
   11    3    8      0.39      0.00
   11    2    9     -2.34      0.00
   11    1   10      0.65      0.00
   11    0   11      2.85      0.00
   11    9    0     -0.92      0.00
   11    8    1      0.53      0.00
   11    7    2      0.14      0.00
   11    6    3     -0.32      0.00
   11    5    4     -0.66      0.00
   11    4    5      1.01      0.00
   11    3    6     -0.23      0.00
   11    2    7      0.01      0.00
   11    1    8      0.90      0.00
   11    0    9     -2.47      0.00
   11    7    0     -0.42      0.00
   11    6    1      0.18      0.00
   11    5    2      0.32      0.00
   11    4    3     -0.78      0.00
   11    3    4     -0.14      0.00
   11    2    5      1.14      0.00
   11    1    6     -0.64      0.00
   11    0    7      0.00      0.00
   11    5    0     -0.03      0.00
   11    4    1      0.16      0.00
   11    3    2      0.23      0.00
   11    2    3     -1.33      0.00
   11    1    4      0.48      0.00
   11    0    5      1.12      0.00
   11    3    0      0.05      0.00
   11    2    1      0.41      0.00
   11    1    2      0.07      0.00
   11    0    3     -1.59      0.00
   11    1    0     -0.03      0.00
   11    0    1      0.56      0.00
   11   18    7      0.02      0.00
   12   10   20      0.07      0.00
   12    9   21     -1.78      0.00
   12   14   14      0.79      0.00
   12   13   15      0.41      0.00
   12   12   16      0.43      0.00
   12   11   17     -1.04      0.00
   12   10   18     -0.29      0.00
   12    9   19      1.35      0.00
   12    8   20     -0.18      0.00
   12    7   21     -1.44      0.00
   12    6   22      0.49      0.00
   12    5   23      1.46      0.00
   12    4   24     -1.00      0.00
   12   15   11      0.85      0.00
   12   14   12      0.35      0.00
   12   13   13     -1.46      0.00
   12   12   14      0.22      0.00
   12   11   15      0.52      0.00
   12   10   16      0.32      0.00
   12    9   17     -0.38      0.00
   12    8   18     -0.71      0.00
   12    7   19      1.50      0.00
   12    6   20     -0.74      0.00
   12    5   21     -0.75      0.00
   12    4   22      0.10      0.00
   12    3   23      2.06      0.00
   12    2   24     -1.89      0.00
   12   16    8      0.03      0.00
   12   15    9     -1.23      0.00
   12   14   10      0.31      0.00
   12   13   11      0.47      0.00
   12   12   12      0.75      0.00
   12   11   13     -0.88      0.00
   12   10   14     -0.43      0.00
   12    9   15      0.43      0.00
   12    8   16     -0.01      0.00
   12    7   17      0.36      0.00
   12    6   18     -0.78      0.00
   12    5   19      1.52      0.00
   12    4   20     -1.41      0.00
   12    3   21     -0.27      0.00
   12    2   22     -0.02      0.00
   12    1   23      2.51      0.00
   12    0   24     -2.34      0.00
   12   16    6      0.05      0.00
   12   15    7      0.57      0.00
   12   14    8      0.70      0.00
   12   13    9     -1.46      0.00
   12   12   10      0.11      0.00
   12   11   11      0.10      0.00
   12   10   12      0.86      0.00
   12    9   13     -0.01      0.00
   12    8   14     -0.77      0.00
   12    7   15      0.08      0.00
   12    6   16     -0.31      0.00
   12    5   17      0.70      0.00
   12    4   18     -0.43      0.00
   12    3   19      1.52      0.00
   12    2   20     -1.90      0.00
   12    1   21     -0.14      0.00
   12    0   22      0.00      0.00
   12   17    3      0.82      0.00
   12   16    4     -0.11      0.00
   12   15    5     -0.62      0.00
   12   14    6     -0.08      0.00
   12   13    7      0.19      0.00
   12   12    8      1.28      0.00
   12   11    9     -1.06      0.00
   12   10   10     -0.44      0.00
   12    9   11     -0.19      0.00
   12    8   12      0.62      0.00
   12    7   13      0.92      0.00
   12    6   14     -0.81      0.00
   12    5   15     -0.26      0.00
   12    4   16     -0.54      0.00
   12    3   17      0.62      0.00
   12    2   18      0.05      0.00
   12    1   19      1.52      0.00
   12    0   20     -2.07      0.00
   12   17    1      0.42      0.00
   12   16    2     -0.25      0.00
   12   15    3      0.34      0.00
   12   14    4      0.23      0.00
   12   13    5     -0.38      0.00
   12   12    6     -0.51      0.00
   12   11    7     -0.05      0.00
   12   10    8      1.27      0.00
   12    9    9     -0.01      0.00
   12    8   10     -0.99      0.00
   12    7   11     -0.43      0.00
   12    6   12      0.07      0.00
   12    5   13      1.76      0.00
   12    4   14     -0.79      0.00
   12    3   15     -0.31      0.00
   12    2   16     -0.76      0.00
   12    1   17      0.44      0.00
   12    0   18      0.26      0.00
   12   16    0     -0.42      0.00
   12   15    1     -0.09      0.00
   12   14    2      0.13      0.00
   12   13    3      0.04      0.00
   12   12    4      0.42      0.00
   12   11    5      0.01      0.00
   12   10    6     -0.89      0.00
   12    9    7     -0.15      0.00
   12    8    8      0.71      0.00
   12    7    9      1.10      0.00
   12    6   10     -1.12      0.00
   12    5   11     -0.66      0.00
   12    4   12     -0.55      0.00
   12    3   13      2.33      0.00
   12    2   14     -0.83      0.00
   12    1   15     -0.17      0.00
   12    0   16     -0.86      0.00
   12   14    0      0.46      0.00
   12   13    1     -0.74      0.00
   12   12    2      0.13      0.00
   12   11    3     -0.07      0.00
   12   10    4      0.66      0.00
   12    9    5      0.15      0.00
   12    8    6     -0.85      0.00
   12    7    7     -0.23      0.00
   12    6    8     -0.04      0.00
   12    5    9      1.74      0.00
   12    4   10     -0.76      0.00
   12    3   11     -0.86      0.00
   12    2   12     -0.99      0.00
   12    1   13      2.60      0.00
   12    0   14     -0.87      0.00
   12   12    0      1.41      0.00
   12   11    1     -0.99      0.00
   12   10    2     -0.11      0.00
   12    9    3     -0.30      0.00
   12    8    4      0.97      0.00
   12    7    5      0.02      0.00
   12    6    6     -0.47      0.00
   12    5    7     -0.23      0.00
   12    4    8     -0.70      0.00
   12    3    9      1.88      0.00
   12    2   10     -0.28      0.00
   12    1   11     -0.98      0.00
   12    0   12     -1.14      0.00
   12   10    0      1.66      0.00
   12    9    1     -0.71      0.00
   12    8    2     -0.16      0.00
   12    7    3     -0.67      0.00
   12    6    4      0.99      0.00
   12    5    5     -0.01      0.00
   12    4    6     -0.16      0.00
   12    3    7     -0.03      0.00
   12    2    8     -1.18      0.00
   12    1    9      1.82      0.00
   12    0   10     -0.06      0.00
   12    8    0      1.09      0.00
   12    7    1     -0.23      0.00
   12    6    2      0.06      0.00
   12    5    3     -0.72      0.00
   12    4    4      0.41      0.00
   12    3    5      0.26      0.00
   12    2    6     -0.12      0.00
   12    1    7      0.22      0.00
   12    0    8     -1.36      0.00
   12    6    0      0.20      0.00
   12    5    1      0.15      0.00
   12    4    2      0.20      0.00
   12    3    3     -0.22      0.00
   12    2    4     -0.47      0.00
   12    1    5      0.59      0.00
   12    0    6     -0.16      0.00
   12    4    0     -0.55      0.00
   12    3    1      0.40      0.00
   12    2    2      0.09      0.00
   12    1    3      0.36      0.00
   12    0    4     -0.89      0.00
   12    2    0     -1.00      0.00
   12    1    1      0.55      0.00
   12    0    2     -0.02      0.00
   12    0    0     -1.14      0.00
   13   12   13     -0.48      0.00
   13   11   14     -0.33      0.00
   13   10   15      0.51      0.00
   13    9   16      0.94      0.00
   13    8   17     -1.51      0.00
   13    7   18      0.75      0.00
   13    6   19     -0.57      0.00
   13    5   20      0.33      0.00
   13    4   21      0.31      0.00
   13   14    9      0.65      0.00
   13   13   10      0.19      0.00
   13   12   11     -0.42      0.00
   13   11   12      0.73      0.00
   13   10   13     -0.78      0.00
   13    9   14     -0.35      0.00
   13    8   15      0.46      0.00
   13    7   16      0.93      0.00
   13    6   17     -1.19      0.00
   13    5   18      0.80      0.00
   13    4   19     -1.02      0.00
   13    3   20      0.24      0.00
   13    2   21      0.87      0.00
   13    1   22      0.17      0.00
   13   14    7     -0.83      0.00
   13   13    8     -0.70      0.00
   13   12    9      0.71      0.00
   13   11   10      0.08      0.00
   13   10   11     -0.29      0.00
   13    9   12      0.86      0.00
   13    8   13     -0.81      0.00
   13    7   14     -0.42      0.00
   13    6   15      0.33      0.00
   13    5   16      0.59      0.00
   13    4   17     -0.29      0.00
   13    3   18      0.46      0.00
   13    2   19     -1.25      0.00
   13    1   20      0.10      0.00
   13    0   21      1.15      0.00
   13   15    4     -0.66      0.00
   13   14    5      0.31      0.00
   13   13    6      1.22      0.00
   13   12    7     -0.83      0.00
   13   11    8     -0.53      0.00
   13   10    9      0.30      0.00
   13    9   10      0.08      0.00
   13    8   11     -0.17      0.00
   13    7   12      0.95      0.00
   13    6   13     -0.64      0.00
   13    5   14     -0.45      0.00
   13    4   15     -0.07      0.00
   13    3   16      0.34      0.00
   13    2   17      0.61      0.00
   13    1   18      0.12      0.00
   13    0   19     -1.31      0.00
   13   15    2      0.59      0.00
   13   14    3     -0.21      0.00
   13   13    4     -0.69      0.00
   13   12    5     -0.06      0.00
   13   11    6      1.51      0.00
   13   10    7     -0.91      0.00
   13    9    8      0.02      0.00
   13    8    9     -0.19      0.00
   13    7   10     -0.06      0.00
   13    6   11     -0.27      0.00
   13    5   12      1.26      0.00
   13    4   13     -0.40      0.00
   13    3   14     -0.40      0.00
   13    2   15     -0.64      0.00
   13    1   16      0.30      0.00
   13    0   17      0.96      0.00
   13   15    0      0.41      0.00
   13   14    1     -0.26      0.00
   13   13    2      0.64      0.00
   13   12    3     -0.28      0.00
   13   11    4     -0.52      0.00
   13   10    5     -0.39      0.00
   13    9    6      1.42      0.00
   13    8    7     -0.83      0.00
   13    7    8      0.52      0.00
   13    6    9     -0.27      0.00
   13    5   10     -0.37      0.00
   13    4   11     -0.80      0.00
   13    3   12      1.83      0.00
   13    2   13     -0.22      0.00
   13    1   14     -0.33      0.00
   13    0   15     -0.92      0.00
   13   13    0     -0.33      0.00
   13   12    1      0.06      0.00
   13   11    2      0.84      0.00
   13   10    3     -0.37      0.00
   13    9    4     -0.42      0.00
   13    8    5     -0.34      0.00
   13    7    6      0.79      0.00
   13    6    7     -0.57      0.00
   13    5    8      0.81      0.00
   13    4    9      0.08      0.00
   13    3   10     -0.64      0.00
   13    2   11     -1.54      0.00
   13    1   12      2.32      0.00
   13    0   13     -0.15      0.00
   13   11    0     -0.82      0.00
   13   10    1      0.02      0.00
   13    9    2      0.96      0.00
   13    8    3     -0.15      0.00
   13    7    4     -0.44      0.00
   13    6    5     -0.08      0.00
   13    5    6      0.04      0.00
   13    4    7     -0.53      0.00
   13    3    8      1.09      0.00
   13    2    9      0.48      0.00
   13    1   10     -0.75      0.00
   13    0   11     -1.89      0.00
   13    9    0     -0.68      0.00
   13    8    1     -0.20      0.00
   13    7    2      0.53      0.00
   13    6    3      0.35      0.00
   13    5    4     -0.22      0.00
   13    4    5     -0.04      0.00
   13    3    6     -0.29      0.00
   13    2    7     -0.85      0.00
   13    1    8      1.35      0.00
   13    0    9      0.63      0.00
   13    7    0     -0.16      0.00
   13    6    1     -0.23      0.00
   13    5    2     -0.35      0.00
   13    4    3      0.66      0.00
   13    3    4      0.42      0.00
   13    2    5     -0.33      0.00
   13    1    6     -0.25      0.00
   13    0    7     -1.07      0.00
   13    5    0      0.41      0.00
   13    4    1     -0.12      0.00
   13    3    2     -1.09      0.00
   13    2    3      0.57      0.00
   13    1    4      1.04      0.00
   13    0    5     -0.51      0.00
   13    3    0      0.98      0.00
   13    2    1     -0.10      0.00
   13    1    2     -1.39      0.00
   13    0    3      0.44      0.00
   13    1    0      1.38      0.00
   13    0    1     -0.13      0.00
   14   10   12     -0.57      0.00
   14    9   13      1.40      0.00
   14    8   14     -0.24      0.00
   14    7   15     -0.99      0.00
   14    6   16      0.14      0.00
   14    5   17      1.31      0.00
   14    4   18     -0.95      0.00
   14   11    9      0.36      0.00
   14   10   10      0.12      0.00
   14    9   11     -0.65      0.00
   14    8   12     -0.32      0.00
   14    7   13      1.40      0.00
   14    6   14     -0.21      0.00
   14    5   15     -1.39      0.00
   14    4   16      0.18      0.00
   14    3   17      1.31      0.00
   14    2   18     -0.40      0.00
   14   12    6     -1.10      0.00
   14   11    7     -0.10      0.00
   14   10    8      0.37      0.00
   14    9    9      0.49      0.00
   14    8   10     -0.52      0.00
   14    7   11     -0.35      0.00
   14    6   12     -0.35      0.00
   14    5   13      1.52      0.00
   14    4   14      0.16      0.00
   14    3   15     -1.70      0.00
   14    2   16     -0.24      0.00
   14    1   17      1.46      0.00
   14    0   18     -0.14      0.00
   14   12    4      0.40      0.00
   14   11    5      1.00      0.00
   14   10    6     -1.32      0.00
   14    9    7     -0.07      0.00
   14    8    8      0.73      0.00
   14    7    9      0.54      0.00
   14    6   10     -1.03      0.00
   14    5   11      0.14      0.00
   14    4   12     -0.97      0.00
   14    3   13      1.71      0.00
   14    2   14      0.69      0.00
   14    1   15     -1.82      0.00
   14    0   16     -0.52      0.00
   14   13    1      0.19      0.00
   14   12    2     -0.41      0.00
   14   11    3     -0.62      0.00
   14   10    4      0.91      0.00
   14    9    5      0.53      0.00
   14    8    6     -1.35      0.00
   14    7    7     -0.12      0.00
   14    6    8      1.12      0.00
   14    5    9      0.29      0.00
   14    4   10     -1.08      0.00
   14    3   11      0.73      0.00
   14    2   12     -1.82      0.00
   14    1   13      1.84      0.00
   14    0   14      0.95      0.00
   14   12    0      0.71      0.00
   14   11    1     -0.19      0.00
   14   10    2     -0.20      0.00
   14    9    3     -1.00      0.00
   14    8    4      1.66      0.00
   14    7    5      0.00      0.00
   14    6    6     -1.37      0.00
   14    5    7     -0.05      0.00
   14    4    8      1.34      0.00
   14    3    9     -0.20      0.00
   14    2   10     -0.82      0.00
   14    1   11      1.16      0.00
   14    0   12     -2.21      0.00
   14   10    0      1.15      0.00
   14    9    1     -0.48      0.00
   14    8    2     -0.01      0.00
   14    7    3     -1.28      0.00
   14    6    4      1.96      0.00
   14    5    5     -0.07      0.00
   14    4    6     -1.57      0.00
   14    3    7      0.27      0.00
   14    2    8      1.34      0.00
   14    1    9     -0.60      0.00
   14    0   10     -0.66      0.00
   14    8    0      1.34      0.00
   14    7    1     -0.57      0.00
   14    6    2      0.08      0.00
   14    5    3     -1.10      0.00
   14    4    4      1.49      0.00
   14    3    5      0.29      0.00
   14    2    6     -1.89      0.00
   14    1    7      0.62      0.00
   14    0    8      1.30      0.00
   14    6    0      1.15      0.00
   14    5    1     -0.42      0.00
   14    4    2     -0.01      0.00
   14    3    3     -0.52      0.00
   14    2    4      0.72      0.00
   14    1    5      0.66      0.00
   14    0    6     -2.05      0.00
   14    4    0      0.62      0.00
   14    3    1     -0.11      0.00
   14    2    2     -0.20      0.00
   14    1    3      0.00      0.00
   14    0    4      0.35      0.00
   14    2    0      0.07      0.00
   14    1    1      0.14      0.00
   14    0    2     -0.30      0.00
   14    0    0     -0.17      0.00
   15    8    9     -0.06      0.00
   15    7   10      0.68      0.00
   15    6   11      0.49      0.00
   15    5   12      0.93      0.00
   15    4   13     -2.51      0.00
   15    3   14     -1.07      0.00
   15    9    6      0.51      0.00
   15    8    7     -0.03      0.00
   15    7    8     -0.92      0.00
   15    6    9     -0.53      0.00
   15    5   10      0.93      0.00
   15    4   11      0.32      0.00
   15    3   12      1.94      0.00
   15    2   13     -2.95      0.00
   15    1   14     -1.64      0.00
   15   10    3      0.25      0.00
   15    9    4     -0.40      0.00
   15    8    5      0.26      0.00
   15    7    6      0.60      0.00
   15    6    7      0.36      0.00
   15    5    8     -1.09      0.00
   15    4    9     -0.89      0.00
   15    3   10      1.02      0.00
   15    2   11      0.00      0.00
   15    1   12      2.65      0.00
   15    0   13     -3.09      0.00
   15   10    1      0.50      0.00
   15    9    2     -0.89      0.00
   15    8    3      0.67      0.00
   15    7    4     -0.79      0.00
   15    6    5      0.14      0.00
   15    5    6      0.82      0.00
   15    4    7      0.45      0.00
   15    3    8     -0.97      0.00
   15    2    9     -1.11      0.00
   15    1   10      1.04      0.00
   15    0   11     -0.15      0.00
   15    9    0     -0.04      0.00
   15    8    1      0.61      0.00
   15    7    2     -1.13      0.00
   15    6    3      0.87      0.00
   15    5    4     -0.69      0.00
   15    4    5     -0.35      0.00
   15    3    6      1.33      0.00
   15    2    7      0.13      0.00
   15    1    8     -0.73      0.00
   15    0    9     -1.19      0.00
   15    7    0      0.00      0.00
   15    6    1      0.62      0.00
   15    5    2     -1.02      0.00
   15    4    3      0.45      0.00
   15    3    4     -0.11      0.00
   15    2    5     -0.97      0.00
   15    1    6      1.82      0.00
   15    0    7     -0.09      0.00
   15    5    0      0.07      0.00
   15    4    1      0.42      0.00
   15    3    2     -0.37      0.00
   15    2    3     -0.38      0.00
   15    1    4      0.44      0.00
   15    0    5     -1.26      0.00
   15    3    0      0.18      0.00
   15    2    1      0.05      0.00
   15    1    2      0.32      0.00
   15    0    3     -0.81      0.00
   15    1    0      0.30      0.00
   15    0    1     -0.15      0.00
   16    4    6      1.36      0.00
   16    3    7      0.38      0.00
   16    5    3      0.21      0.00
   16    4    4     -1.48      0.00
   16    3    5     -0.54      0.00
   16    2    6      1.54      0.00
   16    1    7      0.75      0.00
   16    0    8     -1.60      0.00
   16    5    1     -0.70      0.00
   16    4    2      1.80      0.00
   16    3    3      0.99      0.00
   16    2    4     -2.67      0.00
   16    1    5     -0.27      0.00
   16    0    6      1.54      0.00
   16    4    0     -1.16      0.00
   16    3    1     -0.50      0.00
   16    2    2      1.73      0.00
   16    1    3      1.78      0.00
   16    0    4     -3.21      0.00
   16    2    0     -1.89      0.00
   16    1    1     -0.23      0.00
   16    0    2      1.60      0.00
   16    0    0     -2.21      0.00
    0    1    1    -24.08      0.00
    0    0    0      0.00      0.00
# SQUEEZE RESULTS (Version = 300517)
# Note: Data are Listed for all Voids in the P1 Unit Cell
# i.e. Centre of Gravity, Solvent Accessible Volume,
# Recovered number of Electrons in the Void and
# Details about the Squeezed Material
loop_
  _platon_squeeze_void_nr
  _platon_squeeze_void_average_x
  _platon_squeeze_void_average_y
  _platon_squeeze_void_average_z
  _platon_squeeze_void_volume
  _platon_squeeze_void_count_electrons
  _platon_squeeze_void_content
   1  0.000  0.000  0.500       108        -6 ' '
   2  0.000  0.500  0.000       339        29 ' '
   3  0.500  0.000  0.500       339        29 ' '
   4  0.500  0.500  0.000       108        -6 ' '
# Missing Reflections Below sin(th)/lambda = 0.25
loop_
  _platon_missing_refln_index_h
  _platon_missing_refln_index_k
  _platon_missing_refln_index_l
  _platon_missing_refln_theta
    0    1    1     1.370
_platon_squeeze_void_probe_radius                  1.20
_platon_squeeze_details
)
TITL P16_057Or in Immm [Zr6O4(OH)4(ndc)4(H2O)8](tfa)4.(H2O)12
CELL   11.6770   17.8040   25.6960     90.00     90.00     90.00
SPGR Immm
# Solvent Accessible Volume =       891
# Electrons Found in S.A.V. =        57
# Note: Atoms in Void are Labelled as Cxxx and Qxxx for all Others
Q101 0.500 0.076 0.038 !       2.04 eA-3
Q102 0.031 0.998 0.156 !       1.90 eA-3
C103 1.000 0.495 0.250 !       1.54 eA-3
Q104 0.516 0.121 0.054 !       1.31 eA-3
Q105 0.500 0.500 0.391 !       1.29 eA-3
C106 0.221 1.002 0.227 !       1.29 eA-3
Q107 0.500 0.251 0.103 !       1.21 eA-3
Q108 0.049 0.009 0.109 !       1.13 eA-3
C109 0.719 1.001 0.242 !       0.99 eA-3
Q110 0.384 0.998 0.039 !       0.99 eA-3
Q111 0.109 0.500 0.000 !       0.96 eA-3
Q112 0.500 0.612 0.304 !       0.92 eA-3
C113 0.827 0.501 0.172 !       0.89 eA-3
Q114 1.000 0.958 0.060 !       0.87 eA-3
C115 0.799 0.504 0.195 !       0.83 eA-3
Q116 0.387 0.077 0.140 !       0.81 eA-3
Q117 0.834 0.094 0.004 !       0.81 eA-3
C118 0.877 0.501 0.172 !       0.80 eA-3
Q119 0.360 0.219 0.005 !       0.79 eA-3
Q120 0.690 0.014 0.052 !       0.78 eA-3
Q121 0.448 0.560 0.329 !       0.76 eA-3
C122 0.763 0.500 0.227 !       0.76 eA-3
Q123 0.145 0.999 0.125 !       0.75 eA-3
Q124 0.112 0.918 0.021 !       0.70 eA-3
Q125 0.378 0.315 0.081 !       0.69 eA-3
Q126 0.500 0.358 0.155 !       0.67 eA-3
Q127 0.500 1.000 0.164 !       0.65 eA-3
Q128 1.000 0.626 0.085 !       0.65 eA-3
Q129 0.534 0.524 0.307 !       0.63 eA-3
Q130 1.000 0.074 0.158 !       0.60 eA-3
Q131 0.065 0.047 0.002 !       0.60 eA-3
Q132 1.000 0.998 0.023 !       0.59 eA-3
Q133 0.205 0.746 0.162 !       0.58 eA-3
Q134 0.064 0.245 0.047 !       0.58 eA-3
Q135 1.000 0.595 0.104 !       0.58 eA-3
Q136 1.000 0.999 0.195 !       0.57 eA-3
Q137 0.500 0.561 0.140 !       0.57 eA-3
Q138 1.000 0.733 0.053 !       0.57 eA-3
Q139 0.079 0.720 0.036 !       0.57 eA-3
Q140 1.000 0.233 0.042 !       0.56 eA-3
Q141 0.500 0.138 0.162 !       0.55 eA-3
Q142 0.379 0.489 0.346 !       0.55 eA-3
Q143 0.833 0.298 0.021 !       0.55 eA-3
Q144 0.934 0.995 0.016 !       0.55 eA-3
Q145 0.314 0.219 0.311 !       0.54 eA-3
C146 0.282 0.500 0.000 !       0.54 eA-3
Q147 0.766 0.342 0.039 !       0.54 eA-3
Q148 0.266 0.842 0.539 !       0.54 eA-3
Q149 0.234 0.658 0.961 !       0.54 eA-3
Q150 0.716 0.131 0.083 !       0.54 eA-3
Q151 0.688 0.126 0.120 !       0.53 eA-3
Q152 0.194 0.500 0.000 !       0.53 eA-3
C153 0.424 1.003 0.289 !       0.52 eA-3
Q154 0.798 0.672 0.001 !       0.52 eA-3
Q155 0.723 0.195 0.162 !       0.52 eA-3
Q156 0.036 0.503 0.305 !       0.52 eA-3
Q157 0.374 0.498 0.180 !       0.51 eA-3
Q158 0.796 0.393 0.041 !       0.51 eA-3
Q159 0.690 0.653 0.066 !       0.51 eA-3
Q160 0.221 0.281 0.242 !       0.51 eA-3
C161 0.964 0.500 0.000 !       0.51 eA-3
Q162 0.955 0.237 0.012 !       0.50 eA-3
Q163 0.872 0.313-0.001 !       0.50 eA-3
)
;
_shelx_fab_checksum              39977
loop_
_space_group_symop_operation_xyz
'x, y, z'
'-x, -y, z'
'-x, y, -z'
'x, -y, -z'
'x+1/2, y+1/2, z+1/2'
'-x+1/2, -y+1/2, z+1/2'
'-x+1/2, y+1/2, -z+1/2'
'x+1/2, -y+1/2, -z+1/2'
'-x, -y, -z'
'x, y, -z'
'x, -y, z'
'-x, y, z'
'-x+1/2, -y+1/2, -z+1/2'
'x+1/2, y+1/2, -z+1/2'
'x+1/2, -y+1/2, z+1/2'
'-x+1/2, y+1/2, z+1/2'
loop_
_atom_site_label
_atom_site_type_symbol
_atom_site_fract_x
_atom_site_fract_y
_atom_site_fract_z
_atom_site_U_iso_or_equiv
_atom_site_adp_type
_atom_site_occupancy
_atom_site_site_symmetry_order
_atom_site_calc_flag
_atom_site_refinement_flags_posn
_atom_site_refinement_flags_adp
_atom_site_refinement_flags_occupancy
_atom_site_disorder_assembly
_atom_site_disorder_group
Zr1 Zr 0.15162(4) 0.40064(2) 0.5000 0.02064(19) Uani 1 2 d S T P . .
Zr2 Zr 0.0000 0.5000 0.40448(2) 0.0187(2) Uani 1 4 d S T P . .
O1M O 0.1523(6) 0.5000 0.45431(16) 0.066(2) Uani 1 2 d S T P . .
O2M O 0.0000 0.3996(4) 0.4541(2) 0.081(3) Uani 1 2 d S T P . .
O1 O 0.2097(3) 0.35894(17) 0.42193(10) 0.0396(7) Uani 1 1 d . . . . .
O2 O 0.1129(2) 0.42520(15) 0.36175(9) 0.0281(5) Uani 1 1 d . . . . .
C1 C 0.1785(4) 0.3727(2) 0.37523(13) 0.0302(8) Uani 1 1 d . . . . .
C2 C 0.2203(4) 0.3216(2) 0.33345(15) 0.0384(10) Uani 1 1 d . . . . .
C3 C 0.2987(5) 0.2641(3) 0.34503(17) 0.0607(17) Uani 1 1 d . . . . .
H3 H 0.3275 0.2591 0.3786 0.073 Uiso 1 1 calc R U . . .
C4 C 0.3330(5) 0.2151(4) 0.30637(18) 0.068(2) Uani 1 1 d . . . . .
H4 H 0.3850 0.1772 0.3142 0.081 Uiso 1 1 calc R U . . .
C5 C 0.1762(4) 0.3278(3) 0.28409(16) 0.0448(12) Uani 1 1 d . . . . .
H5 H 0.1233 0.3654 0.2769 0.054 Uiso 1 1 calc R U . . .
C6 C 0.2095(4) 0.2784(3) 0.24440(15) 0.0434(11) Uani 1 1 d . . . . .
O1S O 0.3400(4) 0.4045(3) 0.5000 0.0390(11) Uani 1 2 d S T P . .
O2S O 0.1421(5) 0.2761(2) 0.5000 0.0462(11) Uani 1 2 d DS T P . .
H1S2 H 0.162(8) 0.260(5) 0.4689(2) 0.069 Uiso 0.5 1 d D U P . .
F1A F 0.0000 0.1831(11) 0.2996(6) 0.203(8) Uani 0.5 2 d DS TU P A 1
F2A F 0.0976(4) 0.0940(9) 0.3462(7) 0.231(8) Uani 0.5 1 d D U P A 1
O1A O 0.0914(4) 0.2169(13) 0.4183(9) 0.316(13) Uani 0.5 1 d D U P A 1
C1A C 0.0000 0.1440(8) 0.3474(6) 0.236(7) Uani 0.5 2 d DS TU P A 1
C2A C 0.0000 0.1923(9) 0.3965(5) 0.237(7) Uani 0.5 2 d DS TU P A 1
F1B F 0.0000 0.2703(8) 0.3914(7) 0.211(8) Uani 0.5 2 d DS TU P B 2
F2B F 0.0990(4) 0.1736(8) 0.4273(6) 0.193(6) Uani 0.5 1 d D U P B 2
O1B O 0.0914(4) 0.1222(14) 0.3241(9) 0.298(14) Uani 0.5 1 d D U P B 2
C1B C 0.0000 0.1923(9) 0.3965(5) 0.237(7) Uani 0.5 2 d DS TU P B 2
C2B C 0.0000 0.1440(8) 0.3474(6) 0.236(7) Uani 0.5 2 d DS TU P B 2
O11W O 0.0000 0.1545(9) 0.0679(5) 0.070(3) Uani 0.5 2 d S T P C 1
O21W O 0.5000 0.1942(13) 0.4435(9) 0.135(7) Uani 0.5 2 d S T P D 1
O31W O 0.307(3) 0.0933(15) 0.4283(12) 0.126(11) Uani 0.25 1 d . . P E 1
O12W O 0.0000 0.0765(18) 0.0723(7) 0.146(9) Uani 0.5 2 d S T P F 2
O22W O 0.0000 0.0675(18) 0.1829(7) 0.162(10) Uani 0.5 2 d S T P G 2
O32W O 0.1444(9) 0.0000 0.1213(9) 0.105(6) Uani 0.5 2 d S T P H 2
loop_
_atom_site_aniso_label
_atom_site_aniso_U_11
_atom_site_aniso_U_22
_atom_site_aniso_U_33
_atom_site_aniso_U_23
_atom_site_aniso_U_13
_atom_site_aniso_U_12
Zr1 0.0290(3) 0.0194(3) 0.0136(2) 0.000 0.000 0.00391(15)
Zr2 0.0279(4) 0.0174(3) 0.0110(3) 0.000 0.000 0.000
O1M 0.160(6) 0.0166(18) 0.0228(19) 0.000 -0.042(3) 0.000
O2M 0.026(2) 0.156(7) 0.061(3) 0.086(4) 0.000 0.000
O1 0.0543(19) 0.0457(16) 0.0189(12) -0.0113(11) -0.0048(12) 0.0243(14)
O2 0.0395(14) 0.0285(12) 0.0163(10) -0.0053(9) 0.0041(10) 0.0072(11)
C1 0.040(2) 0.0345(18) 0.0158(14) -0.0077(13) 0.0005(14) 0.0090(16)
C2 0.049(2) 0.043(2) 0.0234(17) -0.0132(15) -0.0028(16) 0.0185(19)
C3 0.080(4) 0.078(4) 0.0239(19) -0.020(2) -0.016(2) 0.051(3)
C4 0.090(4) 0.083(4) 0.029(2) -0.022(2) -0.020(2) 0.063(3)
C5 0.064(3) 0.047(2) 0.0230(17) -0.0155(17) -0.0069(18) 0.030(2)
C6 0.059(3) 0.051(2) 0.0201(16) -0.0149(16) -0.0071(17) 0.028(2)
O1S 0.031(2) 0.063(3) 0.0236(19) 0.000 0.000 0.0078(18)
O2S 0.074(3) 0.0238(19) 0.040(2) 0.000 0.000 0.009(2)
F1A 0.218(16) 0.190(15) 0.202(12) -0.039(11) 0.000 0.000
F2A 0.277(15) 0.217(14) 0.198(14) -0.059(11) -0.054(12) 0.014(11)
O1A 0.339(19) 0.30(2) 0.312(18) -0.012(15) -0.001(15) -0.107(15)
C1A 0.237(9) 0.240(9) 0.231(9) -0.011(6) 0.000 0.000
C2A 0.239(9) 0.240(9) 0.232(8) -0.006(6) 0.000 0.000
F1B 0.200(15) 0.239(13) 0.195(15) -0.017(12) 0.000 0.000
F2B 0.261(13) 0.138(10) 0.179(12) -0.066(9) -0.004(10) -0.042(9)
O1B 0.293(18) 0.31(2) 0.294(19) -0.030(15) 0.033(15) 0.035(15)
C1B 0.239(9) 0.240(9) 0.232(8) -0.006(6) 0.000 0.000
C2B 0.237(9) 0.240(9) 0.231(9) -0.011(6) 0.000 0.000
O11W 0.050(7) 0.096(10) 0.064(8) -0.002(7) 0.000 0.000
O21W 0.121(16) 0.147(18) 0.138(17) 0.030(16) 0.000 0.000
O31W 0.093(19) 0.13(2) 0.16(3) 0.018(19) -0.04(2) -0.014(15)
O12W 0.073(11) 0.29(3) 0.077(12) 0.006(17) 0.000 0.000
O22W 0.113(16) 0.30(3) 0.072(11) -0.047(15) 0.000 0.000
O32W 0.028(6) 0.089(11) 0.20(2) 0.000 0.019(8) 0.000
loop_
_atom_type_symbol
_atom_type_description
_atom_type_scat_dispersion_real
_atom_type_scat_dispersion_imag
_atom_type_scat_source
C C 0.0033 0.0016 'International Tables Vol C Tables 4.2.6.8 and 6.1.1.4'
H H 0.0000 0.0000 'International Tables Vol C Tables 4.2.6.8 and 6.1.1.4'
O O 0.0106 0.0060 'International Tables Vol C Tables 4.2.6.8 and 6.1.1.4'
F F 0.0171 0.0103 'International Tables Vol C Tables 4.2.6.8 and 6.1.1.4'
Zr Zr -2.9673 0.5597 'International Tables Vol C Tables 4.2.6.8 and 6.1.1.4'
loop_
_geom_angle_atom_site_label_1
_geom_angle_atom_site_label_2
_geom_angle_atom_site_label_3
_geom_angle
_geom_angle_site_symmetry_1
_geom_angle_site_symmetry_3
O1M Zr1 O1M 67.14(19) 10_556 .
O1M Zr1 O2M 108.5(3) 10_556 .
O1M Zr1 O2M 72.8(2) . .
O1M Zr1 O2M 72.8(2) 10_556 10_556
O1M Zr1 O2M 108.5(3) . 10_556
O2M Zr1 O2M 67.4(3) . 10_556
O1M Zr1 O1S 88.3(2) 10_556 .
O1M Zr1 O1S 88.3(2) . .
O2M Zr1 O1S 146.29(13) . .
O2M Zr1 O1S 146.29(13) 10_556 .
O1M Zr1 O2S 146.34(9) 10_556 .
O1M Zr1 O2S 146.34(9) . .
O2M Zr1 O2S 87.1(2) . .
O2M Zr1 O2S 87.1(2) 10_556 .
O1S Zr1 O2S 94.68(19) . .
O1M Zr1 O1 77.30(14) 10_556 10_556
O1M Zr1 O1 140.25(14) . 10_556
O2M Zr1 O1 138.10(14) . 10_556
O2M Zr1 O1 75.66(19) 10_556 10_556
O1S Zr1 O1 73.05(10) . 10_556
O2S Zr1 O1 71.62(10) . 10_556
O1M Zr1 O1 140.25(14) 10_556 .
O1M Zr1 O1 77.30(14) . .
O2M Zr1 O1 75.67(19) . .
O2M Zr1 O1 138.10(14) 10_556 .
O1S Zr1 O1 73.05(10) . .
O2S Zr1 O1 71.62(10) . .
O1 Zr1 O1 126.76(15) 10_556 .
O1M Zr1 Zr2 88.20(15) 10_556 .
O1M Zr1 Zr2 36.32(15) . .
O2M Zr1 Zr2 36.48(14) . .
O2M Zr1 Zr2 88.44(19) 10_556 .
O1S Zr1 Zr2 119.27(8) . .
O2S Zr1 Zr2 118.60(9) . .
O1 Zr1 Zr2 161.00(7) 10_556 .
O1 Zr1 Zr2 72.16(7) . .
O1M Zr1 Zr2 36.32(15) 10_556 9_566
O1M Zr1 Zr2 88.20(15) . 9_566
O2M Zr1 Zr2 88.44(19) . 9_566
O2M Zr1 Zr2 36.48(14) 10_556 9_566
O1S Zr1 Zr2 119.27(8) . 9_566
O2S Zr1 Zr2 118.60(9) . 9_566
O1 Zr1 Zr2 72.16(7) 10_556 9_566
O1 Zr1 Zr2 161.00(7) . 9_566
Zr2 Zr1 Zr2 88.88(2) . 9_566
O1M Zr1 Zr1 33.57(10) 10_556 11_565
O1M Zr1 Zr1 33.57(10) . 11_565
O2M Zr1 Zr1 90.5(2) . 11_565
O2M Zr1 Zr1 90.5(2) 10_556 11_565
O1S Zr1 Zr1 88.20(13) . 11_565
O2S Zr1 Zr1 177.13(14) . 11_565
O1 Zr1 Zr1 109.32(8) 10_556 11_565
O1 Zr1 Zr1 109.32(8) . 11_565
Zr2 Zr1 Zr1 59.692(10) . 11_565
Zr2 Zr1 Zr1 59.692(10) 9_566 11_565
O1M Zr1 Zr1 90.22(19) 10_556 3_556
O1M Zr1 Zr1 90.21(19) . 3_556
O2M Zr1 Zr1 33.70(13) . 3_556
O2M Zr1 Zr1 33.70(13) 10_556 3_556
O1S Zr1 Zr1 178.20(13) . 3_556
O2S Zr1 Zr1 87.13(14) . 3_556
O1 Zr1 Zr1 107.58(9) 10_556 3_556
O1 Zr1 Zr1 107.58(9) . 3_556
Zr2 Zr1 Zr1 59.665(10) . 3_556
Zr2 Zr1 Zr1 59.665(10) 9_566 3_556
Zr1 Zr1 Zr1 90.0 11_565 3_556
O2 Zr2 O2 119.27(14) 12 11_565
O2 Zr2 O2 75.63(15) 12 2_565
O2 Zr2 O2 74.76(15) 11_565 2_565
O2 Zr2 O2 74.76(15) 12 .
O2 Zr2 O2 75.63(15) 11_565 .
O2 Zr2 O2 119.27(14) 2_565 .
O2 Zr2 O1M 142.00(8) 12 .
O2 Zr2 O1M 78.62(15) 11_565 .
O2 Zr2 O1M 142.00(8) 2_565 .
O2 Zr2 O1M 78.62(15) . .
O2 Zr2 O1M 78.62(15) 12 2_565
O2 Zr2 O1M 142.00(8) 11_565 2_565
O2 Zr2 O1M 78.62(15) 2_565 2_565
O2 Zr2 O1M 142.00(8) . 2_565
O1M Zr2 O1M 108.5(3) . 2_565
O2 Zr2 O2M 142.43(8) 12 2_565
O2 Zr2 O2M 78.11(18) 11_565 2_565
O2 Zr2 O2M 78.11(18) 2_565 2_565
O2 Zr2 O2M 142.44(8) . 2_565
O1M Zr2 O2M 70.18(13) . 2_565
O1M Zr2 O2M 70.18(13) 2_565 2_565
O2 Zr2 O2M 78.11(18) 12 .
O2 Zr2 O2M 142.43(8) 11_565 .
O2 Zr2 O2M 142.43(8) 2_565 .
O2 Zr2 O2M 78.11(18) . .
O1M Zr2 O2M 70.18(13) . .
O1M Zr2 O2M 70.18(13) 2_565 .
O2M Zr2 O2M 109.1(4) 2_565 .
O2 Zr2 Zr1 165.92(7) 12 11_565
O2 Zr2 Zr1 74.81(7) 11_565 11_565
O2 Zr2 Zr1 110.56(7) 2_565 11_565
O2 Zr2 Zr1 110.90(7) . 11_565
O1M Zr2 Zr1 35.02(8) . 11_565
O1M Zr2 Zr1 90.04(14) 2_565 11_565
O2M Zr2 Zr1 35.19(10) 2_565 11_565
O2M Zr2 Zr1 90.27(18) . 11_565
O2 Zr2 Zr1 110.90(7) 12 9_566
O2 Zr2 Zr1 110.56(7) 11_565 9_566
O2 Zr2 Zr1 74.81(7) 2_565 9_566
O2 Zr2 Zr1 165.92(7) . 9_566
O1M Zr2 Zr1 90.04(14) . 9_566
O1M Zr2 Zr1 35.02(8) 2_565 9_566
O2M Zr2 Zr1 35.19(10) 2_565 9_566
O2M Zr2 Zr1 90.27(18) . 9_566
Zr1 Zr2 Zr1 60.67(2) 11_565 9_566
O2 Zr2 Zr1 74.81(7) 12 3_556
O2 Zr2 Zr1 165.92(7) 11_565 3_556
O2 Zr2 Zr1 110.90(7) 2_565 3_556
O2 Zr2 Zr1 110.56(7) . 3_556
O1M Zr2 Zr1 90.04(14) . 3_556
O1M Zr2 Zr1 35.02(8) 2_565 3_556
O2M Zr2 Zr1 90.27(18) 2_565 3_556
O2M Zr2 Zr1 35.19(10) . 3_556
Zr1 Zr2 Zr1 91.12(2) 11_565 3_556
Zr1 Zr2 Zr1 60.615(19) 9_566 3_556
O2 Zr2 Zr1 110.56(7) 12 .
O2 Zr2 Zr1 110.90(7) 11_565 .
O2 Zr2 Zr1 165.92(7) 2_565 .
O2 Zr2 Zr1 74.81(7) . .
O1M Zr2 Zr1 35.02(8) . .
O1M Zr2 Zr1 90.04(14) 2_565 .
O2M Zr2 Zr1 90.27(18) 2_565 .
O2M Zr2 Zr1 35.19(10) . .
Zr1 Zr2 Zr1 60.615(19) 11_565 .
Zr1 Zr2 Zr1 91.12(2) 9_566 .
Zr1 Zr2 Zr1 60.67(2) 3_556 .
Zr1 O1M Zr1 112.86(19) 11_565 .
Zr1 O1M Zr2 108.7(2) 11_565 .
Zr1 O1M Zr2 108.7(2) . .
Zr1 O2M Zr1 112.6(3) . 3_556
Zr1 O2M Zr2 108.3(2) . .
Zr1 O2M Zr2 108.3(2) 3_556 .
C1 O1 Zr1 133.6(3) . .
C1 O2 Zr2 133.3(2) . .
O2 C1 O1 125.1(3) . .
O2 C1 C2 117.1(3) . .
O1 C1 C2 117.8(3) . .
C5 C2 C3 119.9(4) . .
C5 C2 C1 119.6(4) . .
C3 C2 C1 120.4(3) . .
C4 C3 C2 119.8(4) . .
C3 C4 C6 121.0(4) . 13
C2 C5 C6 121.2(4) . .
C4 C6 C5 121.8(4) 13 .
C4 C6 C6 119.1(4) 13 13
C5 C6 C6 119.1(4) . 13
F1A C1A F2A 106.5(8) . 12
F1A C1A F2A 106.5(8) . .
F2A C1A F2A 104.0(10) 12 .
F1A C1A C2A 116.1(8) . .
F2A C1A C2A 111.4(10) 12 .
F2A C1A C2A 111.4(10) . .
O1A C2A O1A 112.5(15) . 12
O1A C2A C1A 123.7(7) . .
O1A C2A C1A 123.7(7) 12 .
F1B C1B F2B 106.3(7) . .
F1B C1B F2B 106.3(7) . 12
F2B C1B F2B 106.7(10) . 12
F1B C1B C2B 119.0(9) . .
F2B C1B C2B 108.9(9) . .
F2B C1B C2B 108.9(9) 12 .
O1B C2B O1B 112.4(15) 12 .
O1B C2B C1B 123.8(7) 12 .
O1B C2B C1B 123.8(7) . .
loop_
_geom_bond_atom_site_label_1
_geom_bond_atom_site_label_2
_geom_bond_distance
_geom_bond_site_symmetry_2
Zr1 O1M 2.123(2) 10_556
Zr1 O1M 2.123(2) .
Zr1 O2M 2.128(3) .
Zr1 O2M 2.128(3) 10_556
Zr1 O1S 2.201(4) .
Zr1 O2S 2.220(4) .
Zr1 O1 2.244(3) 10_556
Zr1 O1 2.244(3) .
Zr1 Zr2 3.5055(6) .
Zr1 Zr2 3.5055(7) 9_566
Zr1 Zr1 3.5380(11) 11_565
Zr1 Zr1 3.5409(12) 3_556
Zr2 O2 2.172(2) 12
Zr2 O2 2.172(2) 11_565
Zr2 O2 2.172(2) 2_565
Zr2 O2 2.172(2) .
Zr2 O1M 2.191(5) .
Zr2 O1M 2.191(5) 2_565
Zr2 O2M 2.196(5) 2_565
Zr2 O2M 2.196(5) .
Zr2 Zr1 3.5055(6) 11_565
Zr2 Zr1 3.5055(6) 9_566
Zr2 Zr1 3.5055(7) 3_556
O1M Zr1 2.123(2) 11_565
O2M Zr1 2.128(3) 3_556
O1 C1 1.278(4) .
O2 C1 1.256(5) .
C1 C2 1.490(5) .
C2 C5 1.373(5) .
C2 C3 1.405(6) .
C3 C4 1.382(6) .
C4 C6 1.401(6) 13
C5 C6 1.402(5) .
C6 C4 1.401(6) 13
C6 C6 1.413(8) 13
F1A C1A 1.413(9) .
F2A C1A 1.446(8) .
O1A C2A 1.283(9) .
C1A F2A 1.446(8) 12
C1A C2A 1.526(7) .
C2A O1A 1.283(9) 12
F1B C1B 1.394(9) .
F2B C1B 1.441(8) .
O1B C2B 1.284(10) .
C1B F2B 1.441(8) 12
C1B C2B 1.526(7) .
C2B O1B 1.284(10) 12
loop_
_geom_hbond_atom_site_label_D
_geom_hbond_atom_site_label_H
_geom_hbond_atom_site_label_A
_geom_hbond_distance_DH
_geom_hbond_distance_HA
_geom_hbond_distance_DA
_geom_hbond_angle_DHA
O2S H1S2 O1A 0.879(10) 1.72(8) 2.42(2) 134(10)
