#------------------------------------------------------------------------------
#$Date: 2019-05-08 01:32:12 +0300 (Wed, 08 May 2019) $
#$Revision: 214980 $
#$URL: file:///home/coder/svn-repositories/cod/cif/1/55/09/1550985.cif $
#------------------------------------------------------------------------------
#
# This file is available in the Crystallography Open Database (COD),
# http://www.crystallography.net/
#
# All data on this site have been placed in the public domain by the
# contributors.
#
data_1550985
loop_
_publ_author_name
'Kim, Hyehyun'
'Kim, Dongwook'
'Moon, Dohyun'
'Choi, Yong Nam'
'Baek, Seung Bin'
'Lah, Myoung Soo'
_publ_section_title
;
 Symmetry-guided syntheses of mixed-linker Zr metal-organic frameworks
 with precise linker locations
;
_journal_name_full               'Chemical Science'
_journal_paper_doi               10.1039/C9SC01301F
_journal_year                    2019
_chemical_formula_sum            'C56 H44 F12 O40 Zr6'
_chemical_formula_weight         2132.23
_space_group_crystal_system      tetragonal
_space_group_IT_number           139
_space_group_name_Hall           '-I 4 2'
_space_group_name_H-M_alt        'I 4/m m m'
_symmetry_space_group_name_Hall  '-I 4 2'
_symmetry_space_group_name_H-M   'I 4/m m m'
_atom_sites_solution_hydrogens   geom
_audit_creation_method           SHELXL-2014/7
_audit_update_record
;
2019-02-08 deposited with the CCDC.    2019-05-07 downloaded from the CCDC.
;
_cell_angle_alpha                90
_cell_angle_beta                 90
_cell_angle_gamma                90
_cell_formula_units_Z            2
_cell_length_a                   17.445(3)
_cell_length_b                   17.445(3)
_cell_length_c                   22.934(5)
_cell_measurement_reflns_used    92597
_cell_measurement_temperature    243(2)
_cell_measurement_theta_max      33.319
_cell_measurement_theta_min      1.624
_cell_volume                     6979(2)
_computing_cell_refinement       HKL3000
_computing_data_collection       'PAL BL2D-SMDC Program'
_computing_data_reduction        HKL3000
_computing_molecular_graphics    ORTEP
_computing_publication_material  CIFTAB
_computing_structure_refinement  SHELXL
_computing_structure_solution    SHELXS
_diffrn_ambient_temperature      243(2)
_diffrn_measured_fraction_theta_full 0.999
_diffrn_measured_fraction_theta_max 0.934
_diffrn_measurement_device_type  'ADSC Q210 CCD area detector'
_diffrn_measurement_method       'omega scan'
_diffrn_radiation_type           synchrotron
_diffrn_radiation_wavelength     0.650
_diffrn_reflns_av_R_equivalents  0.1437
_diffrn_reflns_av_unetI/netI     0.0734
_diffrn_reflns_Laue_measured_fraction_full 0.999
_diffrn_reflns_Laue_measured_fraction_max 0.934
_diffrn_reflns_limit_h_max       27
_diffrn_reflns_limit_h_min       -27
_diffrn_reflns_limit_k_max       28
_diffrn_reflns_limit_k_min       -28
_diffrn_reflns_limit_l_max       38
_diffrn_reflns_limit_l_min       -38
_diffrn_reflns_number            51191
_diffrn_reflns_point_group_measured_fraction_full 0.999
_diffrn_reflns_point_group_measured_fraction_max 0.934
_diffrn_reflns_theta_full        22.955
_diffrn_reflns_theta_max         33.319
_diffrn_reflns_theta_min         1.624
_diffrn_source                   'PLSII 2D bending magnet'
_exptl_absorpt_coefficient_mu    2.194
_exptl_absorpt_correction_T_max  0.880
_exptl_absorpt_correction_T_min  0.880
_exptl_absorpt_correction_type   multi-scan
_exptl_absorpt_process_details   HKL3000
_exptl_crystal_colour            colorless
_exptl_crystal_density_diffrn    1.015
_exptl_crystal_description       block
_exptl_crystal_F_000             2096
_exptl_crystal_size_max          0.060
_exptl_crystal_size_mid          0.060
_exptl_crystal_size_min          0.060
_refine_diff_density_max         1.594
_refine_diff_density_min         -2.104
_refine_diff_density_rms         0.168
_refine_ls_extinction_coef       0.0129(16)
_refine_ls_extinction_expression Fc^*^=kFc[1+0.001xFc^2^\l^3^/sin(2\q)]^-1/4^
_refine_ls_extinction_method     'SHELXL-2014/7 (Sheldrick 2014'
_refine_ls_goodness_of_fit_ref   0.977
_refine_ls_hydrogen_treatment    constr
_refine_ls_matrix_type           full
_refine_ls_number_parameters     141
_refine_ls_number_reflns         4582
_refine_ls_number_restraints     147
_refine_ls_restrained_S_all      0.978
_refine_ls_R_factor_all          0.1817
_refine_ls_R_factor_gt           0.1050
_refine_ls_shift/su_max          0.000
_refine_ls_shift/su_mean         0.000
_refine_ls_structure_factor_coef Fsqd
_refine_ls_weighting_details
'w=1/[\s^2^(Fo^2^)+(0.2000P)^2^] where P=(Fo^2^+2Fc^2^)/3'
_refine_ls_weighting_scheme      calc
_refine_ls_wR_factor_gt          0.2841
_refine_ls_wR_factor_ref         0.3324
_reflns_Friedel_coverage         0.000
_reflns_number_gt                1915
_reflns_number_total             4582
_reflns_threshold_expression     'I > 2\s(I)'
_cod_data_source_file            c9sc01301f2.cif
_cod_data_source_block           P16_054Ttg_sq
_cod_depositor_comments
;
The following automatic conversions were performed:

'_exptl_absorpt_correction_type' value 'Multi-scan' changed to
'multi-scan' according to
/home/data/users/saulius/crontab/automatic-downloads/rss-feeds/RSC/lib/dictionaries/cif_core.dic
dictionary named 'cif_core.dic' version 2.4.2 from 2011-04-26.

Automatic conversion script
Id: cif_fix_values 4973 2017-02-22 13:04:09Z antanas 
;
_cod_database_code               1550985
_shelx_shelxl_version_number     2014/7
_shelx_space_group_comment
;
The symmetry employed for this shelxl refinement is uniquely defined
by the following loop, which should always be used as a source of
symmetry information in preference to the above space-group names.
They are only intended as comments.
;
_shelx_res_file
;

    P16_054Ttg_sq.res created by SHELXL-2014/7

TITL P16_054Ttg in I4/mmm
CELL 0.65000  17.4450  17.4450  22.9340  90.000  90.000  90.000
ZERR    2.00   0.0025   0.0025   0.0046   0.000   0.000   0.000
LATT 2
SYMM -X, -Y, Z
SYMM -Y, X, Z
SYMM Y, -X, Z
SYMM -X, Y, -Z
SYMM X, -Y, -Z
SYMM Y, X, -Z
SYMM -Y, -X, -Z
SFAC C  H  O  F  Zr
DISP Zr        -1.8641         3.3435       12414.11
DISP O          0.0087         0.0050          25.62
DISP F          0.0144         0.0085          40.09
DISP C          0.0024         0.0013           9.52
UNIT 112 88 80 24 12
L.S. 20 0   20
ACTA
BOND
FMAP 2
PLAN -50
ISOR 0.01 C1A F1A F2A C2A O1A
SIMU 0.02 C1A F1A F2A C2A O1A
DELU 0.02 C1A F1A F2A C2A O1A
ISOR 0.01 C1B F1B F2B C2B O1B
SIMU 0.02 C1B F1B F2B C2B O1B
DELU 0.02 C1B F1B F2B C2B O1B
FLAT O1A C1A C2A O1A_$10
DFIX 1.54 C1A C2A
DFIX 1.40 C1A F1A
DFIX 1.40 C1A F2A
DFIX 1.25 C2A O1A
DANG 2.30 C1A O1A
DANG 2.30 F1A F2A
FLAT O1B C1B C2B O1B_$10
DFIX 1.54 C1B C2B
DFIX 1.40 C1B F1B
DFIX 1.40 C1B F2B
DFIX 1.25 C2B O1B
DANG 2.30 C1B O1B
DANG 2.30 C2B F2B
DANG 2.20 F1B F2B
DANG 2.30 F2B F2B_$11
EQIV $11  -x+2, y, z
EQIV $10  -x, y, z
TEMP -30
htab
SIZE 0.06 0.06 0.06
ABIN
WGHT    0.200000
EXTI    0.012918
FVAR       0.10244
ZR1   5    0.000000    0.000000    0.106963    10.12500    0.05173    0.05173 =
         0.04194    0.00000    0.00000    0.00000
ZR2   5    0.101128    0.101128    0.000000    10.25000    0.06051    0.06051 =
         0.04499    0.00000    0.00000   -0.01285
O1M   3    0.099407    0.000000    0.051641    10.50000    0.15225    0.06967 =
         0.06891    0.00000    0.05261    0.00000
O1    3    0.075518    0.075518    0.155857    10.50000    0.06316    0.06316 =
         0.05629   -0.00090   -0.00090   -0.00829
O2    3    0.141773    0.141773    0.088638    10.50000    0.10130    0.10130 =
         0.05373   -0.00931   -0.00931   -0.05193
O1S   3    0.098503    0.227030    0.000000    10.50000    0.13481    0.06623 =
         0.07286    0.00000    0.00000   -0.02817
C1    1    0.125224    0.125224    0.140461    10.50000    0.07879    0.07879 =
         0.04823   -0.00638   -0.00638   -0.01762
C2    1    0.167292    0.167292    0.189235    10.50000    0.09243    0.09243 =
         0.06457   -0.00528   -0.00528   -0.03890
C3    1    0.150270    0.150270    0.244094    10.50000    0.18261    0.18261 =
         0.06155   -0.01495   -0.01495   -0.12501
AFIX  43
H3    2    0.112963    0.112963    0.252418    10.50000   -1.20000
AFIX   0
C4    1    0.187216    0.187216    0.288399    10.50000    0.26628    0.26628 =
         0.05594   -0.02178   -0.02178   -0.19935
AFIX  43
H4    2    0.174767    0.174767    0.327137    10.50000   -1.20000
AFIX   0
C5    1    0.217645    0.217645    0.176666    10.50000    0.15791    0.15791 =
         0.06120   -0.01246   -0.01246   -0.09075
AFIX  43
H5    2    0.228187    0.228187    0.137279    10.50000   -1.20000
AFIX   0
C6    1    0.259256    0.259256    0.221719    10.50000    0.11929    0.11929 =
         0.05568   -0.00701   -0.00701   -0.05793
PART 1
C1A   1    1.000000    0.305615    0.118443    10.12500    0.15290    0.14649 =
         0.14095   -0.01220    0.00000    0.00000
F1A   4    1.000000    0.229301    0.135637    10.12500    0.08576    0.15471 =
         0.10471   -0.01305    0.00000    0.00000
F2A   4    0.932257    0.320122    0.088950    10.25000    0.19421    0.08957 =
         0.14062   -0.04090    0.00699    0.03270
C2A   1    1.000000    0.343688    0.178267    10.12500    0.15409    0.14728 =
         0.14252   -0.00513    0.00000    0.00000
O1A   3    0.936227    0.356322    0.198119    10.25000    0.15199    0.14364 =
         0.13136   -0.01588   -0.01656    0.00611
PART 2
C1B   1    1.000000    0.378180    0.191161    10.12500    0.19960    0.19476 =
         0.19284   -0.00418    0.00000    0.00000
F1B   4    1.000000    0.310329    0.221435    10.12500    0.19381    0.19337 =
         0.18830   -0.00122    0.00000    0.00000
F2B   4    0.933000    0.407139    0.180401    10.25000    0.25660    0.19014 =
         0.21937   -0.02498   -0.01998    0.03046
C2B   1    1.000000    0.310838    0.150737    10.12500    0.19171    0.19026 =
         0.19016   -0.00022    0.00000    0.00000
O1B   3    1.040786    0.270419    0.126472    10.25000    0.18661    0.18477 =
         0.18081   -0.00099   -0.00302    0.00560
PART 0
HKLF 4

REM  P16_054Ttg in I4/mmm
REM R1 =  0.1050 for    1915 Fo > 4sig(Fo)  and  0.1817 for all    4582 data
REM    141 parameters refined using    147 restraints

END

WGHT      0.2000      0.0000

REM No hydrogen bonds found for HTAB generation

REM Highest difference peak  1.594,  deepest hole -2.104,  1-sigma level  0.168
Q1    1   0.1376  0.1376  0.0000  10.25000  0.05    1.59
Q2    1   0.0383  0.0383  0.1066  10.50000  0.05    1.42
Q3    1   0.0638  0.0638  0.0000  10.25000  0.05    1.37
Q4    1   0.1346  0.0694  0.0000  10.50000  0.05    1.23
Q5    1   0.0000  0.1265  0.0580  10.50000  0.05    0.87
Q6    1   0.0000  0.4188  0.1703  10.50000  0.05    0.74
Q7    1   0.1266  0.1266  0.0795  10.50000  0.05    0.70
Q8    1   0.1182  0.3410 -0.0742  11.00000  0.05    0.66
Q9    1   0.1112  0.1112  0.0863  10.50000  0.05    0.65
Q10   1   0.0000  0.2439  0.1857  10.50000  0.05    0.60
Q11   1   0.0000  0.2355  0.0000  10.25000  0.05    0.52
Q12   1   0.0525  0.1176  0.0316  11.00000  0.05    0.49
Q13   1   0.1715  0.1715  0.0698  10.50000  0.05    0.49
Q14   1   0.0496  0.0000  0.0748  10.50000  0.05    0.48
Q15   1   0.0000  0.0000  0.0495  10.12500  0.05    0.48
Q16   1   0.2206  0.0000  0.0134  10.50000  0.05    0.47
Q17   1   0.0000  0.2634  0.1316  10.50000  0.05    0.46
Q18   1  -0.0174  0.3133  0.2308  11.00000  0.05    0.45
Q19   1  -0.0260  0.2332  0.1107  11.00000  0.05    0.45
Q20   1   0.1785  0.1785  0.0889  10.50000  0.05    0.44
Q21   1   0.5000  0.5000  0.2012  10.12500  0.05    0.44
Q22   1   0.0000  0.0000  0.0231  10.12500  0.05    0.42
Q23   1   0.0000  0.2160  0.0903  10.50000  0.05    0.42
Q24   1   0.1114  0.2710 -0.0303  11.00000  0.05    0.42
Q25   1   0.3210  0.3210  0.0129  10.50000  0.05    0.41
Q26   1   0.0199  0.3007  0.1271  11.00000  0.05    0.40
Q27   1   0.0999  0.3243 -0.0172  11.00000  0.05    0.39
Q28   1   0.2063  0.2063  0.0882  10.50000  0.05    0.39
Q29   1   0.0820  0.3294  0.0000  10.50000  0.05    0.39
Q30   1   0.5000  0.5000  0.0509  10.12500  0.05    0.39
Q31   1   0.2645  0.2645  0.0000  10.25000  0.05    0.38
Q32   1   0.0000  0.3126  0.0752  10.50000  0.05    0.38
Q33   1   0.1062  0.2087  0.0342  11.00000  0.05    0.38
Q34   1   0.5000  0.5000  0.0724  10.12500  0.05    0.38
Q35   1   0.3596  0.3596  0.0218  10.50000  0.05    0.37
Q36   1   0.3298  0.3298  0.0482  10.50000  0.05    0.36
Q37   1   0.0000  0.3356  0.0967  10.50000  0.05    0.36
Q38   1   0.5000  0.5000  0.0972  10.12500  0.05    0.36
Q39   1   0.0186  0.3290 -0.0919  11.00000  0.05    0.36
Q40   1  -0.0208  0.1794  0.1115  11.00000  0.05    0.35
Q41   1   0.5000  0.5000  0.1394  10.12500  0.05    0.35
Q42   1   0.3516  0.3516  0.0535  10.50000  0.05    0.35
Q43   1   0.5000  0.4805  0.0169  10.50000  0.05    0.35
Q44   1   0.1068  0.3796  0.0000  10.50000  0.05    0.35
Q45   1   0.1265  0.1858  0.0529  11.00000  0.05    0.34
Q46   1   0.0000  0.3646  0.1533  10.50000  0.05    0.34
Q47   1   0.1024  0.1024  0.1615  10.50000  0.05    0.34
Q48   1  -0.0277  0.3582  0.1620  11.00000  0.05    0.33
Q49   1   0.1624  0.1097  0.1107  11.00000  0.05    0.33
Q50   1   0.3367  0.3367  0.0716  10.50000  0.05    0.33
;
_shelx_res_checksum              59328
_shelx_fab_file
;
    0    2    2    -68.14      0.00
    0    3    3     70.12      0.00
    0    4    4    -19.45      0.00
    0    5    5    -21.62      0.00
    0    6    6      2.86      0.00
    0    7    7      0.34      0.00
    0    8    8      0.00      0.00
    0    9    9      4.97      0.00
    0   10   10      0.51      0.00
    0   11   11     -1.57      0.00
    0   12   12      1.53      0.00
    0   13   13      0.20      0.00
    0   14   14     -2.37      0.00
    0   15   15     -2.44      0.00
    0   16   16     -0.13      0.00
    0   17   17      4.26      0.00
    0   18   18      0.58      0.00
    0   19   19     -0.10      0.00
    0   20   20      2.30      0.00
    0   21   21      0.82      0.00
    0   22   22     -2.97      0.00
    0   23   23      1.10      0.00
    1   22   23      2.27      0.00
    1   21   22     -1.61      0.00
    1   20   21     -2.37      0.00
    1   19   20      0.99      0.00
    1   18   19     -0.63      0.00
    1   17   18     -2.35      0.00
    1   16   17      0.92      0.00
    1   15   16      3.16      0.00
    1   14   15      1.90      0.00
    1   13   14     -0.68      0.00
    1   12   13     -1.44      0.00
    1   11   12      0.03      0.00
    1   10   11     -1.35      0.00
    1    9   10     -2.05      0.00
    1    8    9      1.14      0.00
    1    7    8     -0.34      0.00
    1    6    7      3.91      0.00
    1    5    6      6.35      0.00
    1    4    5     -8.66      0.00
    1    3    4     -3.44      0.00
    1    2    3     38.93      0.00
    1    1    2    -44.67      0.00
    1    2    1     23.35      0.00
    1    3    2    -12.35      0.00
    1    4    3     12.56      0.00
    1    5    4     16.37      0.00
    1    6    5     -1.86      0.00
    1    7    6     -3.07      0.00
    1    8    7     -0.14      0.00
    1    9    8     -0.30      0.00
    1   10    9     -1.06      0.00
    1   11   10      0.85      0.00
    1   12   11     -0.74      0.00
    1   13   12     -0.06      0.00
    1   14   13      1.10      0.00
    1   15   14     -0.15      0.00
    1   16   15      0.12      0.00
    1   17   16     -5.36      0.00
    1   18   17      2.78      0.00
    1   19   18     -0.44      0.00
    1   20   19      0.84      0.00
    1   21   20     -1.15      0.00
    1   22   21      2.87      0.00
    1   23   22      0.89      0.00
    2   21   23     -1.62      0.00
    2   20   22     -1.54      0.00
    2   19   21      0.13      0.00
    2   18   20      0.32      0.00
    2   17   19     -0.60      0.00
    2   16   18      1.25      0.00
    2   15   17     -2.16      0.00
    2   14   16     -0.74      0.00
    2   13   15      2.26      0.00
    2   12   14     -0.30      0.00
    2   11   13      0.22      0.00
    2   10   12      3.28      0.00
    2    9   11     -2.64      0.00
    2    8   10     -0.18      0.00
    2    7    9     -2.86      0.00
    2    6    8      2.36      0.00
    2    5    7      3.50      0.00
    2    4    6     -5.24      0.00
    2    3    5      4.78      0.00
    2    2    4     17.62      0.00
    2    2    0     14.77      0.00
    2    3    1    -18.76      0.00
    2    4    2      0.69      0.00
    2    5    3     -3.85      0.00
    2    6    4     -0.77      0.00
    2    7    5     -5.98      0.00
    2    8    6      7.11      0.00
    2    9    7     -5.05      0.00
    2   10    8     -1.37      0.00
    2   11    9      2.30      0.00
    2   12   10     -0.91      0.00
    2   13   11      2.55      0.00
    2   14   12     -1.26      0.00
    2   15   13      1.13      0.00
    2   16   14      0.41      0.00
    2   17   15      4.89      0.00
    2   18   16     -7.33      0.00
    2   19   17      0.34      0.00
    2   20   18      0.58      0.00
    2   21   19     -2.12      0.00
    2   22   20      6.53      0.00
    2   23   21     -9.29      0.00
    3   21   24      2.70      0.00
    3   20   23      2.10      0.00
    3   19   22      0.60      0.00
    3   18   21     -0.99      0.00
    3   17   20     -0.93      0.00
    3   16   19     -1.33      0.00
    3   15   18      0.71      0.00
    3   14   17      0.63      0.00
    3   13   16     -0.89      0.00
    3   12   15      0.01      0.00
    3   11   14     -2.36      0.00
    3   10   13      0.30      0.00
    3    9   12      1.55      0.00
    3    8   11     -1.58      0.00
    3    7   10      0.10      0.00
    3    6    9     -0.13      0.00
    3    5    8     -5.98      0.00
    3    4    7     -6.08      0.00
    3    3    6      4.45      0.00
    3    3    0    -29.27      0.00
    3    4    1     13.39      0.00
    3    5    2      2.65      0.00
    3    6    3     -0.53      0.00
    3    7    4      2.98      0.00
    3    8    5      1.55      0.00
    3    9    6      2.40      0.00
    3   10    7      0.73      0.00
    3   11    8     -0.06      0.00
    3   12    9     -1.34      0.00
    3   13   10     -1.26      0.00
    3   14   11      0.35      0.00
    3   15   12     -0.30      0.00
    3   16   13     -2.39      0.00
    3   17   14      0.36      0.00
    3   18   15      5.18      0.00
    3   19   16     -0.72      0.00
    3   20   17     -2.95      0.00
    3   21   18      2.96      0.00
    3   22   19    -10.51      0.00
    3   23   20     11.87      0.00
    4   20   24     -0.59      0.00
    4   19   23     -1.19      0.00
    4   18   22      0.56      0.00
    4   17   21      1.97      0.00
    4   16   20     -2.25      0.00
    4   15   19      0.10      0.00
    4   14   18     -0.28      0.00
    4   13   17     -0.06      0.00
    4   12   16      0.58      0.00
    4   11   15      0.82      0.00
    4   10   14     -1.29      0.00
    4    9   13      2.44      0.00
    4    8   12      2.23      0.00
    4    7   11     -0.19      0.00
    4    6   10      4.00      0.00
    4    5    9      0.60      0.00
    4    4    8      2.65      0.00
    4    4    0     10.14      0.00
    4    5    1     -4.81      0.00
    4    6    2     -4.95      0.00
    4    7    3      3.53      0.00
    4    8    4     -6.19      0.00
    4    9    5     -1.68      0.00
    4   10    6      1.20      0.00
    4   11    7     -0.61      0.00
    4   12    8     -1.26      0.00
    4   13    9      0.79      0.00
    4   14   10      0.45      0.00
    4   15   11      1.06      0.00
    4   16   12     -1.31      0.00
    4   17   13     -1.58      0.00
    4   18   14      0.87      0.00
    4   19   15     -0.87      0.00
    4   20   16      2.60      0.00
    4   21   17      0.44      0.00
    4   22   18      3.14      0.00
    4   23   19     -4.98      0.00
    5   19   24      2.50      0.00
    5   18   23      3.49      0.00
    5   17   22      0.63      0.00
    5   16   21     -0.49      0.00
    5   15   20     -0.06      0.00
    5   14   19      0.40      0.00
    5   13   18      0.12      0.00
    5   12   17     -0.92      0.00
    5   11   16      0.72      0.00
    5   10   15     -0.47      0.00
    5    9   14     -0.56      0.00
    5    8   13     -1.33      0.00
    5    7   12     -0.50      0.00
    5    6   11     -1.77      0.00
    5    5   10      3.43      0.00
    5    5    0      1.85      0.00
    5    6    1     -5.61      0.00
    5    7    2      1.28      0.00
    5    8    3      1.53      0.00
    5    9    4      1.31      0.00
    5   10    5      1.40      0.00
    5   11    6      1.46      0.00
    5   12    7     -1.25      0.00
    5   13    8      2.69      0.00
    5   14    9      0.31      0.00
    5   15   10      0.27      0.00
    5   16   11     -1.10      0.00
    5   17   12      3.20      0.00
    5   18   13      0.01      0.00
    5   19   14     -3.85      0.00
    5   20   15      0.16      0.00
    5   21   16      2.13      0.00
    5   22   17     -1.69      0.00
    5   23   18      1.20      0.00
    6   18   24      1.49      0.00
    6   17   23     -3.27      0.00
    6   16   22      5.48      0.00
    6   15   21     -0.93      0.00
    6   14   20      0.89      0.00
    6   13   19      1.80      0.00
    6   12   18      0.74      0.00
    6   11   17     -3.83      0.00
    6   10   16      0.63      0.00
    6    9   15     -0.85      0.00
    6    8   14      0.28      0.00
    6    7   13     -0.56      0.00
    6    6   12     -2.06      0.00
    6    6    0     13.08      0.00
    6    7    1      3.25      0.00
    6    8    2     -4.04      0.00
    6    9    3      1.59      0.00
    6   10    4     -2.12      0.00
    6   11    5     -2.09      0.00
    6   12    6      0.34      0.00
    6   13    7     -3.15      0.00
    6   14    8     -0.18      0.00
    6   15    9     -1.02      0.00
    6   16   10      0.18      0.00
    6   17   11     -2.11      0.00
    6   18   12      2.40      0.00
    6   19   13      1.15      0.00
    6   20   14     -0.89      0.00
    6   21   15     -1.48      0.00
    6   22   16      1.22      0.00
    6   23   17      0.37      0.00
    7   17   24     -1.03      0.00
    7   16   23      1.43      0.00
    7   15   22     -7.98      0.00
    7   14   21      4.18      0.00
    7   13   20     -2.35      0.00
    7   12   19     -0.16      0.00
    7   11   18      2.61      0.00
    7   10   17      0.93      0.00
    7    9   16      0.54      0.00
    7    8   15      0.84      0.00
    7    7   14      2.13      0.00
    7    7    0    -10.62      0.00
    7    8    1     -0.16      0.00
    7    9    2      1.06      0.00
    7   10    3     -0.49      0.00
    7   11    4      4.35      0.00
    7   12    5     -0.15      0.00
    7   13    6      0.59      0.00
    7   14    7      1.69      0.00
    7   15    8     -0.09      0.00
    7   16    9      2.36      0.00
    7   17   10     -0.46      0.00
    7   18   11     -1.81      0.00
    7   19   12     -1.67      0.00
    7   20   13      3.26      0.00
    7   21   14      1.22      0.00
    7   22   15     -4.94      0.00
    7   23   16      1.60      0.00
    8   16   24      0.03      0.00
    8   15   23     -0.21      0.00
    8   14   22     -0.36      0.00
    8   13   21      1.19      0.00
    8   12   20     -0.32      0.00
    8   11   19     -0.49      0.00
    8   10   18     -1.43      0.00
    8    9   17     -2.58      0.00
    8    8    0      7.40      0.00
    8    9    1     -0.87      0.00
    8   10    2     -2.48      0.00
    8   11    3     -0.12      0.00
    8   12    4      1.42      0.00
    8   13    5     -1.87      0.00
    8   14    6      0.63      0.00
    8   15    7     -1.02      0.00
    8   16    8     -4.53      0.00
    8   17    9      1.42      0.00
    8   18   10      2.19      0.00
    8   19   11      0.11      0.00
    8   20   12     -3.36      0.00
    8   21   13     -2.92      0.00
    8   22   14     10.42      0.00
    8   23   15     -6.73      0.00
    9    9    0     -1.02      0.00
    9   10    1      0.02      0.00
    9   11    2     -2.27      0.00
    9   12    3     -1.92      0.00
    9   13    4      0.84      0.00
    9   14    5      1.72      0.00
    9   15    6      1.29      0.00
    9   16    7      1.87      0.00
    9   17    8      1.03      0.00
    9   18    9     -1.38      0.00
    9   19   10      3.04      0.00
    9   20   11     -1.78      0.00
    9   21   12      2.13      0.00
    9   22   13     -3.11      0.00
   10   10    0      6.16      0.00
   10   11    1     -0.72      0.00
   10   12    2      0.06      0.00
   10   13    3      0.17      0.00
   10   14    4     -0.72      0.00
   10   15    5     -0.75      0.00
   10   16    6     -0.15      0.00
   10   17    7     -4.56      0.00
   10   18    8      2.70      0.00
   10   19    9     -2.01      0.00
   10   20   10      0.30      0.00
   10   21   11      0.48      0.00
   10   22   12     -3.92      0.00
   11   11    0      1.42      0.00
   11   12    1     -0.54      0.00
   11   13    2     -0.30      0.00
   11   14    3     -0.68      0.00
   11   15    4     -0.37      0.00
   11   16    5      2.54      0.00
   11   17    6     -0.86      0.00
   11   18    7      1.28      0.00
   11   19    8      0.21      0.00
   11   20    9      2.37      0.00
   11   21   10     -0.62      0.00
   11   22   11      2.47      0.00
   12   12    0      3.05      0.00
   12   13    1     -1.71      0.00
   12   14    2      0.15      0.00
   12   15    3     -0.34      0.00
   12   16    4      0.96      0.00
   12   17    5      1.63      0.00
   12   18    6     -5.11      0.00
   12   19    7      1.97      0.00
   12   20    8     -2.66      0.00
   12   21    9     -1.42      0.00
   12   22   10      1.87      0.00
   13   13    0      0.67      0.00
   13   14    1      1.16      0.00
   13   15    2      0.12      0.00
   13   16    3     -1.62      0.00
   13   17    4      0.10      0.00
   13   18    5      0.24      0.00
   13   19    6      1.33      0.00
   13   20    7      2.49      0.00
   13   21    8     -4.87      0.00
   14   14    0      1.71      0.00
   14   15    1     -2.21      0.00
   14   16    2      0.98      0.00
   14   17    3      1.48      0.00
   14   18    4     -0.04      0.00
   14   19    5      0.60      0.00
   14   20    6     -0.95      0.00
   14   21    7      2.45      0.00
   15   15    0     -1.56      0.00
   15   16    1      0.92      0.00
   15   17    2     -0.27      0.00
   15   18    3     -0.30      0.00
   15   19    4     -2.00      0.00
   15   20    5     -0.33      0.00
   15   21    6      5.64      0.00
   16   16    0      1.46      0.00
   16   17    1     -0.69      0.00
   16   18    2      0.02      0.00
   16   19    3     -1.12      0.00
   16   20    4      0.80      0.00
   17   17    0     -5.43      0.00
   17   18    1      3.94      0.00
   17   19    2      5.87      0.00
   17   20    3     -4.76      0.00
   18   18    0     -4.53      0.00
   18   19    1     -1.77      0.00
   19   19    0     -6.98      0.00
   18   20    2      5.83      0.00
   16   21    5     -1.16      0.00
   17   21    4     -0.88      0.00
   13   22    9      2.17      0.00
   14   22    8     -6.12      0.00
   15   22    7     -2.08      0.00
   16   22    6     -4.17      0.00
   17   22    5      6.27      0.00
    9   23   14      3.69      0.00
   10   23   13      1.19      0.00
   11   23   12     -0.80      0.00
   12   23   11      3.91      0.00
   13   23   10     -1.11      0.00
   14   23    9      3.49      0.00
   15   23    8      4.44      0.00
   16   23    7     -0.23      0.00
   13   24   11     -6.65      0.00
   14   24   10      6.92      0.00
   15   24    9     -7.93      0.00
   16   23    9      1.98      0.00
   15   23   10      3.99      0.00
   14   23   11     -1.80      0.00
   13   23   12     -1.49      0.00
   12   23   13      1.16      0.00
   11   23   14      2.02      0.00
   10   23   15      0.86      0.00
   17   22    7     -0.58      0.00
   16   22    8     -4.21      0.00
   15   22    9      0.73      0.00
   14   22   10     -2.33      0.00
   13   22   11     -2.53      0.00
   12   22   12     -0.85      0.00
   11   22   13      1.04      0.00
   10   22   14     -0.16      0.00
    9   22   15     -6.00      0.00
    8   22   16      4.06      0.00
    7   22   17      2.80      0.00
   17   21    6      0.03      0.00
   16   21    7     -3.54      0.00
   15   21    8      3.03      0.00
   14   21    9      5.73      0.00
   13   21   10      4.69      0.00
   12   21   11     -6.93      0.00
   11   21   12      0.23      0.00
   10   21   13      3.33      0.00
    9   21   14      2.34      0.00
    8   21   15     -6.25      0.00
    7   21   16     -0.64      0.00
    6   21   17     -2.89      0.00
    5   21   18     -4.57      0.00
   18   20    4      5.76      0.00
   17   20    5     -3.35      0.00
   16   20    6      5.82      0.00
   15   20    7     -2.49      0.00
   14   20    8     -8.60      0.00
   13   20    9      3.91      0.00
   12   20   10     -0.27      0.00
   11   20   11      3.67      0.00
   10   20   12     -3.52      0.00
    9   20   13      0.12      0.00
    8   20   14      2.32      0.00
    7   20   15     -0.32      0.00
    6   20   16      2.03      0.00
    5   20   17      0.11      0.00
   19   19    2      0.32      0.00
   18   19    3     -5.56      0.00
   17   19    4      0.31      0.00
   16   19    5      0.27      0.00
   15   19    6     -0.89      0.00
   14   19    7      3.07      0.00
   13   19    8      0.62      0.00
   12   19    9     -1.74      0.00
   11   19   10     -0.49      0.00
   10   19   11      1.34      0.00
    9   19   12      0.35      0.00
    8   19   13      3.43      0.00
    7   19   14     -0.51      0.00
    6   19   15      1.21      0.00
    5   19   16      0.25      0.00
    4   19   17     -2.85      0.00
   18   18    2      4.73      0.00
   17   18    3     -2.29      0.00
   16   18    4      0.44      0.00
   15   18    5     -0.43      0.00
   14   18    6      0.85      0.00
   13   18    7      1.33      0.00
   12   18    8     -4.16      0.00
   11   18    9      0.89      0.00
   10   18   10     -1.23      0.00
    9   18   11     -0.86      0.00
    8   18   12     -4.70      0.00
    7   18   13      0.02      0.00
    6   18   14      0.60      0.00
    5   18   15      1.72      0.00
    4   18   16      0.85      0.00
   17   20    1      0.73      0.00
   17   19    0      3.39      0.00
   17   17    2     -0.33      0.00
   16   17    3      0.39      0.00
   15   17    4     -3.90      0.00
   14   17    5      0.16      0.00
   13   17    6      1.55      0.00
   12   17    7      3.44      0.00
   11   17    8     -0.91      0.00
   10   17    9     -0.52      0.00
    9   17   10      3.58      0.00
    8   17   11     -0.16      0.00
    7   17   12      0.13      0.00
    6   17   13      0.03      0.00
    5   17   14     -1.21      0.00
    4   17   15      0.42      0.00
    3   17   16     -7.15      0.00
   16   21    3     -0.39      0.00
   16   20    2     -0.61      0.00
   16   19    1     -4.36      0.00
   16   18    0     -4.04      0.00
   16   16    2      1.31      0.00
   15   16    3      2.28      0.00
   14   16    4     -0.22      0.00
   13   16    5     -3.94      0.00
   12   16    6      0.49      0.00
   11   16    7      1.41      0.00
   10   16    8     -1.40      0.00
    9   16    9      1.09      0.00
    8   16   10     -0.19      0.00
    7   16   11     -0.88      0.00
    6   16   12     -1.12      0.00
    5   16   13     -1.33      0.00
    4   16   14      2.90      0.00
    3   16   15     -1.21      0.00
    2   16   16     -1.10      0.00
   15   21    4      0.64      0.00
   15   20    3      3.17      0.00
   15   19    2      2.32      0.00
   15   18    1     -0.59      0.00
   15   17    0      2.01      0.00
   15   15    2     -0.37      0.00
   14   15    3     -0.52      0.00
   13   15    4      1.54      0.00
   12   15    5     -0.09      0.00
   11   15    6     -0.66      0.00
   10   15    7     -2.74      0.00
    9   15    8      0.94      0.00
    8   15    9     -0.50      0.00
    7   15   10      2.90      0.00
    6   15   11     -0.89      0.00
    5   15   12      0.56      0.00
    4   15   13      2.21      0.00
    3   15   14      0.94      0.00
    2   15   15     -0.58      0.00
   14   21    5     -2.64      0.00
   14   20    4     -4.16      0.00
   14   19    3      2.42      0.00
   14   18    2     -0.92      0.00
   14   17    1     -2.24      0.00
   14   16    0      1.30      0.00
   14   14    2     -0.91      0.00
   13   14    3      1.46      0.00
   12   14    4      0.85      0.00
   11   14    5      0.65      0.00
   10   14    6      1.15      0.00
    9   14    7     -1.82      0.00
    8   14    8      2.22      0.00
    7   14    9      0.55      0.00
    6   14   10     -0.79      0.00
    5   14   11     -0.53      0.00
    4   14   12     -0.49      0.00
    3   14   13     -1.01      0.00
    2   14   14     -1.31      0.00
   13   22    7      0.74      0.00
   13   21    6      0.59      0.00
   13   20    5      1.58      0.00
   13   19    4     -1.49      0.00
   13   18    3      3.42      0.00
   13   17    2     -1.21      0.00
   13   16    1      0.82      0.00
   13   15    0      1.20      0.00
   13   13    2     -3.87      0.00
   12   13    3      1.65      0.00
   11   13    4     -0.25      0.00
   10   13    5      0.92      0.00
    9   13    6     -1.02      0.00
    8   13    7     -3.29      0.00
    7   13    8      1.36      0.00
    6   13    9     -2.31      0.00
    5   13   10     -0.34      0.00
    4   13   11      1.24      0.00
    3   13   12     -1.90      0.00
    2   13   13      0.48      0.00
   12   22    8      3.64      0.00
   12   21    7     -2.19      0.00
   12   20    6     -0.12      0.00
   12   19    5     -0.26      0.00
   12   18    4     -2.15      0.00
   12   17    3      1.53      0.00
   12   16    2     -1.63      0.00
   12   15    1     -0.82      0.00
   12   14    0      3.59      0.00
   12   12    2     -2.95      0.00
   11   12    3      0.53      0.00
   10   12    4      3.38      0.00
    9   12    5     -1.70      0.00
    8   12    6     -0.73      0.00
    7   12    7      2.27      0.00
    6   12    8      2.71      0.00
    5   12    9     -1.22      0.00
    4   12   10     -0.87      0.00
    3   12   11      3.45      0.00
    2   12   12     -2.19      0.00
   11   22    9      0.47      0.00
   11   21    8     -1.75      0.00
   11   20    7     -1.01      0.00
   11   19    6      2.22      0.00
   11   18    5     -0.38      0.00
   11   17    4     -1.52      0.00
   11   16    3      0.22      0.00
   11   15    2      1.22      0.00
   11   14    1     -1.98      0.00
   11   13    0      4.43      0.00
   11   11    2     -2.58      0.00
   10   11    3      0.94      0.00
    9   11    4     -0.68      0.00
    8   11    5      2.39      0.00
    7   11    6     -1.67      0.00
    6   11    7     -0.39      0.00
    5   11    8      2.00      0.00
    4   11    9     -0.79      0.00
    3   11   10      2.90      0.00
    2   11   11     -0.23      0.00
    0   11   13      4.65      0.00
   10   23   11     -1.61      0.00
   10   22   10     -1.84      0.00
   10   21    9      1.33      0.00
   10   20    8      3.72      0.00
   10   19    7     -4.09      0.00
   10   18    6      4.72      0.00
   10   17    5     -0.94      0.00
   10   16    4      0.10      0.00
   10   15    3     -0.75      0.00
   10   14    2     -1.53      0.00
   10   13    1     -1.07      0.00
   10   12    0      1.61      0.00
   10   10    2      2.54      0.00
    9   10    3     -0.60      0.00
    8   10    4      0.39      0.00
    7   10    5     -3.88      0.00
    6   10    6     -0.25      0.00
    5   10    7     -0.13      0.00
    4   10    8     -2.87      0.00
    3   10    9     -1.84      0.00
    2   10   10      2.20      0.00
    0   10   12      0.95      0.00
    9   23   12     -1.53      0.00
    9   22   11      0.79      0.00
    9   21   10      1.15      0.00
    9   20    9     -0.51      0.00
    9   19    8     -2.44      0.00
    9   18    7     -0.17      0.00
    9   17    6      1.12      0.00
    9   16    5     -0.06      0.00
    9   15    4     -0.03      0.00
    9   14    3     -0.07      0.00
    9   13    2      2.05      0.00
    9   12    1     -0.01      0.00
    9   11    0     -1.75      0.00
    9    9    2     -0.73      0.00
    8    9    3      0.93      0.00
    7    9    4     -0.31      0.00
    6    9    5      0.96      0.00
    5    9    6      2.87      0.00
    4    9    7      1.06      0.00
    3    9    8     -0.83      0.00
    2    9    9     -1.55      0.00
    0    9   11     -1.67      0.00
    8   23   13     -6.93      0.00
    8   22   12      2.81      0.00
    8   21   11     -0.86      0.00
    8   20   10     -1.31      0.00
    8   19    9     -0.54      0.00
    8   18    8      0.33      0.00
    8   17    7      1.28      0.00
    8   16    6      0.19      0.00
    8   15    5     -0.73      0.00
    8   14    4      0.52      0.00
    8   13    3      0.36      0.00
    8   12    2     -2.04      0.00
    8   11    1      0.77      0.00
    8   10    0     -3.25      0.00
    8    8    2      7.88      0.00
    7    8    3     -1.69      0.00
    6    8    4      1.32      0.00
    5    8    5     -3.05      0.00
    4    8    6     -2.98      0.00
    3    8    7      1.63      0.00
    2    8    8      2.42      0.00
    0    8   10      1.13      0.00
    1    8   11      0.64      0.00
    8   10   20      0.56      0.00
    8   11   21     -3.27      0.00
    8   12   22     -1.28      0.00
    8   13   23      4.66      0.00
    8   14   24     -4.49      0.00
    8   15   25     -0.02      0.00
    7   23   14     12.09      0.00
    7   22   13     -2.16      0.00
    7   21   12     -4.15      0.00
    7   20   11      4.62      0.00
    7   19   10      2.69      0.00
    7   18    9     -3.64      0.00
    7   17    8     -1.46      0.00
    7   16    7     -0.76      0.00
    7   15    6     -0.20      0.00
    7   14    5      1.45      0.00
    7   13    4     -0.93      0.00
    7   11    2      5.32      0.00
    7   10    1     -2.27      0.00
    7    9    0      2.85      0.00
    7    7    2     -9.37      0.00
    6    7    3      2.60      0.00
    5    7    4     -1.77      0.00
    4    7    5      8.96      0.00
    3    7    6      1.42      0.00
    2    7    7     -6.88      0.00
    0    7    9     -2.00      0.00
    1    7   10     -0.10      0.00
    6    7   15      0.72      0.00
    7    7   16     -1.55      0.00
    7    8   17     -0.10      0.00
    7    9   18     -1.16      0.00
    7   10   19      1.71      0.00
    7   11   20      4.58      0.00
    7   12   21     -2.66      0.00
    7   13   22     -4.23      0.00
    7   14   23      9.13      0.00
    7   15   24     -3.57      0.00
    7   16   25     -1.83      0.00
    6   23   15     -3.51      0.00
    6   22   14      0.89      0.00
    6   21   13     -0.38      0.00
    6   20   12     -0.01      0.00
    6   19   11     -0.19      0.00
    6   18   10      0.87      0.00
    6   17    9      2.43      0.00
    6   16    8      0.38      0.00
    6   15    7      0.14      0.00
    6   14    6     -2.20      0.00
    6   13    5     -0.18      0.00
    6   12    4      1.81      0.00
    6   11    3     -1.65      0.00
    6   10    2     -2.26      0.00
    6    9    1      1.35      0.00
    6    8    0     -7.93      0.00
    6    6    2     10.30      0.00
    5    6    3     -3.39      0.00
    4    6    4     -6.31      0.00
    3    6    5     -0.13      0.00
    2    6    6      1.37      0.00
    0    6    8     -1.17      0.00
    1    6    9      1.72      0.00
    2    6   10      0.18      0.00
    3    6   11     -5.00      0.00
    4    6   12      3.04      0.00
    5    6   13      0.70      0.00
    6    6   14     -1.52      0.00
    6    8   16     -1.03      0.00
    6    9   17     -0.98      0.00
    6   10   18     -1.08      0.00
    6   11   19     -1.57      0.00
    6   12   20      2.54      0.00
    6   13   21     -0.24      0.00
    6   14   22     -1.81      0.00
    6   15   23      2.71      0.00
    6   16   24      3.43      0.00
    6   17   25     -1.31      0.00
    5   23   16     -0.79      0.00
    5   22   15      1.19      0.00
    5   21   14      0.75      0.00
    5   20   13     -1.25      0.00
    5   19   12     -1.75      0.00
    5   18   11     -0.36      0.00
    5   17   10      0.52      0.00
    5   16    9      0.80      0.00
    5   15    8     -0.01      0.00
    5   14    7     -0.43      0.00
    5   13    6      0.91      0.00
    5   12    5      0.06      0.00
    5   11    4     -0.90      0.00
    5   10    3      0.99      0.00
    5    8    1      5.56      0.00
    5    7    0      2.45      0.00
    5    5    2     -4.76      0.00
    4    5    3      2.20      0.00
    3    5    4      3.45      0.00
    2    5    5     -0.17      0.00
    0    5    7     -3.76      0.00
    1    5    8      4.74      0.00
    2    5    9      2.33      0.00
    3    5   10     -3.62      0.00
    4    5   11     -4.46      0.00
    5    5   12      3.36      0.00
    5    7   14      0.66      0.00
    5    8   15     -0.20      0.00
    5    9   16      0.49      0.00
    5   10   17     -0.57      0.00
    5   11   18      1.08      0.00
    5   12   19     -3.28      0.00
    5   13   20      0.18      0.00
    5   14   21      0.28      0.00
    5   15   22     -1.11      0.00
    5   16   23     -0.80      0.00
    5   17   24     -0.62      0.00
    5   18   25     -4.42      0.00
    4   24   18      1.42      0.00
    4   23   17      0.28      0.00
    4   22   16     -0.73      0.00
    4   21   15      0.06      0.00
    4   20   14      1.68      0.00
    4   19   13     -0.16      0.00
    4   18   12      0.64      0.00
    4   17   11     -0.18      0.00
    4   16   10     -1.33      0.00
    4   15    9     -1.03      0.00
    4   14    8      0.40      0.00
    4   13    7      1.02      0.00
    4   12    6     -0.40      0.00
    4   11    5     -2.66      0.00
    4   10    4      1.37      0.00
    4    9    3     -1.97      0.00
    4    8    2     -3.57      0.00
    4    7    1      1.54      0.00
    4    6    0     -3.44      0.00
    4    4    2      8.22      0.00
    3    4    3     -1.40      0.00
    2    4    4     -0.45      0.00
    0    4    6      2.45      0.00
    1    4    7      1.14      0.00
    2    4    8      0.12      0.00
    3    4    9      0.67      0.00
    4    4   10      4.57      0.00
    4    7   13      0.46      0.00
    4    8   14      0.92      0.00
    4    9   15      2.36      0.00
    4   10   16      1.17      0.00
    4   11   17     -0.62      0.00
    4   12   18      2.36      0.00
    4   13   19     -1.55      0.00
    4   14   20     -1.01      0.00
    4   15   21      1.01      0.00
    4   16   22     -0.17      0.00
    4   17   23     -1.47      0.00
    4   18   24      0.67      0.00
    4   19   25      0.33      0.00
    3   24   19     -0.36      0.00
    3   23   18     -1.55      0.00
    3   22   17      3.01      0.00
    3   21   16     -0.90      0.00
    3   20   15     -1.91      0.00
    3   19   14     -0.68      0.00
    3   18   13     -1.18      0.00
    3   17   12      1.67      0.00
    3   16   11      0.67      0.00
    3   15   10      1.30      0.00
    3   14    9     -1.25      0.00
    3   13    8      1.34      0.00
    3   12    7      1.15      0.00
    3   11    6     -0.24      0.00
    3   10    5      2.52      0.00
    3    9    4     -2.13      0.00
    3    8    3     -0.84      0.00
    3    7    2      5.12      0.00
    3    6    1      3.00      0.00
    3    5    0     -0.49      0.00
    3    3    2    -13.24      0.00
    2    3    3    -13.67      0.00
    0    3    5      4.89      0.00
    1    3    6      3.84      0.00
    2    3    7      5.77      0.00
    3    3    8      2.20      0.00
    3    7   12     -0.44      0.00
    3    8   13      0.93      0.00
    3    9   14     -2.45      0.00
    3   10   15     -2.78      0.00
    3   11   16      0.91      0.00
    3   12   17      1.50      0.00
    3   13   18     -0.03      0.00
    3   14   19     -0.43      0.00
    3   15   20      1.13      0.00
    3   16   21      1.05      0.00
    3   17   22     -1.66      0.00
    3   18   23      4.16      0.00
    3   19   24     -2.62      0.00
    3   20   25     -0.42      0.00
    2   23   19    -10.73      0.00
    2   22   18      2.92      0.00
    2   21   17     -1.11      0.00
    2   20   16      3.57      0.00
    2   19   15      1.91      0.00
    2   18   14     -4.03      0.00
    2   17   13     -0.74      0.00
    2   16   12     -0.49      0.00
    2   15   11      0.85      0.00
    2   14   10     -2.32      0.00
    2   13    9     -2.00      0.00
    2   12    8     -0.95      0.00
    2   11    7      2.24      0.00
    2   10    6      0.25      0.00
    2    9    5     -4.34      0.00
    2    8    4      2.18      0.00
    2    7    3     -0.52      0.00
    2    6    2     -5.04      0.00
    2    5    1     -3.83      0.00
    2    4    0     10.81      0.00
    2    2    2     16.49      0.00
    0    2    4    -45.09      0.00
    1    2    5     -6.16      0.00
    2    2    6    -13.70      0.00
    2    7   11     -0.60      0.00
    2    8   12     -2.24      0.00
    2    9   13      0.03      0.00
    2   10   14      5.34      0.00
    2   11   15     -1.68      0.00
    2   12   16     -3.64      0.00
    2   13   17      5.32      0.00
    2   14   18     -2.14      0.00
    2   15   19     -1.45      0.00
    2   16   20      4.01      0.00
    2   17   21     -2.18      0.00
    2   18   22     -4.42      0.00
    2   19   23      2.84      0.00
    2   20   24      2.91      0.00
    1   24   21     -5.58      0.00
    1   23   20      5.45      0.00
    1   22   19     -0.62      0.00
    1   21   18      1.26      0.00
    1   20   17     -2.09      0.00
    1   19   16     -0.47      0.00
    1   18   15      7.89      0.00
    1   17   14     -2.11      0.00
    1   16   13      0.86      0.00
    1   15   12      0.72      0.00
    1   14   11      0.64      0.00
    1   13   10      2.08      0.00
    1   12    9     -1.35      0.00
    1   11    8      1.58      0.00
    1   10    7     -1.89      0.00
    1    9    6      2.11      0.00
    1    8    5      1.56      0.00
    1    7    4     -3.09      0.00
    1    6    3      7.24      0.00
    1    5    2     -4.29      0.00
    1    4    1    -17.04      0.00
    1    3    0     38.41      0.00
    0    1    3     59.28      0.00
    1    1    4    -32.17      0.00
    1    9   12     -0.28      0.00
    1   10   13      1.04      0.00
    1   11   14     -2.56      0.00
    1   12   15     -2.20      0.00
    1   13   16     -1.28      0.00
    1   14   17      1.17      0.00
    1   15   18     -0.72      0.00
    1   16   19      1.09      0.00
    1   17   20      2.29      0.00
    1   18   21     -3.03      0.00
    1   19   22      3.36      0.00
    1   20   23      2.73      0.00
    1   21   24      3.85      0.00
    0   24   22      3.27      0.00
    0   23   21     -3.13      0.00
    0   22   20     -2.68      0.00
    0   21   19     -0.94      0.00
    0   20   18      3.61      0.00
    0   19   17     -6.48      0.00
    0   18   16     -2.44      0.00
    0   17   15      2.24      0.00
    0   16   14      0.32      0.00
    0   15   13     -0.90      0.00
    0   14   12      1.02      0.00
    0   13   11     -1.25      0.00
    0   12   10     -0.18      0.00
    0   11    9      1.30      0.00
    0   10    8     -1.50      0.00
    0    9    7      0.02      0.00
    0    8    6      5.08      0.00
    0    7    5     -8.23      0.00
    0    6    4      5.60      0.00
    0    5    3     13.59      0.00
    0    4    2    -43.09      0.00
    0    3    1     -8.47      0.00
    0    2    0     46.44      0.00
    0    0    2    201.40      0.00
    0   12   14      1.73      0.00
    0   13   15     -0.55      0.00
    0   14   16      0.28      0.00
    0   15   17     -2.43      0.00
    0   16   18     -2.96      0.00
    0   17   19      1.20      0.00
    0   18   20      3.54      0.00
    0   19   21     -5.71      0.00
    0   20   22     -2.93      0.00
    0   21   23      4.08      0.00
    0   22   24     -1.63      0.00
    2   22   22     -2.54      0.00
    2   21   21      2.20      0.00
    2   20   20     -0.09      0.00
    2   19   19      2.21      0.00
    2   18   18     -1.72      0.00
    2   17   17      5.43      0.00
    3   21   22     -0.25      0.00
    3   20   21     -1.20      0.00
    3   19   20      4.28      0.00
    3   18   19     -2.56      0.00
    3   17   18     -4.35      0.00
    3   16   17      2.87      0.00
    3   15   16     -0.58      0.00
    3   14   15     -0.60      0.00
    3   13   14      3.30      0.00
    3   12   13      3.33      0.00
    3   11   12     -1.99      0.00
    3   10   11     -4.92      0.00
    3    9   10      5.40      0.00
    3    8    9      5.00      0.00
    3    7    8     -1.67      0.00
    3    6    7     -1.64      0.00
    3    5    6     -4.33      0.00
    3    4    5     -5.29      0.00
    3    3    4      2.07      0.00
    3   18   17      3.77      0.00
    3   19   18      1.06      0.00
    3   20   19     -1.06      0.00
    3   21   20      3.81      0.00
    3   22   21     -9.35      0.00
    3   23   22      6.70      0.00
    4   21   23      3.39      0.00
    4   20   22     -0.55      0.00
    4   19   21     -6.42      0.00
    4   18   20      4.25      0.00
    4   17   19      1.71      0.00
    4   16   18      0.68      0.00
    4   15   17      0.07      0.00
    4   14   16     -1.79      0.00
    4   13   15     -1.24      0.00
    4   12   14      0.48      0.00
    4   11   13      1.80      0.00
    4   10   12      0.52      0.00
    4    9   11     -2.85      0.00
    4    8   10     -1.61      0.00
    4    7    9      4.61      0.00
    4    6    8     -0.46      0.00
    4    5    7      4.20      0.00
    4    4    6      4.52      0.00
    4   20   18     -3.70      0.00
    4   21   19      4.58      0.00
    4   22   20      6.12      0.00
    4   23   21     -4.03      0.00
    5   20   23     -4.47      0.00
    5   19   22      4.60      0.00
    5   18   21      0.17      0.00
    5   17   20     -1.78      0.00
    5   16   19      1.69      0.00
    5   15   18     -0.11      0.00
    5   14   17     -0.68      0.00
    5   13   16     -0.15      0.00
    5   12   15     -0.99      0.00
    5   11   14     -0.65      0.00
    5   10   13      0.01      0.00
    5    9   12     -1.02      0.00
    5    8   11     -2.26      0.00
    5    7   10      0.94      0.00
    5    6    9      0.17      0.00
    5    5    8     -2.39      0.00
    5   22   19      0.99      0.00
    5   23   20     -0.07      0.00
    6   19   23     -2.00      0.00
    6   18   22     -0.20      0.00
    6   17   21     -6.46      0.00
    6   16   20      0.31      0.00
    6   15   19      1.78      0.00
    6   14   18     -0.43      0.00
    6   13   17      0.03      0.00
    6   12   16      3.18      0.00
    6   11   15     -1.52      0.00
    6   10   14      0.25      0.00
    6    9   13     -1.22      0.00
    6    8   12      0.85      0.00
    6    7   11      0.03      0.00
    6    6   10     -0.93      0.00
    6   22   18      1.73      0.00
    7   18   23      0.15      0.00
    7   17   22      1.35      0.00
    7   16   21      3.61      0.00
    7   15   20     -3.99      0.00
    7   14   19      2.41      0.00
    7   13   18     -3.63      0.00
    7   12   17     -0.76      0.00
    7   11   16      4.14      0.00
    7   10   15      0.31      0.00
    7    9   14      1.98      0.00
    7    8   13     -0.55      0.00
    7    7   12      0.24      0.00
    8   17   23      3.01      0.00
    8   16   22     -2.35      0.00
    8   15   21     -2.64      0.00
    8   14   20      4.82      0.00
    8   13   19     -0.20      0.00
    8   12   18     -1.09      0.00
    8   11   17     -1.60      0.00
    8   10   16      0.06      0.00
    8    9   15     -1.97      0.00
    5    9    2      2.30      0.00
    7   12    3     -0.17      0.00
   18   20    0     -5.20      0.00
   17   21    2      1.74      0.00
   14   22    6      3.56      0.00
   15   22    5      3.68      0.00
   16   22    4     -8.21      0.00
   17   22    3      4.25      0.00
   11   23   10      3.66      0.00
   12   23    9      1.54      0.00
   13   23    8     -9.37      0.00
   14   23    7      2.21      0.00
   15   23    6     -0.77      0.00
   16   23    5      4.19      0.00
    9   24   13     -0.30      0.00
   10   24   12      1.92      0.00
   11   24   11     -6.99      0.00
   12   24   10      2.36      0.00
   13   24    9      3.30      0.00
   14   24    8     -5.61      0.00
   15   24    7     -1.95      0.00
   16   23   11      3.56      0.00
   15   23   12      1.01      0.00
   14   23   13     -1.49      0.00
   17   22    9      4.53      0.00
   16   22   10     -8.33      0.00
   15   22   11      4.06      0.00
   14   22   12     -0.73      0.00
   13   22   13      0.05      0.00
   12   22   14      2.60      0.00
   11   22   15     -2.09      0.00
   10   22   16      0.39      0.00
    9   22   17     -1.51      0.00
   17   21    8      0.12      0.00
   16   21    9     -0.95      0.00
   15   21   10      2.02      0.00
   14   21   11     -1.54      0.00
   13   21   12      2.57      0.00
   12   21   13     -2.67      0.00
   11   21   14     -0.40      0.00
   10   21   15      3.04      0.00
    9   21   16      2.12      0.00
    8   21   17      1.21      0.00
    7   21   18     -2.66      0.00
    6   21   19      0.61      0.00
   18   20    6     -1.56      0.00
   17   20    7     -2.90      0.00
   16   20    8      4.37      0.00
   15   20    9      0.00      0.00
   14   20   10     -4.96      0.00
   13   20   11      2.17      0.00
   12   20   12     -1.68      0.00
   11   20   13      3.25      0.00
   10   20   14     -3.26      0.00
    9   20   15     -0.64      0.00
    8   20   16      1.08      0.00
    7   20   17      2.51      0.00
    6   20   18     -2.23      0.00
    5   20   19      9.98      0.00
   19   19    4     -0.30      0.00
   18   19    5      1.88      0.00
   17   19    6     -0.26      0.00
   16   19    7     -0.84      0.00
   15   19    8     -3.69      0.00
   14   19    9      3.01      0.00
   13   19   10      3.26      0.00
   12   19   11     -1.28      0.00
   11   19   12     -1.96      0.00
   10   19   13     -0.04      0.00
    9   19   14      0.36      0.00
    8   19   15     -0.51      0.00
    7   19   16      0.42      0.00
    6   19   17     -1.03      0.00
    5   19   18     -1.67      0.00
   18   18    4      1.52      0.00
   17   18    5      1.60      0.00
   16   18    6      1.15      0.00
   15   18    7      1.45      0.00
   14   18    8     -1.60      0.00
   13   18    9     -2.35      0.00
   12   18   10      3.36      0.00
   11   18   11     -0.84      0.00
   10   18   12     -1.91      0.00
    9   18   13      3.69      0.00
    8   18   14     -4.01      0.00
    7   18   15     -2.22      0.00
    6   18   16      2.47      0.00
    5   18   17     -2.15      0.00
    4   18   18      4.28      0.00
   17   17    4     -1.34      0.00
   16   17    5      0.52      0.00
   15   17    6      0.78      0.00
   14   17    7     -0.97      0.00
   13   17    8     -1.64      0.00
   12   17    9      1.04      0.00
   11   17   10      0.66      0.00
   10   17   11      0.07      0.00
    9   17   12      1.57      0.00
    8   17   13      1.94      0.00
    7   17   14     -0.31      0.00
    6   17   15      2.36      0.00
    5   17   16     -2.43      0.00
    4   17   17      1.43      0.00
   16   21    1      4.38      0.00
   16   20    0     -3.94      0.00
   16   16    4     -1.78      0.00
   15   16    5      1.45      0.00
   14   16    6      0.77      0.00
   13   16    7     -2.06      0.00
   12   16    8      1.96      0.00
   11   16    9      0.34      0.00
   10   16   10     -1.02      0.00
    9   16   11     -3.83      0.00
    8   16   12      1.10      0.00
    7   16   13      2.99      0.00
    6   16   14     -4.82      0.00
    5   16   15     -0.19      0.00
    4   16   16      1.33      0.00
   15   21    2      0.71      0.00
   15   20    1      1.60      0.00
   15   19    0      4.85      0.00
   15   15    4     -1.53      0.00
   14   15    5      1.69      0.00
   13   15    6      1.66      0.00
   12   15    7     -1.63      0.00
   11   15    8     -0.10      0.00
   10   15    9      1.14      0.00
    9   15   10     -0.10      0.00
    8   15   11     -2.21      0.00
    7   15   12      2.13      0.00
    6   15   13      2.91      0.00
    5   15   14     -0.39      0.00
    4   15   15      0.62      0.00
   14   22    4      1.60      0.00
   14   21    3     -1.45      0.00
   14   20    2      0.02      0.00
   14   19    1     -0.65      0.00
   14   18    0     -0.08      0.00
   14   14    4     -1.94      0.00
   13   14    5     -2.08      0.00
   12   14    6     -0.53      0.00
   11   14    7     -0.43      0.00
   10   14    8      3.81      0.00
    9   14    9     -0.28      0.00
    8   14   10     -0.40      0.00
    7   14   11     -1.69      0.00
    6   14   12     -1.26      0.00
    5   14   13      0.91      0.00
    4   14   14     -2.55      0.00
   13   22    5     -3.12      0.00
   13   21    4      0.08      0.00
   13   20    3     -1.04      0.00
   13   19    2     -1.64      0.00
   13   18    1      1.35      0.00
   13   17    0      1.00      0.00
   13   13    4      2.80      0.00
   12   13    5      0.15      0.00
   11   13    6     -3.46      0.00
   10   13    7      1.68      0.00
    9   13    8     -0.41      0.00
    8   13    9     -1.92      0.00
    7   13   10     -0.15      0.00
    6   13   11      0.53      0.00
    5   13   12      2.34      0.00
    4   13   13     -2.40      0.00
   12   22    6      5.72      0.00
   12   21    5     -0.52      0.00
   12   20    4     -1.35      0.00
   12   19    3      0.83      0.00
   12   18    2     -1.04      0.00
   12   17    1      0.86      0.00
   12   16    0     -3.26      0.00
   12   12    4     -0.81      0.00
   11   12    5      0.21      0.00
   10   12    6     -0.77      0.00
    9   12    7     -0.24      0.00
    8   12    8      2.94      0.00
    7   12    9      1.11      0.00
    6   12   10     -1.49      0.00
    5   12   11      1.99      0.00
    4   12   12     -2.27      0.00
   11   23    8      1.26      0.00
   11   22    7     -3.18      0.00
   11   21    6      2.28      0.00
   11   20    5      1.57      0.00
   11   19    4      2.32      0.00
   11   18    3     -0.64      0.00
   11   17    2     -1.14      0.00
   11   16    1      2.15      0.00
   11   15    0      1.21      0.00
   11   11    4      0.04      0.00
   10   11    5      1.42      0.00
    9   11    6     -3.81      0.00
    8   11    7      5.20      0.00
    7   11    8     -3.59      0.00
    6   11    9     -1.97      0.00
    5   11   10      2.21      0.00
    4   11   11     -2.81      0.00
   10   23    9     -7.00      0.00
   10   22    8     -0.90      0.00
   10   21    7     -1.61      0.00
   10   20    6      0.34      0.00
   10   19    5     -2.69      0.00
   10   18    4      0.34      0.00
   10   17    3      1.83      0.00
   10   16    2      0.49      0.00
   10   15    1      1.11      0.00
   10   14    0     -2.36      0.00
   10   10    4      1.41      0.00
    9   10    5     -1.70      0.00
    8   10    6     -0.42      0.00
    7   10    7     -0.70      0.00
    6   10    8     -0.42      0.00
    5   10    9      0.61      0.00
    4   10   10      1.53      0.00
    0   10   14     -6.37      0.00
    9   23   10      1.71      0.00
    9   22    9      2.08      0.00
    9   21    8     -0.15      0.00
    9   20    7      0.64      0.00
    9   19    6     -0.29      0.00
    9   18    5     -1.23      0.00
    9   17    4     -1.80      0.00
    9   16    3     -0.20      0.00
    9   15    2     -0.03      0.00
    9   14    1     -1.55      0.00
    9   13    0      4.51      0.00
    9    9    4     -1.10      0.00
    8    9    5      1.99      0.00
    7    9    6      1.09      0.00
    6    9    7      2.65      0.00
    5    9    8     -0.08      0.00
    4    9    9      2.55      0.00
    0    9   13     -5.03      0.00
    8   23   11      0.96      0.00
    8   22   10      0.02      0.00
    8   21    9     -0.27      0.00
    8   20    8     -1.69      0.00
    8   19    7      2.27      0.00
    8   18    6      0.79      0.00
    8   17    5      0.19      0.00
    8   16    4      0.66      0.00
    8   15    3      0.05      0.00
    8   14    2      1.69      0.00
    8   13    1      0.42      0.00
    8   12    0     -2.03      0.00
    8    8    4      2.58      0.00
    7    8    5     -3.79      0.00
    6    8    6      3.78      0.00
    5    8    7     -5.55      0.00
    4    8    8     -6.91      0.00
    0    8   12     10.47      0.00
    1    8   13     -1.92      0.00
    7   24   13     -4.00      0.00
    7   23   12      1.25      0.00
    7   22   11      4.20      0.00
    7   21   10     -2.32      0.00
    7   20    9      1.32      0.00
    7   19    8      1.91      0.00
    7   18    7     -2.03      0.00
    7   17    6      2.09      0.00
    7   16    5     -4.18      0.00
    7   15    4      0.54      0.00
    7   14    3     -0.35      0.00
    7   13    2     -3.83      0.00
    7   12    1     -0.75      0.00
    7   11    0      8.42      0.00
    7    7    4     -4.61      0.00
    6    7    5      0.84      0.00
    5    7    6     -0.46      0.00
    4    7    7      5.86      0.00
    0    7   11     -0.95      0.00
    1    7   12     -2.78      0.00
    2    7   13      3.19      0.00
    3    7   14      1.47      0.00
    4    7   15     -2.86      0.00
    5    7   16      1.76      0.00
    6    7   17      1.08      0.00
    7    7   18     -1.39      0.00
    7    8   19      0.11      0.00
    7    9   20     -0.40      0.00
    7   10   21     -3.11      0.00
    7   11   22      1.63      0.00
    7   12   23      1.41      0.00
    7   13   24     -2.15      0.00
    7   14   25      4.08      0.00
    7   15   26      1.19      0.00
    6   24   14      4.49      0.00
    6   23   13     -6.52      0.00
    6   22   12     -3.00      0.00
    6   21   11      2.25      0.00
    6   20   10     -3.75      0.00
    6   19    9      1.16      0.00
    6   18    8     -2.11      0.00
    6   17    7      2.11      0.00
    6   16    6      3.29      0.00
    6   15    5      1.38      0.00
    6   14    4     -0.73      0.00
    6   13    3      0.28      0.00
    6   12    2      0.85      0.00
    6   11    1     -1.22      0.00
    6   10    0     -0.27      0.00
    6    6    4      9.54      0.00
    5    6    5     -3.41      0.00
    4    6    6     -4.03      0.00
    0    6   10     -5.99      0.00
    1    6   11      2.98      0.00
    2    6   12      4.50      0.00
    3    6   13     -2.83      0.00
    4    6   14      0.84      0.00
    5    6   15     -0.55      0.00
    6    6   16     -0.72      0.00
    6    8   18      1.85      0.00
    6    9   19     -0.36      0.00
    6   10   20     -1.17      0.00
    6   11   21     -0.08      0.00
    6   12   22      0.59      0.00
    6   13   23     -0.25      0.00
    6   14   24     -1.47      0.00
    6   15   25     -0.03      0.00
    6   16   26     -0.31      0.00
    5   24   15      3.01      0.00
    5   23   14      2.00      0.00
    5   22   13      0.45      0.00
    5   21   12      2.11      0.00
    5   20   11      0.69      0.00
    5   19   10     -2.47      0.00
    5   18    9     -0.14      0.00
    5   17    8     -1.86      0.00
    5   16    7     -1.57      0.00
    5   15    6     -0.09      0.00
    5   14    5      0.16      0.00
    5   13    4     -0.28      0.00
    5   12    3      0.71      0.00
    5   11    2     -3.17      0.00
    5   10    1     -2.23      0.00
    5    9    0     -0.18      0.00
    5    5    4     -4.54      0.00
    4    5    5      6.59      0.00
    0    5    9     -8.53      0.00
    1    5   10      5.49      0.00
    2    5   11      1.15      0.00
    3    5   12     -3.52      0.00
    4    5   13      3.42      0.00
    5    5   14     -2.00      0.00
    5    8   17     -0.50      0.00
    5    9   18      0.79      0.00
    5   10   19      0.47      0.00
    5   11   20      1.22      0.00
    5   12   21     -2.03      0.00
    5   13   22     -1.89      0.00
    5   14   23      1.89      0.00
    5   15   24     -4.04      0.00
    5   16   25      1.55      0.00
    5   17   26      5.97      0.00
    4   24   16     -1.97      0.00
    4   23   15     -0.96      0.00
    4   22   14     -0.04      0.00
    4   21   13     -0.19      0.00
    4   20   12      2.42      0.00
    4   19   11      0.84      0.00
    4   18   10      2.85      0.00
    4   17    9     -1.79      0.00
    4   16    8      0.31      0.00
    4   15    7      0.43      0.00
    4   14    6      0.81      0.00
    4   13    5     -1.18      0.00
    4   12    4      2.02      0.00
    4   11    3     -1.05      0.00
    4   10    2      5.50      0.00
    4    9    1      0.70      0.00
    4    8    0     -7.48      0.00
    4    4    4      6.23      0.00
    0    4    8     -1.30      0.00
    1    4    9     -5.07      0.00
    2    4   10     -0.29      0.00
    3    4   11     -2.15      0.00
    4    4   12     -2.11      0.00
    4    8   16     -0.98      0.00
    4    9   17      1.06      0.00
    4   10   18      0.41      0.00
    4   11   19     -0.41      0.00
    4   12   20      3.73      0.00
    4   13   21      0.86      0.00
    4   14   22      0.19      0.00
    4   15   23     -0.10      0.00
    4   16   24      1.64      0.00
    4   17   25     -5.95      0.00
    4   18   26      5.85      0.00
    3   24   17      4.70      0.00
    3   23   16     -7.20      0.00
    3   22   15      3.76      0.00
    3   21   14     -2.63      0.00
    3   20   13     -2.12      0.00
    3   19   12      1.25      0.00
    3   18   11     -2.85      0.00
    3   17   10      1.09      0.00
    3   16    9      0.70      0.00
    3   15    8     -0.02      0.00
    3   14    7     -1.15      0.00
    3   13    6      0.37      0.00
    3   12    5      0.48      0.00
    3   11    4     -2.33      0.00
    3   10    3      2.63      0.00
    3    9    2     -1.09      0.00
    3    8    1     -2.92      0.00
    3    7    0      0.61      0.00
    0    3    7     -4.80      0.00
    1    3    8     -1.18      0.00
    2    3    9      8.32      0.00
    3    3   10      1.19      0.00
    3    8   15     -0.61      0.00
    3    9   16     -1.46      0.00
    3   10   17     -2.83      0.00
    3   11   18      0.72      0.00
    3   12   19     -3.44      0.00
    3   13   20      1.64      0.00
    3   14   21      1.65      0.00
    3   15   22     -4.12      0.00
    3   16   23      2.19      0.00
    3   17   24      1.61      0.00
    3   18   25     -2.74      0.00
    3   19   26     -2.33      0.00
    2   24   18      6.80      0.00
    2   23   17      6.46      0.00
    2   22   16     -4.77      0.00
    2   21   15      1.27      0.00
    2   20   14      1.45      0.00
    2   19   13     -0.23      0.00
    2   18   12      3.51      0.00
    2   17   11     -2.03      0.00
    2   16   10     -0.29      0.00
    2   15    9      1.71      0.00
    2   14    8      0.07      0.00
    2   13    7     -1.02      0.00
    2   12    6     -2.49      0.00
    2   11    5      0.07      0.00
    2   10    4     -0.84      0.00
    2    9    3      1.09      0.00
    2    8    2      2.02      0.00
    2    7    1      3.95      0.00
    2    6    0      1.99      0.00
    0    2    6     11.35      0.00
    1    2    7     -2.95      0.00
    2    2    8     -5.55      0.00
    2    8   14     -0.82      0.00
    2    9   15     -1.10      0.00
    2   10   16      5.48      0.00
    2   11   17      0.43      0.00
    2   12   18     -3.47      0.00
    2   13   19      1.32      0.00
    2   14   20     -1.07      0.00
    2   15   21     -1.18      0.00
    2   16   22      2.28      0.00
    2   17   23      1.02      0.00
    2   18   24     -2.88      0.00
    2   19   25     -2.03      0.00
    1   24   19     -3.82      0.00
    1   23   18     -4.09      0.00
    1   22   17     -0.66      0.00
    1   21   16     -1.05      0.00
    1   20   15      5.68      0.00
    1   19   14     -7.27      0.00
    1   18   13      0.75      0.00
    1   17   12      0.21      0.00
    1   16   11      1.06      0.00
    1   15   10     -1.70      0.00
    1   14    9      1.40      0.00
    1   13    8      4.48      0.00
    1   12    7     -0.16      0.00
    1   11    6      3.04      0.00
    1   10    5      0.40      0.00
    1    9    4     -4.56      0.00
    1    8    3      7.10      0.00
    1    7    2    -10.65      0.00
    1    6    1     -8.09      0.00
    1    5    0     16.00      0.00
    0    1    5      3.73      0.00
    1    1    6      2.07      0.00
    1    9   14      0.01      0.00
    1   10   15     -0.80      0.00
    1   11   16      1.81      0.00
    1   12   17     -0.10      0.00
    1   13   18     -1.69      0.00
    1   14   19      4.46      0.00
    1   15   20     -3.14      0.00
    1   16   21      0.07      0.00
    1   17   22      1.20      0.00
    1   18   23      0.78      0.00
    1   19   24      2.18      0.00
    1   20   25     -3.40      0.00
    0   24   20     -0.44      0.00
    0   23   19      7.83      0.00
    0   22   18     -0.24      0.00
    0   21   17     -5.73      0.00
    0   20   16      3.09      0.00
    0   19   15      1.88      0.00
    0   18   14     -2.70      0.00
    0   17   13     -0.02      0.00
    0   16   12     -1.50      0.00
    0   15   11     -2.51      0.00
    0   14   10      1.35      0.00
    0   13    9     -4.44      0.00
    0   12    8     -2.89      0.00
    0   11    7      0.85      0.00
    0   10    6     -0.21      0.00
    0    9    5     -4.09      0.00
    0    8    4      6.48      0.00
    0    7    3      0.97      0.00
    0    6    2     -7.43      0.00
    0    5    1      7.09      0.00
    0    4    0     25.78      0.00
    0    0    4    -30.29      0.00
    0   11   15      4.38      0.00
    0   12   16      4.79      0.00
    0   13   17     -2.42      0.00
    0   14   18     -1.60      0.00
    0   15   19      2.85      0.00
    0   16   20     -2.13      0.00
    0   17   21     -3.26      0.00
    0   18   22      3.74      0.00
    0   19   23      0.85      0.00
    0   20   24    -11.62      0.00
    0   21   25      3.44      0.00
    2   22   24      1.80      0.00
    3   22   23     -3.19      0.00
    4   22   22      0.77      0.00
    4   21   21      3.26      0.00
    4   20   20     -3.98      0.00
    4   19   19     -2.41      0.00
    5   21   22      0.03      0.00
    5   20   21      0.59      0.00
    5   19   20     -2.14      0.00
    5   18   19      1.55      0.00
    5   17   18     -1.67      0.00
    5   16   17     -0.78      0.00
    5   15   16      1.52      0.00
    5   14   15      2.55      0.00
    5   13   14      1.47      0.00
    5   12   13     -0.65      0.00
    5   11   12      1.82      0.00
    5   10   11     -0.54      0.00
    5    9   10     -0.16      0.00
    5    8    9     -1.45      0.00
    5    7    8      0.70      0.00
    5    6    7      0.56      0.00
    5    5    6     -3.29      0.00
    5   21   20     -6.73      0.00
    5   22   21     -0.79      0.00
    6   20   22      2.15      0.00
    6   19   21      2.30      0.00
    6   18   20     -3.60      0.00
    6   17   19      0.88      0.00
    6   16   18     -2.93      0.00
    6   15   17     -0.22      0.00
    6   14   16      2.01      0.00
    6   13   15     -0.60      0.00
    6   12   14      1.21      0.00
    6   11   13     -0.07      0.00
    6   10   12      1.79      0.00
    6    9   11      0.83      0.00
    6    8   10     -0.39      0.00
    6    7    9     -1.56      0.00
    6    6    8     -3.33      0.00
    6   22   20      2.04      0.00
    7   19   22     -3.44      0.00
    7   18   21     -0.69      0.00
    7   17   20      6.31      0.00
    7   16   19      2.51      0.00
    7   15   18     -2.55      0.00
    7   14   17     -1.04      0.00
    7   13   16      0.29      0.00
    7   12   15     -1.79      0.00
    7   11   14      0.01      0.00
    7   10   13     -0.19      0.00
    7    9   12     -0.39      0.00
    7    8   11      3.43      0.00
    7    7   10      0.58      0.00
    7   22   19      1.59      0.00
    8   18   22     -0.74      0.00
    8   17   21     -3.20      0.00
    8   16   20      0.25      0.00
    8   15   19     -4.79      0.00
    8   14   18      3.31      0.00
    8   13   17     -1.14      0.00
    8   12   16     -0.60      0.00
    8   11   15     -0.86      0.00
    8   10   14      0.78      0.00
    8    9   13     -3.18      0.00
    8    8   12     -2.31      0.00
    8   22   18     -3.51      0.00
    9   17   22     -0.31      0.00
    9   16   21      3.98      0.00
    9   15   20      4.38      0.00
    9   14   19     -3.71      0.00
    9   13   18      3.35      0.00
    9   12   17     -0.56      0.00
   17   21    0     -4.31      0.00
   15   22    3      1.30      0.00
   16   22    2      0.15      0.00
   12   23    7      2.66      0.00
   13   23    6     -1.44      0.00
   14   23    5     -2.46      0.00
   15   23    4     -6.26      0.00
   16   23    3      2.54      0.00
    8   24   12     -0.42      0.00
    9   24   11     -3.28      0.00
   10   24   10     11.04      0.00
   11   24    9     -3.94      0.00
   12   24    8     -7.50      0.00
   13   24    7     10.29      0.00
   14   24    6     -0.80      0.00
   15   24    5      1.90      0.00
   14   25    7      3.69      0.00
   16   22   12     -8.04      0.00
   15   22   13      3.88      0.00
   14   22   14      0.02      0.00
   13   22   15      1.68      0.00
   12   22   16      0.16      0.00
   17   21   10      0.76      0.00
   16   21   11      3.99      0.00
   15   21   12     -3.37      0.00
   14   21   13      4.02      0.00
   13   21   14     -4.74      0.00
   12   21   15     -0.87      0.00
   11   21   16      0.75      0.00
   10   21   17      3.76      0.00
    9   21   18      0.23      0.00
    8   21   19      1.40      0.00
   18   20    8     -2.12      0.00
   17   20    9     -1.99      0.00
   16   20   10      2.64      0.00
   15   20   11     -1.72      0.00
   14   20   12     -2.94      0.00
   13   20   13      3.89      0.00
   12   20   14      1.71      0.00
   11   20   15      0.66      0.00
   10   20   16     -6.26      0.00
    9   20   17      1.30      0.00
    8   20   18     -2.29      0.00
    7   20   19      0.84      0.00
    6   20   20     -3.76      0.00
   19   19    6     -3.17      0.00
   18   19    7      2.53      0.00
   17   19    8     -0.43      0.00
   16   19    9      0.10      0.00
   15   19   10      0.95      0.00
   14   19   11     -1.36      0.00
   13   19   12     -0.26      0.00
   12   19   13     -2.38      0.00
   11   19   14      3.25      0.00
   10   19   15     -1.06      0.00
    9   19   16      0.67      0.00
    8   19   17     -0.30      0.00
    7   19   18     -0.02      0.00
    6   19   19      7.15      0.00
   18   18    6     -3.98      0.00
   17   18    7      0.83      0.00
   16   18    8     -1.29      0.00
   15   18    9      2.26      0.00
   14   18   10      2.58      0.00
   13   18   11     -1.64      0.00
   12   18   12      0.62      0.00
   11   18   13     -2.42      0.00
   10   18   14      2.15      0.00
    9   18   15      1.31      0.00
    8   18   16     -0.74      0.00
    7   18   17     -3.38      0.00
    6   18   18     -1.47      0.00
   17   17    6      1.55      0.00
   16   17    7     -3.66      0.00
   15   17    8     -0.04      0.00
   14   17    9      0.89      0.00
   13   17   10     -2.06      0.00
   12   17   11     -0.25      0.00
   11   17   12      3.02      0.00
   10   17   13     -1.02      0.00
    9   17   14      0.35      0.00
    8   17   15     -0.17      0.00
    7   17   16      1.19      0.00
    6   17   17      0.93      0.00
   16   16    6      2.24      0.00
   15   16    7     -1.55      0.00
   14   16    8     -0.95      0.00
   13   16    9      0.60      0.00
   12   16   10      3.14      0.00
   11   16   11     -3.68      0.00
   10   16   12      0.41      0.00
    9   16   13     -0.39      0.00
    8   16   14     -0.40      0.00
    7   16   15      2.22      0.00
    6   16   16     -1.55      0.00
   15   21    0     -3.52      0.00
   15   15    6      1.00      0.00
   14   15    7      0.10      0.00
   13   15    8      1.28      0.00
   12   15    9     -1.33      0.00
   11   15   10     -1.95      0.00
   10   15   11      0.44      0.00
    9   15   12     -0.07      0.00
    8   15   13     -0.15      0.00
    7   15   14     -1.17      0.00
    6   15   15      0.13      0.00
   14   22    2     -0.70      0.00
   14   21    1     -2.02      0.00
   14   20    0      2.76      0.00
   14   14    6     -1.99      0.00
   13   14    7     -1.42      0.00
   12   14    8     -0.35      0.00
   11   14    9      3.04      0.00
   10   14   10      0.10      0.00
    9   14   11      2.23      0.00
    8   14   12     -0.23      0.00
    7   14   13     -0.06      0.00
    6   14   14     -3.15      0.00
   13   22    3     -1.12      0.00
   13   21    2      7.41      0.00
   13   20    1     -9.43      0.00
   13   19    0     -0.16      0.00
   13   13    6      3.69      0.00
   12   13    7      2.31      0.00
   11   13    8     -3.89      0.00
   10   13    9      2.78      0.00
    9   13   10     -4.47      0.00
    8   13   11     -0.60      0.00
    7   13   12      2.84      0.00
    6   13   13     -0.83      0.00
   12   23    5      1.87      0.00
   12   22    4      0.06      0.00
   12   21    3     -0.23      0.00
   12   20    2      2.86      0.00
   12   19    1      3.70      0.00
   12   18    0      1.58      0.00
   12   12    6     -4.95      0.00
   11   12    7      3.00      0.00
   10   12    8     -0.28      0.00
    9   12    9     -0.74      0.00
    8   12   10      2.54      0.00
    7   12   11      1.98      0.00
    6   12   12     -2.11      0.00
   11   23    6     -1.44      0.00
   11   22    5     -2.01      0.00
   11   21    4     -3.43      0.00
   11   20    3      0.40      0.00
   11   19    2      0.00      0.00
   11   18    1     -2.45      0.00
   11   17    0     -1.80      0.00
   11   11    6     -2.42      0.00
   10   11    7      1.95      0.00
    9   11    8      0.44      0.00
    8   11    9     -1.17      0.00
    7   11   10     -2.00      0.00
    6   11   11     -0.98      0.00
   10   23    7     -1.56      0.00
   10   22    6     -0.11      0.00
   10   21    5      5.21      0.00
   10   20    4     -4.97      0.00
   10   19    3     -1.87      0.00
   10   18    2     -0.28      0.00
   10   17    1      2.41      0.00
   10   16    0     -1.68      0.00
   10   10    6     -1.63      0.00
    9   10    7     -0.62      0.00
    8   10    8     -0.10      0.00
    7   10    9      0.21      0.00
    6   10   10      1.43      0.00
    0   10   16     -1.78      0.00
    9   24    9     -5.01      0.00
    9   23    8      2.89      0.00
    9   22    7      0.58      0.00
    9   21    6     -0.83      0.00
    9   20    5      4.37      0.00
    9   19    4      2.93      0.00
    9   18    3      1.49      0.00
    9   17    2     -2.13      0.00
    9   16    1     -0.17      0.00
    9   15    0     -0.05      0.00
    9    9    6      2.25      0.00
    8    9    7     -0.77      0.00
    7    9    8     -0.43      0.00
    6    9    9      2.25      0.00
    0    9   15      0.76      0.00
    1    9   16      0.01      0.00
    8   24   10      2.24      0.00
    8   23    9      0.67      0.00
    8   22    8     -1.18      0.00
    8   21    7     -3.02      0.00
    8   20    6     -0.69      0.00
    8   19    5     -2.45      0.00
    8   18    4     -0.33      0.00
    8   17    3      1.88      0.00
    8   16    2     -0.42      0.00
    8   15    1     -0.36      0.00
    8   14    0      2.34      0.00
    8    8    6      0.35      0.00
    7    8    7     -2.40      0.00
    6    8    8      0.21      0.00
    0    8   14     10.85      0.00
    1    8   15     -1.70      0.00
    2    8   16     -0.78      0.00
    3    8   17      0.99      0.00
    7   24   11      0.39      0.00
    7   23   10     -1.98      0.00
    7   22    9      0.36      0.00
    7   21    8      2.04      0.00
    7   20    7     -0.54      0.00
    7   19    6      1.72      0.00
    7   18    5     -1.93      0.00
    7   17    4      1.95      0.00
    7   16    3     -1.77      0.00
    7   15    2      0.26      0.00
    7   14    1      0.67      0.00
    7   13    0     -2.74      0.00
    7    7    6      1.28      0.00
    6    7    7      0.80      0.00
    0    7   13     -3.24      0.00
    1    7   14     -2.72      0.00
    2    7   15     -0.14      0.00
    3    7   16      1.36      0.00
    4    7   17      0.54      0.00
    5    7   18      0.53      0.00
    6    7   19      0.54      0.00
    7    7   20      0.53      0.00
    7    8   21     -1.14      0.00
    7    9   22      0.95      0.00
    7   10   23     -1.68      0.00
    7   11   24     -0.71      0.00
    7   12   25     -3.11      0.00
    7   13   26      1.08      0.00
    7   14   27      5.85      0.00
    6   24   12      1.58      0.00
    6   23   11      0.51      0.00
    6   22   10     -1.68      0.00
    6   21    9      1.84      0.00
    6   20    8     -3.06      0.00
    6   19    7      1.05      0.00
    6   18    6     -2.13      0.00
    6   17    5     -0.03      0.00
    6   16    4      1.19      0.00
    6   15    3      0.03      0.00
    6   14    2      0.25      0.00
    6   12    0      0.49      0.00
    6    6    6      0.77      0.00
    0    6   12     -3.51      0.00
    1    6   13     -1.32      0.00
    2    6   14      4.42      0.00
    3    6   15     -4.45      0.00
    4    6   16      1.76      0.00
    5    6   17     -2.63      0.00
    6    6   18     -0.16      0.00
    6    8   20      0.41      0.00
    6    9   21      0.25      0.00
    6   10   22     -0.07      0.00
    6   11   23      1.73      0.00
    6   12   24      3.30      0.00
    6   13   25     -5.64      0.00
    6   14   26      0.24      0.00
    6   15   27     -0.94      0.00
    5   24   13      2.59      0.00
    5   23   12      2.25      0.00
    5   22   11      2.10      0.00
    5   21   10     -2.76      0.00
    5   20    9      4.80      0.00
    5   19    8      0.57      0.00
    5   18    7      1.86      0.00
    5   17    6     -1.78      0.00
    5   16    5     -1.30      0.00
    5   15    4      0.62      0.00
    5   14    3     -0.11      0.00
    5   13    2      0.66      0.00
    5   12    1      3.70      0.00
    5   11    0     -5.28      0.00
    0    5   11      0.07      0.00
    1    5   12      2.37      0.00
    2    5   13      1.62      0.00
    3    5   14     -4.24      0.00
    4    5   15      1.01      0.00
    5    5   16      0.58      0.00
    5    8   19      0.41      0.00
    5    9   20     -0.09      0.00
    5   10   21     -0.04      0.00
    5   11   22     -1.17      0.00
    5   12   23      0.00      0.00
    5   13   24      0.89      0.00
    5   14   25     -0.66      0.00
    5   15   26     -1.50      0.00
    5   16   27     -0.76      0.00
    4   25   15      5.43      0.00
    4   24   14     -3.82      0.00
    4   23   13     -5.20      0.00
    4   22   12     -1.59      0.00
    4   21   11     -0.18      0.00
    4   20   10     -1.00      0.00
    4   19    9     -2.49      0.00
    4   18    8      3.83      0.00
    4   17    7     -1.36      0.00
    4   16    6      0.99      0.00
    4   15    5     -0.21      0.00
    4   14    4      0.62      0.00
    4   13    3     -0.93      0.00
    4   12    2     -1.29      0.00
    4   11    1      2.04      0.00
    4   10    0      5.27      0.00
    0    4   10      4.41      0.00
    1    4   11     -5.31      0.00
    2    4   12     -2.74      0.00
    3    4   13      8.96      0.00
    4    4   14     -3.75      0.00
    4    8   18     -0.83      0.00
    4    9   19     -1.60      0.00
    4   10   20     -0.63      0.00
    4   11   21      1.33      0.00
    4   12   22      0.19      0.00
    4   13   23     -0.48      0.00
    4   14   24      3.35      0.00
    4   15   25      0.53      0.00
    4   16   26     -1.18      0.00
    4   17   27     -3.90      0.00
    3   25   16      1.85      0.00
    3   24   15      1.62      0.00
    3   23   14      3.52      0.00
    3   22   13      2.29      0.00
    3   21   12     -0.04      0.00
    3   20   11     -2.67      0.00
    3   19   10     -0.05      0.00
    3   18    9     -0.79      0.00
    3   17    8     -0.55      0.00
    3   16    7      1.35      0.00
    3   15    6     -0.90      0.00
    3   14    5     -1.56      0.00
    3   13    4      2.48      0.00
    3   12    3     -0.49      0.00
    3   11    2     -1.78      0.00
    3   10    1     -0.94      0.00
    3    9    0     -2.33      0.00
    0    3    9     -0.54      0.00
    1    3   10     -1.80      0.00
    2    3   11      1.63      0.00
    3    3   12      0.85      0.00
    3    9   18      3.09      0.00
    3   10   19     -1.56      0.00
    3   11   20     -0.09      0.00
    3   12   21     -0.59      0.00
    3   13   22     -1.38      0.00
    3   14   23      1.09      0.00
    3   15   24     -2.78      0.00
    3   16   25      1.87      0.00
    3   17   26      3.84      0.00
    3   18   27     -1.33      0.00
    2   25   17     -9.54      0.00
    2   24   16      0.89      0.00
    2   23   15      2.74      0.00
    2   22   14      0.59      0.00
    2   21   13     -1.89      0.00
    2   20   12      3.93      0.00
    2   19   11     -0.34      0.00
    2   18   10      1.45      0.00
    2   17    9     -1.69      0.00
    2   16    8      0.34      0.00
    2   15    7      0.49      0.00
    2   14    6      0.40      0.00
    2   13    5     -0.05      0.00
    2   12    4      0.25      0.00
    2   11    3     -1.13      0.00
    2   10    2      0.93      0.00
    2    9    1     -0.55      0.00
    2    8    0      3.61      0.00
    0    2    8     18.26      0.00
    1    2    9     -4.96      0.00
    2    2   10    -12.29      0.00
    2    9   17     -0.67      0.00
    2   10   18      1.36      0.00
    2   11   19      0.76      0.00
    2   12   20     -0.13      0.00
    2   13   21      0.60      0.00
    2   14   22     -0.53      0.00
    2   15   23      0.59      0.00
    2   16   24     -1.73      0.00
    2   17   25      0.46      0.00
    2   18   26      1.35      0.00
    2   19   27      1.52      0.00
    1   25   18      3.49      0.00
    1   24   17     -1.42      0.00
    1   23   16     -3.12      0.00
    1   22   15     -2.56      0.00
    1   21   14     -6.24      0.00
    1   20   13      6.55      0.00
    1   19   12     -1.88      0.00
    1   18   11     -1.33      0.00
    1   17   10     -0.21      0.00
    1   16    9      0.30      0.00
    1   15    8     -2.84      0.00
    1   14    7      0.24      0.00
    1   13    6      0.54      0.00
    1   12    5     -0.01      0.00
    1   11    4      1.79      0.00
    1   10    3      2.56      0.00
    1    9    2     -5.19      0.00
    1    8    1      0.67      0.00
    1    7    0     -0.91      0.00
    0    1    7      6.65      0.00
    1    1    8     -3.04      0.00
    1   10   17     -2.60      0.00
    1   11   18     -0.52      0.00
    1   12   19      0.99      0.00
    1   13   20      0.69      0.00
    1   14   21      0.75      0.00
    1   15   22     -0.47      0.00
    1   16   23      1.31      0.00
    1   17   24     -2.22      0.00
    1   18   25     -4.41      0.00
    1   19   26      3.68      0.00
    0   25   19      7.35      0.00
    0   24   18     -9.31      0.00
    0   23   17      9.13      0.00
    0   22   16      6.64      0.00
    0   21   15      3.44      0.00
    0   20   14    -10.52      0.00
    0   19   13      3.73      0.00
    0   18   12      3.26      0.00
    0   17   11      0.78      0.00
    0   16   10      1.34      0.00
    0   15    9     -0.44      0.00
    0   14    8      0.72      0.00
    0   13    7      0.16      0.00
    0   12    6     -4.60      0.00
    0   11    5     -0.16      0.00
    0   10    4     -1.35      0.00
    0    9    3      1.72      0.00
    0    8    2      2.41      0.00
    0    7    1     -4.30      0.00
    0    6    0     23.47      0.00
    0    0    6     -0.16      0.00
    0   11   17     -1.08      0.00
    0   12   18      1.71      0.00
    0   13   19     -3.47      0.00
    0   14   20      0.76      0.00
    0   15   21      0.81      0.00
    0   16   22     -2.34      0.00
    0   17   23      3.94      0.00
    0   18   24     -1.81      0.00
    0   19   25      2.88      0.00
    0   20   26     -2.76      0.00
    1   21   26      2.55      0.00
    2   24   20     11.56      0.00
    2   21   25     -8.03      0.00
    6   21   21     -3.10      0.00
    7   20   21      1.00      0.00
    7   19   20     -2.25      0.00
    7   18   19     -3.02      0.00
    7   17   18      3.23      0.00
    7   16   17      0.91      0.00
    7   15   16      0.85      0.00
    7   14   15     -1.15      0.00
    7   13   14      0.63      0.00
    7   12   13     -1.20      0.00
    7   11   12     -1.23      0.00
    7   10   11      0.34      0.00
    7    9   10     -2.10      0.00
    7    8    9      1.56      0.00
    7    7    8      2.94      0.00
    7   21   20      3.91      0.00
    8   19   21      7.10      0.00
    8   18   20      0.36      0.00
    8   17   19     -4.32      0.00
    8   16   18      2.20      0.00
    8   15   17     -2.21      0.00
    8   14   16      3.69      0.00
    8   13   15      0.76      0.00
    8   12   14      0.47      0.00
    8   11   13     -1.74      0.00
    8   10   12      2.25      0.00
    8    9   11      1.15      0.00
    8    8   10     -4.17      0.00
    9   18   21      0.42      0.00
    9   17   20      1.12      0.00
    9   16   19     -1.49      0.00
    9   15   18      2.13      0.00
    9   14   17     -0.89      0.00
    9   13   16      1.03      0.00
    9   12   15      1.81      0.00
    9   11   14      0.10      0.00
    9   10   13     -2.19      0.00
    6   13    1     -0.40      0.00
   15   22    1     -1.06      0.00
   16   22    0     -0.45      0.00
   13   23    4      2.75      0.00
   14   23    3     -1.22      0.00
   15   23    2      2.24      0.00
   10   24    8      3.33      0.00
   11   24    7      3.28      0.00
   12   24    6     -4.36      0.00
   13   24    5     -0.17      0.00
   14   24    4     -0.41      0.00
   15   24    3     -1.28      0.00
    9   25   10      1.69      0.00
   10   25    9     -0.03      0.00
   11   25    8     -1.76      0.00
   12   25    7     -0.65      0.00
   13   25    6      1.63      0.00
   14   25    5      1.68      0.00
   17   21   12     -3.03      0.00
   16   21   13      4.79      0.00
   15   21   14     -5.19      0.00
   14   21   15      2.40      0.00
   13   21   16     -7.57      0.00
   12   21   17      1.30      0.00
   11   21   18     -1.65      0.00
   18   20   10      2.19      0.00
   17   20   11     -1.07      0.00
   16   20   12      0.13      0.00
   15   20   13     -0.69      0.00
   14   20   14     -0.36      0.00
   13   20   15      4.64      0.00
   12   20   16     -1.37      0.00
   11   20   17      2.71      0.00
   10   20   18     -4.61      0.00
    9   20   19     -0.50      0.00
    8   20   20     -3.10      0.00
   19   19    8     -0.88      0.00
   18   19    9      1.31      0.00
   17   19   10      0.39      0.00
   16   19   11     -0.26      0.00
   15   19   12      0.98      0.00
   14   19   13     -1.52      0.00
   13   19   14      2.50      0.00
   12   19   15     -4.47      0.00
   11   19   16      0.64      0.00
   10   19   17      1.75      0.00
    9   19   18      1.55      0.00
    8   19   19      1.22      0.00
   18   18    8     -4.40      0.00
   17   18    9      0.98      0.00
   16   18   10     -1.28      0.00
   15   18   11      0.86      0.00
   14   18   12      0.25      0.00
   13   18   13      0.30      0.00
   12   18   14      3.41      0.00
   11   18   15     -3.85      0.00
   10   18   16      1.51      0.00
    9   18   17      0.76      0.00
    8   18   18      1.13      0.00
   17   17    8      3.32      0.00
   16   17    9     -0.34      0.00
   15   17   10     -1.04      0.00
   14   17   11     -1.71      0.00
   13   17   12     -1.48      0.00
   12   17   13      0.05      0.00
   11   17   14      3.12      0.00
   10   17   15     -3.19      0.00
    9   17   16      0.07      0.00
    8   17   17     -0.25      0.00
   16   16    8      0.04      0.00
   15   16    9      2.92      0.00
   14   16   10      0.52      0.00
   13   16   11     -0.61      0.00
   12   16   12      1.22      0.00
   11   16   13     -2.13      0.00
   10   16   14     -0.45      0.00
    9   16   15     -1.35      0.00
    8   16   16      1.61      0.00
   15   15    8      0.27      0.00
   14   15    9     -0.01      0.00
   13   15   10     -0.19      0.00
   12   15   11      0.61      0.00
   11   15   12      2.18      0.00
   10   15   13      0.29      0.00
    9   15   14     -0.65      0.00
    8   15   15     -1.34      0.00
   14   22    0     -7.47      0.00
   14   14    8     -0.17      0.00
   13   14    9      0.34      0.00
   12   14   10     -4.30      0.00
   11   14   11      2.65      0.00
   10   14   12      2.20      0.00
    9   14   13      0.30      0.00
    8   14   14      0.42      0.00
   13   22    1      7.29      0.00
   13   21    0      8.51      0.00
   13   13    8      1.97      0.00
   12   13    9      1.76      0.00
   11   13   10     -5.81      0.00
   10   13   11      0.20      0.00
    9   13   12     -0.60      0.00
    8   13   13     -1.28      0.00
   12   23    3     -1.33      0.00
   12   22    2     -2.96      0.00
   12   21    1     -2.21      0.00
   12   20    0      2.00      0.00
   12   12    8     -1.50      0.00
   11   12    9      2.16      0.00
   10   12   10     -1.46      0.00
    9   12   11      0.77      0.00
    8   12   12      3.42      0.00
   11   23    4      0.09      0.00
   11   22    3     -1.07      0.00
   11   21    2     -0.18      0.00
   11   20    1     -0.26      0.00
   11   19    0     -3.35      0.00
   11   11    8      1.10      0.00
   10   11    9     -1.23      0.00
    9   11   10     -0.34      0.00
    8   11   11     -1.41      0.00
    0   11   19      0.72      0.00
   10   24    6     -0.17      0.00
   10   23    5     -0.28      0.00
   10   22    4      0.41      0.00
   10   21    3      4.28      0.00
   10   20    2      1.84      0.00
   10   19    1     -0.08      0.00
   10   18    0      1.34      0.00
   10   10    8     -0.82      0.00
    9   10    9      0.24      0.00
    8   10   10      0.60      0.00
    0   10   18     -0.03      0.00
    9   24    7     -1.58      0.00
    9   23    6      1.81      0.00
    9   22    5      1.00      0.00
    9   21    4     -8.10      0.00
    9   20    3      1.51      0.00
    9   19    2      1.90      0.00
    9   18    1      0.09      0.00
    9   17    0     -0.94      0.00
    9    9    8      3.49      0.00
    8    9    9     -0.67      0.00
    0    9   17      0.19      0.00
    1    9   18      0.16      0.00
    2    9   19     -1.54      0.00
    8   24    8      0.03      0.00
    8   23    7      1.42      0.00
    8   22    6      0.93      0.00
    8   21    5      1.53      0.00
    8   20    4     -1.82      0.00
    8   19    3     -2.33      0.00
    8   18    2     -1.68      0.00
    8   17    1      0.41      0.00
    8   16    0     -0.22      0.00
    8    8    8     -0.64      0.00
    0    8   16      2.04      0.00
    1    8   17      1.60      0.00
    2    8   18     -0.24      0.00
    3    8   19     -1.80      0.00
    4    8   20     -0.73      0.00
    5    8   21      2.28      0.00
    6    8   22      0.02      0.00
    7   24    9     -1.25      0.00
    7   23    8     -4.53      0.00
    7   22    7      0.89      0.00
    7   21    6      2.00      0.00
    7   20    5      0.75      0.00
    7   19    4      1.59      0.00
    7   18    3      0.59      0.00
    7   17    2      0.14      0.00
    7   16    1      0.96      0.00
    7   15    0     -1.17      0.00
    0    7   15     -1.29      0.00
    1    7   16     -1.60      0.00
    2    7   17      1.80      0.00
    3    7   18     -1.93      0.00
    4    7   19     -0.24      0.00
    5    7   20     -0.25      0.00
    6    7   21     -0.42      0.00
    7    7   22      1.94      0.00
    7    8   23     -1.00      0.00
    7    9   24     -2.65      0.00
    7   10   25     -1.27      0.00
    7   11   26      2.40      0.00
    7   12   27     -2.13      0.00
    7   13   28     -0.43      0.00
    6   25   11      2.91      0.00
    6   24   10      2.63      0.00
    6   23    9     -0.95      0.00
    6   22    8      3.16      0.00
    6   21    7     -1.33      0.00
    6   20    6     -0.55      0.00
    6   19    5     -1.48      0.00
    6   18    4      1.44      0.00
    6   17    3     -0.20      0.00
    6   16    2     -0.99      0.00
    6   15    1      1.48      0.00
    6   14    0     -0.95      0.00
    0    6   14      0.17      0.00
    1    6   15      0.53      0.00
    2    6   16      2.06      0.00
    3    6   17      0.09      0.00
    4    6   18      0.36      0.00
    5    6   19     -0.19      0.00
    6    6   20     -0.76      0.00
    6    9   23      0.23      0.00
    6   10   24      1.82      0.00
    6   11   25     -0.98      0.00
    6   12   26      3.42      0.00
    6   13   27     -1.77      0.00
    6   14   28     -1.51      0.00
    5   25   12     -9.77      0.00
    5   24   11     -0.17      0.00
    5   23   10      0.53      0.00
    5   22    9     -2.25      0.00
    5   21    8     -0.19      0.00
    5   20    7     -0.24      0.00
    5   19    6      1.44      0.00
    5   18    5      1.48      0.00
    5   17    4     -2.37      0.00
    5   16    3      0.53      0.00
    5   15    2      1.81      0.00
    5   14    1     -0.90      0.00
    5   13    0      2.52      0.00
    0    5   13      0.90      0.00
    1    5   14     -0.10      0.00
    2    5   15      0.14      0.00
    3    5   16      0.64      0.00
    4    5   17      1.06      0.00
    5    5   18     -0.11      0.00
    5    9   22     -0.29      0.00
    5   10   23     -1.29      0.00
    5   11   24      0.16      0.00
    5   12   25     -1.88      0.00
    5   13   26      2.10      0.00
    5   14   27     -1.10      0.00
    5   15   28      0.83      0.00
    4   25   13      9.42      0.00
    4   24   12      2.96      0.00
    4   23   11     -0.64      0.00
    4   22   10     -1.27      0.00
    4   21    9     -0.16      0.00
    4   20    8      0.74      0.00
    4   19    7     -3.94      0.00
    4   18    6      0.55      0.00
    4   17    5     -0.20      0.00
    4   16    4     -1.20      0.00
    4   15    3      0.10      0.00
    4   14    2     -1.40      0.00
    4   13    1     -0.62      0.00
    4   12    0     -4.60      0.00
    0    4   12     -1.95      0.00
    1    4   13      0.64      0.00
    2    4   14     -3.25      0.00
    3    4   15     -1.83      0.00
    4    4   16      2.05      0.00
    4    9   21      0.13      0.00
    4   10   22     -0.98      0.00
    4   11   23      0.67      0.00
    4   12   24      1.32      0.00
    4   13   25     -0.13      0.00
    4   14   26      2.14      0.00
    4   15   27      1.09      0.00
    4   16   28     -1.73      0.00
    3   25   14     -3.80      0.00
    3   24   13     -2.94      0.00
    3   23   12     -2.16      0.00
    3   22   11      5.33      0.00
    3   21   10      1.88      0.00
    3   20    9      0.00      0.00
    3   19    8      0.24      0.00
    3   18    7      2.19      0.00
    3   17    6      0.06      0.00
    3   16    5      1.96      0.00
    3   15    4     -0.71      0.00
    3   14    3     -0.82      0.00
    3   13    2      2.60      0.00
    3   12    1      0.64      0.00
    3   11    0     -2.60      0.00
    0    3   11      0.59      0.00
    1    3   12      0.31      0.00
    2    3   13      4.72      0.00
    3    3   14     -4.81      0.00
    3    9   20      1.99      0.00
    3   10   21      1.95      0.00
    3   11   22     -1.27      0.00
    3   12   23     -1.22      0.00
    3   13   24      2.54      0.00
    3   14   25     -4.58      0.00
    3   15   26     -1.07      0.00
    3   16   27      1.41      0.00
    3   17   28     -2.98      0.00
    2   25   15     -6.04      0.00
    2   24   14      1.24      0.00
    2   23   13      1.95      0.00
    2   22   12     -2.39      0.00
    2   21   11     -2.43      0.00
    2   20   10     -0.90      0.00
    2   19    9      1.21      0.00
    2   18    8     -1.16      0.00
    2   17    7     -1.27      0.00
    2   16    6     -0.91      0.00
    2   15    5      0.16      0.00
    2   14    4     -0.30      0.00
    2   13    3     -0.47      0.00
    2   12    2      0.83      0.00
    2   11    1      0.33      0.00
    2   10    0      1.38      0.00
    0    2   10      8.49      0.00
    1    2   11      0.97      0.00
    2    2   12     -3.58      0.00
    2   10   20     -1.46      0.00
    2   11   21      0.93      0.00
    2   12   22     -3.90      0.00
    2   13   23      1.50      0.00
    2   14   24      1.13      0.00
    2   15   25      2.55      0.00
    2   16   26     -4.19      0.00
    2   17   27      2.60      0.00
    2   18   28     -3.70      0.00
    1   25   16     10.39      0.00
    1   24   15     -0.76      0.00
    1   23   14      0.38      0.00
    1   22   13     -2.20      0.00
    1   21   12      1.38      0.00
    1   20   11     -0.40      0.00
    1   19   10     -1.29      0.00
    1   18    9      2.63      0.00
    1   17    8      0.91      0.00
    1   16    7      0.46      0.00
    1   15    6      0.16      0.00
    1   14    5     -0.14      0.00
    1   13    4      0.67      0.00
    1   12    3     -0.76      0.00
    1   11    2      0.72      0.00
    1   10    1     -1.80      0.00
    1    9    0      2.86      0.00
    0    1    9      0.89      0.00
    1    1   10      0.18      0.00
    1   10   19      0.66      0.00
    1   11   20      1.31      0.00
    1   12   21      2.09      0.00
    1   13   22     -1.75      0.00
    1   14   23      0.85      0.00
    1   15   24      1.01      0.00
    1   16   25      1.29      0.00
    1   17   26      2.89      0.00
    1   18   27     -1.44      0.00
    0   25   17     -2.56      0.00
    0   24   16     -3.31      0.00
    0   23   15     -1.99      0.00
    0   22   14      6.67      0.00
    0   21   13      3.07      0.00
    0   20   12     -0.98      0.00
    0   19   11     -1.59      0.00
    0   18   10     -1.66      0.00
    0   17    9     -0.32      0.00
    0   16    8      1.88      0.00
    0   15    7      0.11      0.00
    0   14    6     -0.39      0.00
    0   13    5      0.67      0.00
    0   12    4     -1.66      0.00
    0   11    3      1.42      0.00
    0   10    2     -0.78      0.00
    0    9    1     -5.72      0.00
    0    8    0     11.87      0.00
    0    0    8    -20.99      0.00
    0   12   20      0.16      0.00
    0   13   21     -3.34      0.00
    0   14   22      1.75      0.00
    0   15   23     -0.52      0.00
    0   16   24     -5.43      0.00
    0   17   25      4.64      0.00
    0   18   26      0.80      0.00
    0   19   27      3.83      0.00
    1   20   27     -5.34      0.00
    2   20   26      6.93      0.00
    2   21   27     -2.26      0.00
    3   21   26     -0.85      0.00
    4   21   25      0.71      0.00
    5   21   24      1.21      0.00
    6   21   23     -0.20      0.00
    8   21   21      0.55      0.00
    9   19   20     -3.43      0.00
    9   18   19      2.20      0.00
    9   17   18     -0.90      0.00
    9   16   17     -2.46      0.00
    9   15   16      0.15      0.00
    9   14   15     -1.50      0.00
    9   13   14     -1.50      0.00
    9   12   13     -1.46      0.00
    9   11   12      0.66      0.00
    9   10   11      0.38      0.00
    9    9   10     -1.73      0.00
   10   18   20     -2.62      0.00
   10   17   19      0.42      0.00
   10   16   18      1.02      0.00
   10   15   17      1.85      0.00
   10   14   16     -0.48      0.00
   10   13   15      3.21      0.00
   10   12   14     -2.32      0.00
   10   11   13     -0.08      0.00
   13   23    2     -2.13      0.00
   14   23    1      5.58      0.00
   15   23    0      0.75      0.00
   11   24    5      1.57      0.00
   12   24    4     -0.41      0.00
   13   24    3     -1.84      0.00
   14   24    2      0.53      0.00
    7   25   10      0.59      0.00
    8   25    9      2.50      0.00
    9   25    8     -5.06      0.00
   10   25    7      0.33      0.00
   11   25    6      5.64      0.00
   12   25    5     -4.04      0.00
   13   25    4     -2.05      0.00
   14   25    3      3.55      0.00
   12   26    6      4.90      0.00
   13   26    5     -1.86      0.00
   17   21   14     -1.87      0.00
   16   21   15      0.38      0.00
   15   21   16     -3.42      0.00
   14   21   17     -2.84      0.00
   18   20   12      0.91      0.00
   17   20   13      0.59      0.00
   16   20   14      2.68      0.00
   15   20   15     -0.15      0.00
   14   20   16     -0.05      0.00
   13   20   17      6.27      0.00
   12   20   18     -0.88      0.00
   11   20   19      0.56      0.00
   10   20   20     -0.97      0.00
   19   19   10      1.24      0.00
   18   19   11     -1.39      0.00
   17   19   12     -1.81      0.00
   16   19   13      2.89      0.00
   15   19   14     -1.53      0.00
   14   19   15      0.02      0.00
   13   19   16     -3.57      0.00
   12   19   17      0.99      0.00
   11   19   18     -0.69      0.00
   10   19   19      1.80      0.00
   18   18   10      0.21      0.00
   17   18   11     -1.19      0.00
   16   18   12     -3.00      0.00
   15   18   13      4.75      0.00
   14   18   14     -1.21      0.00
   13   18   15      0.26      0.00
   12   18   16      0.42      0.00
   11   18   17      1.48      0.00
   10   18   18     -2.79      0.00
   17   17   10      2.60      0.00
   16   17   11     -1.09      0.00
   15   17   12     -1.11      0.00
   14   17   13     -3.28      0.00
   13   17   14      3.55      0.00
   12   17   15     -1.75      0.00
   11   17   16      0.36      0.00
   10   17   17     -0.03      0.00
   16   16   10     -1.62      0.00
   15   16   11      1.00      0.00
   14   16   12      5.32      0.00
   13   16   13     -4.96      0.00
   12   16   14      1.66      0.00
   11   16   15     -1.31      0.00
   10   16   16      3.09      0.00
   15   15   10     -1.72      0.00
   14   15   11     -2.32      0.00
   13   15   12      0.95      0.00
   12   15   13     -0.33      0.00
   11   15   14      2.52      0.00
   10   15   15     -0.49      0.00
   14   14   10      1.03      0.00
   13   14   11      1.70      0.00
   12   14   12     -3.94      0.00
   11   14   13      0.04      0.00
   10   14   14      0.19      0.00
   13   23    0    -14.38      0.00
   13   13   10     -0.13      0.00
   12   13   11      1.03      0.00
   11   13   12     -0.88      0.00
   10   13   13      0.50      0.00
   12   23    1      6.38      0.00
   12   22    0    -11.61      0.00
   12   12   10     -0.54      0.00
   11   12   11      1.96      0.00
   10   12   12      1.91      0.00
   11   23    2      0.26      0.00
   11   22    1      5.31      0.00
   11   21    0     -1.59      0.00
   11   11   10     -2.47      0.00
   10   11   11      0.41      0.00
    0   11   21     -3.71      0.00
   10   24    4     -4.07      0.00
   10   23    3     -1.99      0.00
   10   22    2      0.98      0.00
   10   21    1      1.56      0.00
   10   20    0      1.36      0.00
   10   10   10     -0.45      0.00
    0   10   20     -0.78      0.00
    1   10   21      0.19      0.00
    9   24    5      2.12      0.00
    9   23    4      2.55      0.00
    9   22    3     -2.24      0.00
    9   21    2     -4.39      0.00
    9   20    1     -0.35      0.00
    9   19    0     -0.27      0.00
    0    9   19      0.41      0.00
    1    9   20     -1.50      0.00
    2    9   21      2.04      0.00
    8   24    6      0.12      0.00
    8   23    5     -1.62      0.00
    8   22    4      1.94      0.00
    8   21    3      3.34      0.00
    8   20    2      2.17      0.00
    8   19    1     -1.15      0.00
    8   18    0      0.34      0.00
    0    8   18     -1.16      0.00
    1    8   19      2.27      0.00
    2    8   20     -1.05      0.00
    3    8   21      1.24      0.00
    4    8   22     -0.44      0.00
    5    8   23      0.50      0.00
    6    8   24      1.30      0.00
    7   24    7      2.65      0.00
    7   23    6     -3.22      0.00
    7   22    5     -2.08      0.00
    7   21    4     -0.48      0.00
    7   20    3      0.43      0.00
    7   19    2     -1.33      0.00
    7   18    1      1.50      0.00
    7   17    0     -0.58      0.00
    0    7   17     -0.14      0.00
    1    7   18     -1.68      0.00
    2    7   19      0.84      0.00
    3    7   20      0.04      0.00
    4    7   21     -2.48      0.00
    5    7   22      0.31      0.00
    6    7   23      0.42      0.00
    7    7   24     -1.45      0.00
    7    8   25     -0.61      0.00
    7    9   26     -0.70      0.00
    7   10   27      0.56      0.00
    7   11   28     -1.32      0.00
    7   12   29     -0.30      0.00
    6   25    9     -2.90      0.00
    6   24    8     -0.03      0.00
    6   23    7      2.75      0.00
    6   22    6      1.13      0.00
    6   21    5      0.75      0.00
    6   20    4     -1.02      0.00
    6   19    3     -1.14      0.00
    6   18    2      2.20      0.00
    6   17    1     -0.08      0.00
    6   16    0     -1.81      0.00
    0    6   16     -0.95      0.00
    1    6   17      0.15      0.00
    2    6   18     -1.06      0.00
    3    6   19      1.20      0.00
    4    6   20      2.30      0.00
    5    6   21     -1.27      0.00
    6    6   22      1.14      0.00
    6    9   25      0.35      0.00
    6   10   26     -0.51      0.00
    6   11   27      4.37      0.00
    6   12   28     -1.95      0.00
    6   13   29     -5.13      0.00
    5   25   10     -2.23      0.00
    5   24    9     -1.04      0.00
    5   23    8     -0.02      0.00
    5   22    7     -3.61      0.00
    5   21    6      0.66      0.00
    5   20    5     -0.65      0.00
    5   19    4      0.71      0.00
    5   18    3     -0.22      0.00
    5   17    2     -2.00      0.00
    5   16    1     -2.24      0.00
    5   15    0      2.24      0.00
    0    5   15      2.36      0.00
    1    5   16     -1.66      0.00
    2    5   17      0.39      0.00
    3    5   18     -0.40      0.00
    4    5   19      1.54      0.00
    5    5   20     -2.78      0.00
    5    9   24     -0.29      0.00
    5   10   25     -1.14      0.00
    5   11   26     -1.36      0.00
    5   12   27      1.34      0.00
    5   13   28      3.05      0.00
    5   14   29     -1.62      0.00
    4   25   11     -1.68      0.00
    4   24   10      3.63      0.00
    4   23    9      2.30      0.00
    4   22    8      1.65      0.00
    4   21    7     -1.93      0.00
    4   20    6      3.16      0.00
    4   19    5     -1.44      0.00
    4   18    4     -0.16      0.00
    4   17    3      3.39      0.00
    4   16    2     -0.37      0.00
    4   15    1     -0.41      0.00
    4   14    0     -0.53      0.00
    0    4   14      0.04      0.00
    1    4   15     -1.58      0.00
    2    4   16      0.22      0.00
    3    4   17      0.46      0.00
    4    4   18     -2.10      0.00
    4    9   23     -0.41      0.00
    4   10   24      0.60      0.00
    4   11   25     -0.80      0.00
    4   12   26     -2.00      0.00
    4   13   27      1.76      0.00
    4   14   28      1.72      0.00
    4   15   29      0.36      0.00
    3   25   12     -0.12      0.00
    3   24   11     -2.75      0.00
    3   23   10     -4.45      0.00
    3   22    9     -1.74      0.00
    3   21    8      4.26      0.00
    3   20    7     -2.42      0.00
    3   19    6      0.49      0.00
    3   18    5     -0.39      0.00
    3   17    4     -0.40      0.00
    3   16    3      2.86      0.00
    3   15    2     -0.96      0.00
    3   14    1     -2.58      0.00
    3   13    0      3.22      0.00
    0    3   13      3.88      0.00
    1    3   14     -1.71      0.00
    2    3   15     -1.43      0.00
    3    3   16      2.90      0.00
    3    9   22      0.05      0.00
    3   10   23      0.91      0.00
    3   11   24      0.79      0.00
    3   12   25     -1.29      0.00
    3   13   26      0.48      0.00
    3   14   27     -2.28      0.00
    3   15   28     -2.00      0.00
    3   16   29      3.91      0.00
    2   25   13      3.37      0.00
    2   24   12      1.11      0.00
    2   23   11      6.31      0.00
    2   22   10     -2.27      0.00
    2   21    9      1.26      0.00
    2   20    8     -2.65      0.00
    2   19    7      0.53      0.00
    2   18    6     -1.46      0.00
    2   17    5     -0.25      0.00
    2   16    4     -2.09      0.00
    2   15    3      0.77      0.00
    2   14    2      0.31      0.00
    2   13    1      1.18      0.00
    2   12    0     -0.32      0.00
    0    2   12      2.29      0.00
    1    2   13     -1.64      0.00
    2    2   14      0.97      0.00
    2   10   22     -3.26      0.00
    2   11   23      2.32      0.00
    2   12   24     -1.73      0.00
    2   13   25     -1.01      0.00
    2   14   26      2.52      0.00
    2   15   27      5.26      0.00
    2   16   28      2.00      0.00
    1   25   14     -4.14      0.00
    1   24   13      0.71      0.00
    1   23   12     -3.60      0.00
    1   22   11     -1.08      0.00
    1   21   10      0.70      0.00
    1   20    9      1.84      0.00
    1   19    8      1.40      0.00
    1   18    7      0.43      0.00
    1   17    6      1.49      0.00
    1   16    5      1.25      0.00
    1   15    4      0.63      0.00
    1   14    3      1.09      0.00
    1   13    2     -2.07      0.00
    1   12    1     -2.30      0.00
    1   11    0      1.02      0.00
    0    1   11      2.67      0.00
    1    1   12      0.84      0.00
    1   11   22      2.57      0.00
    1   12   23      2.80      0.00
    1   13   24     -2.26      0.00
    1   14   25     -2.03      0.00
    1   15   26     -0.93      0.00
    1   16   27     -6.25      0.00
    1   17   28      1.22      0.00
    0   26   16      1.74      0.00
    0   25   15      2.03      0.00
    0   24   14     -3.58      0.00
    0   23   13      0.19      0.00
    0   22   12      4.64      0.00
    0   21   11     -4.77      0.00
    0   20   10      2.01      0.00
    0   19    9     -0.86      0.00
    0   18    8     -2.84      0.00
    0   17    7     -1.54      0.00
    0   16    6     -0.86      0.00
    0   15    5     -1.58      0.00
    0   14    4      0.51      0.00
    0   13    3      0.03      0.00
    0   12    2      0.67      0.00
    0   11    1      0.72      0.00
    0   10    0      4.47      0.00
    0    0   10    -11.51      0.00
    0   12   22     -0.92      0.00
    0   13   23      0.45      0.00
    0   14   24      1.17      0.00
    0   15   25     -1.21      0.00
    0   16   26      1.63      0.00
    0   17   27     -3.07      0.00
    0   18   28     -2.93      0.00
    1   19   28     -2.31      0.00
    2   20   28      4.14      0.00
    3   25   18     -1.49      0.00
    3   20   27      0.82      0.00
    4   20   26     -0.95      0.00
    5   20   25     -5.02      0.00
    6   20   24      2.21      0.00
    7   20   23      3.76      0.00
    8   20   22     -8.19      0.00
    9   20   21      2.82      0.00
   11   24    3     -0.50      0.00
   12   24    2      6.06      0.00
   13   24    1      1.65      0.00
   14   24    0     -2.79      0.00
    7   25    8      1.02      0.00
    8   25    7      1.88      0.00
    9   25    6     -1.14      0.00
   10   25    5     -1.14      0.00
   11   25    4      2.58      0.00
   12   25    3     -2.26      0.00
   13   25    2     -1.44      0.00
    9   26    7      2.86      0.00
   10   26    6      2.30      0.00
   11   26    5     -2.86      0.00
   12   26    4      0.36      0.00
   13   26    3      3.22      0.00
   18   20   14      2.40      0.00
   17   20   15     -4.29      0.00
   16   20   16      0.86      0.00
   15   20   17      3.97      0.00
   14   20   18      2.14      0.00
   13   20   19     -3.65      0.00
   18   19   13     -2.16      0.00
   17   19   14     -2.30      0.00
   16   19   15      3.95      0.00
   15   19   16     -3.48      0.00
   14   19   17     -1.31      0.00
   13   19   18      5.19      0.00
   12   19   19     -1.85      0.00
   11   19   20     -1.63      0.00
   10   19   21      2.70      0.00
    9   19   22     -1.66      0.00
   18   18   12      5.01      0.00
   17   18   13     -0.14      0.00
   16   18   14     -4.03      0.00
   15   18   15      1.69      0.00
   14   18   16     -1.53      0.00
   13   18   17      0.59      0.00
   12   18   18     -2.51      0.00
   11   18   19      3.20      0.00
   17   17   12      3.00      0.00
   16   17   13     -0.34      0.00
   15   17   14      0.69      0.00
   14   17   15     -2.44      0.00
   13   17   16     -1.26      0.00
   12   17   17      4.40      0.00
   11   17   18     -2.01      0.00
   16   16   12     -0.23      0.00
   15   16   13      2.17      0.00
   14   16   14      6.50      0.00
   13   16   15     -5.80      0.00
   12   16   16     -1.69      0.00
   11   16   17      0.97      0.00
   15   15   12     -2.86      0.00
   14   15   13     -1.47      0.00
   13   15   14      4.40      0.00
   12   15   15     -1.79      0.00
   11   15   16      0.30      0.00
   14   14   12     -0.63      0.00
   13   14   13      3.08      0.00
   12   14   14     -2.38      0.00
   11   14   15     -0.40      0.00
   13   13   12      0.79      0.00
   12   13   13     -0.22      0.00
   11   13   14     -3.64      0.00
   12   12   12      3.55      0.00
   11   12   13     -0.47      0.00
   11   23    0     -7.33      0.00
   11   11   12     -1.14      0.00
    0   11   23     -6.19      0.00
   10   24    2     -4.27      0.00
   10   23    1      6.38      0.00
   10   22    0     -6.69      0.00
   10   10   12      1.46      0.00
    0   10   22      0.02      0.00
    1   10   23      0.86      0.00
    9   24    3      1.98      0.00
    9   23    2      4.25      0.00
    9   22    1      1.30      0.00
    9   21    0     -6.20      0.00
    9    9   12      2.59      0.00
    0    9   21      0.19      0.00
    1    9   22      1.46      0.00
    2    9   23     -1.17      0.00
    3    9   24     -0.23      0.00
    8   24    4     -4.79      0.00
    8   23    3     -1.69      0.00
    8   22    2      2.97      0.00
    8   21    1      0.87      0.00
    8   20    0      3.32      0.00
    0    8   20      0.04      0.00
    1    8   21     -0.11      0.00
    2    8   22     -0.10      0.00
    3    8   23     -1.14      0.00
    4    8   24      0.83      0.00
    5    8   25     -0.66      0.00
    6    8   26      3.14      0.00
    7   25    6     -0.97      0.00
    7   24    5      0.51      0.00
    7   23    4      2.29      0.00
    7   22    3     -4.57      0.00
    7   21    2      2.23      0.00
    7   20    1     -2.66      0.00
    7   19    0     -1.07      0.00
    0    7   19     -1.59      0.00
    1    7   20      0.85      0.00
    2    7   21     -0.01      0.00
    3    7   22      0.79      0.00
    4    7   23     -1.03      0.00
    5    7   24     -1.33      0.00
    6    7   25      0.54      0.00
    7    7   26     -0.75      0.00
    7    8   27     -1.91      0.00
    7    9   28     -0.60      0.00
    7   10   29      1.84      0.00
    7   11   30      2.97      0.00
    6   25    7      0.54      0.00
    6   24    6     -0.94      0.00
    6   23    5     -0.78      0.00
    6   22    4      1.47      0.00
    6   21    3      0.80      0.00
    6   20    2     -0.56      0.00
    6   19    1     -2.23      0.00
    6   18    0      3.45      0.00
    0    6   18      1.33      0.00
    1    6   19      1.55      0.00
    2    6   20     -2.22      0.00
    3    6   21      0.43      0.00
    4    6   22      4.31      0.00
    5    6   23     -3.01      0.00
    6    6   24      2.72      0.00
    6    9   27     -0.43      0.00
    6   10   28     -5.48      0.00
    6   11   29      4.82      0.00
    6   12   30      0.06      0.00
    5   25    8      1.27      0.00
    5   24    7      0.02      0.00
    5   23    6      0.57      0.00
    5   22    5     -1.18      0.00
    5   21    4     -1.25      0.00
    5   20    3      1.57      0.00
    5   19    2      1.74      0.00
    5   18    1     -3.27      0.00
    5   17    0      0.36      0.00
    0    5   17     -0.64      0.00
    1    5   18      0.94      0.00
    2    5   19     -0.24      0.00
    3    5   20     -1.45      0.00
    4    5   21      0.14      0.00
    5    5   22      1.47      0.00
    5    9   26     -0.56      0.00
    5   10   27      1.57      0.00
    5   11   28     -5.20      0.00
    5   12   29     -0.27      0.00
    5   13   30      4.56      0.00
    4   25    9     -3.65      0.00
    4   24    8     -1.10      0.00
    4   23    7      4.46      0.00
    4   22    6     -0.37      0.00
    4   21    5     -0.55      0.00
    4   20    4      0.02      0.00
    4   19    3      2.05      0.00
    4   18    2     -1.09      0.00
    4   17    1      1.44      0.00
    4   16    0      3.38      0.00
    0    4   16      1.44      0.00
    1    4   17      2.04      0.00
    2    4   18     -2.42      0.00
    3    4   19     -1.14      0.00
    4    4   20     -0.58      0.00
    4    9   25     -0.46      0.00
    4   10   26      4.30      0.00
    4   11   27     -1.10      0.00
    4   12   28     -1.09      0.00
    4   13   29     -2.89      0.00
    3   26   11     -3.26      0.00
    3   25   10      0.22      0.00
    3   24    9      0.27      0.00
    3   23    8     -1.52      0.00
    3   22    7     -1.77      0.00
    3   21    6      2.35      0.00
    3   20    5     -2.08      0.00
    3   19    4     -0.82      0.00
    3   18    3     -0.08      0.00
    3   17    2     -2.14      0.00
    3   16    1      0.32      0.00
    3   15    0     -0.35      0.00
    0    3   15     -2.04      0.00
    1    3   16      1.05      0.00
    2    3   17      2.24      0.00
    3    3   18     -0.29      0.00
    3   10   25      1.19      0.00
    3   11   26     -0.66      0.00
    3   12   27      3.27      0.00
    3   13   28     -2.72      0.00
    3   14   29      3.14      0.00
    3   15   30     -4.17      0.00
    2   26   12     -5.11      0.00
    2   25   11      1.34      0.00
    2   24   10      3.08      0.00
    2   23    9     -1.83      0.00
    2   22    8     -0.53      0.00
    2   21    7      3.41      0.00
    2   20    6     -3.18      0.00
    2   19    5      1.80      0.00
    2   18    4      1.51      0.00
    2   17    3     -0.35      0.00
    2   16    2     -0.73      0.00
    2   15    1      1.34      0.00
    2   14    0      2.22      0.00
    0    2   14      3.24      0.00
    1    2   15     -2.39      0.00
    2    2   16      2.59      0.00
    2   10   24     -3.02      0.00
    2   11   25      1.61      0.00
    2   12   26     -1.35      0.00
    2   13   27     -1.05      0.00
    2   14   28     -1.45      0.00
    2   15   29      0.73      0.00
    1   26   13     10.00      0.00
    1   25   12     -2.18      0.00
    1   24   11     -6.38      0.00
    1   23   10      2.99      0.00
    1   22    9     -1.05      0.00
    1   21    8     -2.64      0.00
    1   20    7      1.83      0.00
    1   19    6      1.08      0.00
    1   18    5     -2.87      0.00
    1   17    4      1.26      0.00
    1   16    3      0.11      0.00
    1   15    2     -1.11      0.00
    1   14    1     -1.47      0.00
    1   13    0     -2.08      0.00
    0    1   13     -1.49      0.00
    1    1   14      0.39      0.00
    1   11   24      2.07      0.00
    1   12   25      1.29      0.00
    1   13   26     -0.09      0.00
    1   14   27     -1.45      0.00
    1   15   28     -3.00      0.00
    1   16   29     -9.35      0.00
    0   26   14    -10.69      0.00
    0   25   13      8.04      0.00
    0   24   12      3.49      0.00
    0   23   11      1.05      0.00
    0   22   10      1.32      0.00
    0   21    9      0.68      0.00
    0   20    8      0.69      0.00
    0   19    7     -3.85      0.00
    0   18    6      3.10      0.00
    0   17    5     -1.55      0.00
    0   16    4     -1.52      0.00
    0   15    3      0.31      0.00
    0   14    2      1.56      0.00
    0   13    1     -0.31      0.00
    0   12    0      4.54      0.00
    0    0   12     -6.45      0.00
    0   12   24      2.60      0.00
    0   13   25     -0.02      0.00
    0   14   26      4.20      0.00
    0   15   27      0.19      0.00
    0   16   28     11.68      0.00
    0   17   29      1.10      0.00
    1   26   15     -1.13      0.00
    1   18   29      3.16      0.00
    2   26   16      5.12      0.00
    3   19   28     -2.06      0.00
    4   25   17     -5.09      0.00
    4   19   27      4.07      0.00
    5   24   17     -1.50      0.00
    5   19   26      3.52      0.00
    6   19   25     -3.48      0.00
    7   19   24      2.98      0.00
    8   19   23      2.36      0.00
   11   24    1     -2.51      0.00
   12   24    0      4.47      0.00
    8   25    5      2.77      0.00
    9   25    4     -1.36      0.00
   10   25    3      2.69      0.00
   11   25    2      1.98      0.00
   12   25    1     -4.46      0.00
   13   25    0     -1.22      0.00
    7   26    7     -2.30      0.00
    8   26    6      0.01      0.00
    9   26    5      0.30      0.00
   10   26    4     -3.78      0.00
   11   26    3      1.21      0.00
   12   26    2      0.73      0.00
   17   20   17     -6.66      0.00
   18   19   15     -4.94      0.00
   17   19   16      1.31      0.00
   16   19   17      1.40      0.00
   15   19   18      0.04      0.00
   14   19   19     -7.88      0.00
   13   19   20      7.27      0.00
   12   19   21      3.10      0.00
   18   18   14      6.57      0.00
   17   18   15      2.79      0.00
   16   18   16     -1.78      0.00
   15   18   17     -4.32      0.00
   14   18   18      6.28      0.00
   13   18   19     -5.99      0.00
   12   18   20     -3.73      0.00
   11   18   21      0.73      0.00
   10   18   22      3.92      0.00
    9   18   23     -6.13      0.00
   17   17   14      0.37      0.00
   16   17   15     -1.48      0.00
   15   17   16      3.41      0.00
   14   17   17      3.30      0.00
   13   17   18     -1.94      0.00
   12   17   19     -0.19      0.00
   11   17   20      5.75      0.00
   10   17   21     -2.97      0.00
   16   16   14     -0.93      0.00
   15   16   15      0.02      0.00
   14   16   16      0.04      0.00
   13   16   17      2.65      0.00
   12   16   18     -2.22      0.00
   11   16   19     -1.25      0.00
   10   16   20     -3.08      0.00
   15   15   14     -3.48      0.00
   14   15   15     -2.58      0.00
   13   15   16      2.18      0.00
   12   15   17      3.34      0.00
   11   15   18     -4.72      0.00
   10   15   19      3.72      0.00
   14   14   14     -3.55      0.00
   13   14   15      1.10      0.00
   12   14   16     -0.50      0.00
   11   14   17      2.70      0.00
   10   14   18     -4.75      0.00
   13   13   14     -0.27      0.00
   12   13   15     -0.04      0.00
   11   13   16     -0.22      0.00
   10   13   17     -1.55      0.00
   12   12   14      0.57      0.00
   11   12   15      1.54      0.00
   10   12   16     -0.16      0.00
   11   11   14      0.99      0.00
   10   11   15     -0.54      0.00
    9   11   16      0.44      0.00
    0   11   25     -5.47      0.00
   10   24    0     -5.00      0.00
   10   10   14     -2.21      0.00
    9   10   15      1.12      0.00
    0   10   24     -0.39      0.00
    1   10   25      0.07      0.00
    9   24    1     -6.13      0.00
    9   23    0      0.64      0.00
    9    9   14      4.18      0.00
    0    9   23     -1.95      0.00
    1    9   24      2.68      0.00
    2    9   25      0.25      0.00
    3    9   26     -1.55      0.00
    8   25    3     -0.41      0.00
    8   24    2     -2.33      0.00
    8   23    1     -1.61      0.00
    8   22    0      0.82      0.00
    8    8   14     -0.41      0.00
    0    8   22      2.98      0.00
    1    8   23     -3.83      0.00
    2    8   24      2.25      0.00
    3    8   25      1.09      0.00
    4    8   26      3.61      0.00
    5    8   27     -1.54      0.00
    6    8   28      1.27      0.00
    7   25    4     -2.88      0.00
    7   24    3      4.39      0.00
    7   23    2     -0.42      0.00
    7   22    1     -3.69      0.00
    7   21    0      3.49      0.00
    0    7   21     -4.47      0.00
    1    7   22      1.76      0.00
    2    7   23     -0.21      0.00
    3    7   24      0.13      0.00
    4    7   25      1.11      0.00
    5    7   26     -1.78      0.00
    6    7   27      0.89      0.00
    7    7   28     -2.03      0.00
    7    8   29      3.17      0.00
    7    9   30     -1.38      0.00
    6   25    5      4.55      0.00
    6   24    4     -0.29      0.00
    6   23    3      1.74      0.00
    6   22    2     -0.48      0.00
    6   21    1      0.14      0.00
    6   20    0      1.37      0.00
    0    6   20      0.38      0.00
    1    6   21      1.24      0.00
    2    6   22     -1.30      0.00
    3    6   23     -3.58      0.00
    4    6   24      2.52      0.00
    5    6   25     -1.82      0.00
    6    6   26      1.47      0.00
    6    9   29      1.03      0.00
    6   10   30     -3.04      0.00
    5   25    6     -2.34      0.00
    5   24    5     -3.47      0.00
    5   23    4      0.35      0.00
    5   22    3      2.65      0.00
    5   21    2     -1.54      0.00
    5   20    1     -1.95      0.00
    5   19    0      7.15      0.00
    0    5   19     -1.88      0.00
    1    5   20     -0.67      0.00
    2    5   21      1.55      0.00
    3    5   22      0.71      0.00
    4    5   23     -3.10      0.00
    5    5   24      2.45      0.00
    5    9   28      0.86      0.00
    5   10   29      3.77      0.00
    5   11   30     -1.67      0.00
    4   26    8      2.43      0.00
    4   25    7     -1.78      0.00
    4   24    6      1.03      0.00
    4   23    5     -0.07      0.00
    4   22    4     -0.66      0.00
    4   21    3     -0.01      0.00
    4   20    2     -0.41      0.00
    4   19    1     -4.30      0.00
    4   18    0      2.68      0.00
    0    4   18     -0.42      0.00
    1    4   19      0.16      0.00
    2    4   20      1.32      0.00
    3    4   21      1.33      0.00
    4    4   22      0.49      0.00
    4    9   27     -6.47      0.00
    4   10   28      5.14      0.00
    4   11   29      0.28      0.00
    4   12   30      4.51      0.00
    3   26    9     -1.75      0.00
    3   25    8     -1.21      0.00
    3   24    7      1.27      0.00
    3   23    6     -2.04      0.00
    3   22    5      0.26      0.00
    3   21    4      1.81      0.00
    3   20    3      1.27      0.00
    3   19    2     -2.17      0.00
    3   18    1     -0.35      0.00
    3   17    0     -0.82      0.00
    0    3   17     -1.23      0.00
    1    3   18     -0.49      0.00
    2    3   19     -1.64      0.00
    3    3   20      2.05      0.00
    3   10   27     -2.78      0.00
    3   11   28     -1.54      0.00
    3   12   29      0.68      0.00
    3   13   30     -3.27      0.00
    2   26   10      2.82      0.00
    2   25    9      2.39      0.00
    2   24    8      3.05      0.00
    2   23    7     -0.57      0.00
    2   22    6     -3.68      0.00
    2   21    5      1.36      0.00
    2   20    4     -0.01      0.00
    2   19    3      0.92      0.00
    2   18    2      0.42      0.00
    2   17    1      0.77      0.00
    2   16    0     -0.83      0.00
    0    2   16      3.03      0.00
    1    2   17      1.23      0.00
    2    2   18     -3.09      0.00
    2   10   26      0.77      0.00
    2   11   27      0.23      0.00
    2   12   28     -0.13      0.00
    2   13   29      0.21      0.00
    2   14   30     -2.59      0.00
    1   26   11     -1.45      0.00
    1   25   10     -2.03      0.00
    1   24    9     -3.89      0.00
    1   23    8      4.42      0.00
    1   22    7      2.61      0.00
    1   21    6     -2.61      0.00
    1   20    5      2.75      0.00
    1   19    4     -0.73      0.00
    1   18    3     -0.69      0.00
    1   17    2      0.25      0.00
    1   16    1     -1.59      0.00
    1   15    0     -0.17      0.00
    0    1   15     -1.23      0.00
    1    1   16     -1.83      0.00
    1   11   26      1.00      0.00
    1   12   27      2.34      0.00
    1   13   28      2.33      0.00
    1   14   29      2.74      0.00
    1   15   30     -2.76      0.00
    0   26   12     -4.11      0.00
    0   25   11      0.94      0.00
    0   24   10      0.49      0.00
    0   23    9     -0.59      0.00
    0   22    8     -1.00      0.00
    0   21    7     -1.40      0.00
    0   20    6      1.07      0.00
    0   19    5     -2.26      0.00
    0   18    4      2.49      0.00
    0   17    3      0.75      0.00
    0   16    2      1.71      0.00
    0   15    1     -2.36      0.00
    0   14    0      6.76      0.00
    0    0   14      4.03      0.00
    0   12   26     -0.77      0.00
    0   13   27     -3.04      0.00
    0   14   28      2.25      0.00
    0   15   29      4.05      0.00
    0   16   30      3.92      0.00
    1   17   30     -1.95      0.00
    2   26   14     -1.35      0.00
    2   17   29      4.12      0.00
    3   26   15      1.13      0.00
    3   18   29      0.85      0.00
    4   18   28     -1.27      0.00
    5   25   16      5.56      0.00
    5   18   27     -6.54      0.00
    6   24   16     -0.09      0.00
    6   18   26      5.62      0.00
    7   18   25     -9.05      0.00
    8   18   24      5.65      0.00
    9   25    2     10.41      0.00
   10   25    1      1.12      0.00
   11   25    0      0.46      0.00
    5   26    7      3.55      0.00
    6   26    6     -3.19      0.00
    7   26    5      0.95      0.00
    8   26    4      0.12      0.00
    9   26    3     -3.66      0.00
   10   26    2     -6.08      0.00
   11   26    1      7.36      0.00
   12   26    0     -3.00      0.00
   10   27    3      3.68      0.00
   11   27    2      0.59      0.00
   18   19   17     -3.54      0.00
   17   19   18      6.01      0.00
   16   19   19     -2.00      0.00
   15   19   20     -0.56      0.00
   18   18   16      0.54      0.00
   17   18   17      6.53      0.00
   16   18   18      4.35      0.00
   15   18   19     -8.52      0.00
   14   18   20      4.85      0.00
   13   18   21      3.66      0.00
   12   18   22     -9.41      0.00
   11   18   23      3.43      0.00
   17   17   16     -6.44      0.00
   16   17   17     -2.08      0.00
   15   17   18      3.60      0.00
   14   17   19      0.08      0.00
   13   17   20      0.36      0.00
   12   17   21     -0.08      0.00
   11   17   22      1.85      0.00
   10   17   23     -1.35      0.00
    9   17   24     -0.97      0.00
    8   17   25      1.82      0.00
   16   16   16      1.35      0.00
   15   16   17      1.46      0.00
   14   16   18     -3.87      0.00
   13   16   19     -0.86      0.00
   12   16   20      4.14      0.00
   11   16   21     -1.06      0.00
   10   16   22     -3.51      0.00
    9   16   23      2.10      0.00
   15   15   16     -0.63      0.00
   14   15   17      0.14      0.00
   13   15   18     -0.74      0.00
   12   15   19     -0.13      0.00
   11   15   20     -2.23      0.00
   10   15   21      2.13      0.00
    9   15   22      2.40      0.00
   14   14   16     -0.89      0.00
   13   14   17      0.15      0.00
   12   14   18     -0.82      0.00
   11   14   19      3.61      0.00
   10   14   20     -0.81      0.00
    9   14   21     -4.77      0.00
   13   13   16      3.34      0.00
   12   13   17     -2.71      0.00
   11   13   18      0.27      0.00
   10   13   19     -1.95      0.00
    9   13   20      2.03      0.00
   12   12   16     -1.26      0.00
   11   12   17      1.63      0.00
   10   12   18      1.24      0.00
    9   12   19      0.31      0.00
   11   11   16      3.71      0.00
   10   11   17     -2.29      0.00
    9   11   18     -0.72      0.00
    0   11   27     -0.23      0.00
   10   10   16     -1.23      0.00
    9   10   17      0.91      0.00
    0   10   26      1.73      0.00
    1   10   27     -2.99      0.00
    9    9   16      2.71      0.00
    0    9   25      0.69      0.00
    1    9   26      0.63      0.00
    2    9   27     -1.51      0.00
    3    9   28      1.62      0.00
    8   25    1     -8.63      0.00
    8   24    0      3.01      0.00
    8    8   16      0.38      0.00
    0    8   24      1.86      0.00
    1    8   25     -2.29      0.00
    2    8   26      0.73      0.00
    3    8   27     -0.86      0.00
    4    8   28      3.28      0.00
    5    8   29      1.42      0.00
    6    8   30     -0.28      0.00
    7   25    2      1.58      0.00
    7   24    1      1.83      0.00
    7   23    0      0.65      0.00
    0    7   23      0.01      0.00
    1    7   24      0.00      0.00
    2    7   25     -0.08      0.00
    3    7   26     -0.51      0.00
    4    7   27     -1.34      0.00
    5    7   28     -1.68      0.00
    6    7   29     -0.67      0.00
    7    7   30      1.61      0.00
    7    8   31      1.08      0.00
    6   25    3      2.10      0.00
    6   24    2     -2.21      0.00
    6   23    1      0.51      0.00
    6   22    0      0.07      0.00
    0    6   22     -0.24      0.00
    1    6   23      1.65      0.00
    2    6   24      0.79      0.00
    3    6   25     -2.56      0.00
    4    6   26     -0.45      0.00
    5    6   27      0.83      0.00
    6    6   28      0.68      0.00
    6    9   31      0.44      0.00
    5   26    5     10.70      0.00
    5   25    4     -3.80      0.00
    5   24    3      1.52      0.00
    5   23    2     -4.71      0.00
    5   22    1      2.83      0.00
    5   21    0     -0.16      0.00
    0    5   21     -0.10      0.00
    1    5   22     -0.89      0.00
    2    5   23     -0.35      0.00
    3    5   24      4.57      0.00
    4    5   25      0.48      0.00
    5    5   26     -0.88      0.00
    5    9   30      0.01      0.00
    5   10   31      0.17      0.00
    4   26    6    -11.01      0.00
    4   25    5      2.78      0.00
    4   24    4      1.61      0.00
    4   23    3      3.57      0.00
    4   22    2     -2.44      0.00
    4   21    1     -1.75      0.00
    4   20    0      4.64      0.00
    0    4   20      0.26      0.00
    1    4   21     -0.27      0.00
    2    4   22     -0.79      0.00
    3    4   23     -0.96      0.00
    4    4   24     -0.12      0.00
    4    9   29     -2.80      0.00
    4   10   30     -1.44      0.00
    4   11   31     -1.28      0.00
    3   26    7      5.66      0.00
    3   25    6     -2.95      0.00
    3   24    5      0.48      0.00
    3   23    4     -1.28      0.00
    3   22    3     -0.21      0.00
    3   21    2      0.50      0.00
    3   20    1      1.83      0.00
    3   19    0      1.45      0.00
    0    3   19     -2.15      0.00
    1    3   20      3.10      0.00
    2    3   21     -0.10      0.00
    3    3   22     -3.84      0.00
    3   10   29      1.61      0.00
    3   11   30     -0.16      0.00
    3   12   31     -5.06      0.00
    2   26    8      5.13      0.00
    2   25    7     -1.36      0.00
    2   24    6      3.24      0.00
    2   23    5     -1.65      0.00
    2   22    4      4.60      0.00
    2   21    3     -5.57      0.00
    2   20    2     -0.45      0.00
    2   19    1      1.97      0.00
    2   18    0     -0.58      0.00
    0    2   18     -0.89      0.00
    1    2   19      0.56      0.00
    2    2   20      1.92      0.00
    2   10   28      1.71      0.00
    2   11   29      1.22      0.00
    2   12   30      4.17      0.00
    2   13   31      1.47      0.00
    1   26    9     -5.57      0.00
    1   25    8     -4.83      0.00
    1   24    7     -3.70      0.00
    1   23    6      0.41      0.00
    1   22    5     -0.27      0.00
    1   21    4      2.32      0.00
    1   20    3      0.56      0.00
    1   19    2     -2.25      0.00
    1   18    1      0.71      0.00
    1   17    0      1.11      0.00
    0    1   17     -2.02      0.00
    1    1   18     -0.97      0.00
    1   11   28     -2.54      0.00
    1   12   29      0.55      0.00
    1   13   30      1.97      0.00
    1   14   31      0.86      0.00
    0   26   10      2.49      0.00
    0   25    9     15.38      0.00
    0   24    8     -4.52      0.00
    0   23    7     -0.37      0.00
    0   22    6      0.96      0.00
    0   21    5     -3.29      0.00
    0   20    4     -1.54      0.00
    0   19    3      3.03      0.00
    0   18    2     -1.02      0.00
    0   17    1     -3.95      0.00
    0   16    0      6.75      0.00
    0    0   16      6.56      0.00
    0   12   28     -1.14      0.00
    0   13   29     -6.60      0.00
    0   14   30     -0.14      0.00
    0   15   31      4.83      0.00
    1   27   12    -12.45      0.00
    1   16   31     -3.68      0.00
    2   27   13      7.45      0.00
    2   16   30      5.42      0.00
    3   27   14      1.93      0.00
    3   26   13      1.20      0.00
    3   17   30     -8.01      0.00
    4   26   14     -6.14      0.00
    4   17   29      2.80      0.00
    5   26   15     -0.10      0.00
    5   25   14     -7.28      0.00
    5   17   28      4.84      0.00
    6   25   15     -2.63      0.00
    6   17   27      1.69      0.00
    7   24   15     -5.47      0.00
    7   17   26     -1.90      0.00
    9   25    0     15.85      0.00
    6   26    4     -4.06      0.00
    7   26    3     -1.74      0.00
    8   26    2      4.54      0.00
    9   26    1     -6.41      0.00
   10   26    0    -10.03      0.00
    7   27    4      0.95      0.00
    8   27    3     -1.89      0.00
    9   27    2      2.61      0.00
   10   27    1      5.37      0.00
   11   27    0     -5.34      0.00
   18   18   18     -7.09      0.00
   17   18   19      1.20      0.00
   16   18   20      7.44      0.00
   15   18   21     -4.33      0.00
   14   18   22     -3.97      0.00
   17   17   18     -4.46      0.00
   16   17   19     -9.06      0.00
   15   17   20      5.58      0.00
   14   17   21      1.94      0.00
   13   17   22     -7.90      0.00
   12   17   23      8.16      0.00
   11   17   24     -2.04      0.00
   16   16   18      4.36      0.00
   15   16   19     -0.95      0.00
   14   16   20     -0.06      0.00
   13   16   21      2.25      0.00
   12   16   22     -2.86      0.00
   11   16   23      1.95      0.00
   10   16   24      1.58      0.00
    9   16   25     -0.06      0.00
    8   16   26     -2.22      0.00
   15   15   18     -1.26      0.00
   14   15   19     -0.09      0.00
   13   15   20     -0.77      0.00
   12   15   21     -0.11      0.00
   11   15   22     -1.01      0.00
   10   15   23     -2.82      0.00
    9   15   24      2.61      0.00
   14   14   18     -0.67      0.00
   13   14   19     -0.09      0.00
   12   14   20      2.62      0.00
   11   14   21     -0.80      0.00
   10   14   22      2.67      0.00
    9   14   23     -1.13      0.00
   13   13   18      4.36      0.00
   12   13   19     -2.83      0.00
   11   13   20      1.57      0.00
   10   13   21     -1.99      0.00
    9   13   22     -1.96      0.00
   12   12   18     -3.93      0.00
   11   12   19      3.27      0.00
   10   12   20      0.99      0.00
    9   12   21      2.57      0.00
   11   11   18     -0.15      0.00
   10   11   19     -2.21      0.00
    9   11   20     -0.33      0.00
   10   10   18     -0.52      0.00
    9   10   19      1.15      0.00
    0   10   28      1.01      0.00
    1   10   29      2.07      0.00
    9    9   18      2.13      0.00
    8    9   19      0.71      0.00
    0    9   27     -0.28      0.00
    1    9   28      1.02      0.00
    2    9   29      1.68      0.00
    3    9   30     -3.41      0.00
    8    8   18      1.64      0.00
    0    8   26      0.59      0.00
    1    8   27     -1.10      0.00
    2    8   28      0.85      0.00
    3    8   29      2.69      0.00
    4    8   30     -3.90      0.00
    5    8   31      1.27      0.00
    7   25    0      4.30      0.00
    0    7   25     -0.91      0.00
    1    7   26      1.20      0.00
    2    7   27     -1.34      0.00
    3    7   28      0.67      0.00
    4    7   29      2.42      0.00
    5    7   30     -0.34      0.00
    6    7   31     -5.42      0.00
    7    7   32      3.14      0.00
    6   25    1     -4.07      0.00
    6   24    0      3.30      0.00
    0    6   24     -0.22      0.00
    1    6   25     -0.12      0.00
    2    6   26     -0.58      0.00
    3    6   27     -0.14      0.00
    4    6   28     -0.88      0.00
    5    6   29     -1.11      0.00
    6    6   30      5.00      0.00
    6    8   32      0.67      0.00
    5   26    3      2.92      0.00
    5   25    2      0.24      0.00
    5   24    1     -0.86      0.00
    5   23    0      0.75      0.00
    0    5   23     -0.20      0.00
    1    5   24     -0.83      0.00
    2    5   25      1.46      0.00
    3    5   26     -0.81      0.00
    4    5   27      1.07      0.00
    5    5   28      0.34      0.00
    5    9   32      1.75      0.00
    4   26    4     -7.34      0.00
    4   25    3      0.47      0.00
    4   24    2     -2.51      0.00
    4   23    1      1.18      0.00
    4   22    0      0.01      0.00
    0    4   22      0.41      0.00
    1    4   23      0.12      0.00
    2    4   24     -1.37      0.00
    3    4   25      3.28      0.00
    4    4   26     -3.95      0.00
    4    9   31     -0.08      0.00
    4   10   32      1.33      0.00
    3   26    5      9.15      0.00
    3   25    4     -2.73      0.00
    3   24    3      2.80      0.00
    3   23    2     -3.12      0.00
    3   22    1      0.62      0.00
    3   21    0     -0.78      0.00
    0    3   21     -1.51      0.00
    1    3   22     -0.13      0.00
    2    3   23      2.02      0.00
    3    3   24     -2.68      0.00
    3   10   31      1.69      0.00
    3   11   32      3.34      0.00
    2   26    6     -0.26      0.00
    2   25    5      0.22      0.00
    2   24    4      0.62      0.00
    2   23    3     -1.03      0.00
    2   22    2      3.29      0.00
    2   21    1      1.15      0.00
    2   20    0     -4.04      0.00
    0    2   20      0.34      0.00
    1    2   21     -1.55      0.00
    2    2   22     -0.79      0.00
    2   10   30     -3.51      0.00
    2   11   31     -4.46      0.00
    2   12   32      5.47      0.00
    1   26    7     -2.21      0.00
    1   25    6      1.19      0.00
    1   24    5     -2.27      0.00
    1   23    4      0.11      0.00
    1   22    3     -4.25      0.00
    1   21    2      1.11      0.00
    1   20    1      1.14      0.00
    1   19    0     -0.35      0.00
    0    1   19      0.30      0.00
    1    1   20      0.19      0.00
    1   11   30     -2.02      0.00
    1   12   31     -3.39      0.00
    1   13   32      1.99      0.00
    0   27    9     -6.73      0.00
    0   26    8     -1.78      0.00
    0   25    7      4.74      0.00
    0   24    6      4.03      0.00
    0   23    5     -0.33      0.00
    0   22    4      2.89      0.00
    0   21    3     -0.44      0.00
    0   20    2     -1.18      0.00
    0   19    1     -2.42      0.00
    0   18    0      4.41      0.00
    0    0   18      5.04      0.00
    0   11   29      5.11      0.00
    0   12   30      0.46      0.00
    0   13   31     -6.27      0.00
    0   14   32      4.95      0.00
    1   27   10      4.03      0.00
    2   27   11      7.39      0.00
    2   15   31     -2.97      0.00
    3   27   12     -0.53      0.00
    3   16   31      8.60      0.00
    4   27   13     -3.65      0.00
    4   26   12      0.84      0.00
    4   16   30     -4.93      0.00
    5   26   13      6.95      0.00
    5   16   29     -1.38      0.00
    5   17   30      2.83      0.00
    6   25   13      4.25      0.00
    6   16   28     -0.05      0.00
    6   17   29     -1.45      0.00
    7   25   14     -0.43      0.00
    7   16   27      3.23      0.00
    7   17   28     -6.50      0.00
    8   24   14      3.96      0.00
    8   17   27      3.19      0.00
    9   17   26      0.69      0.00
    6   26    2     -0.51      0.00
    7   26    1     -0.08      0.00
    8   26    0      0.63      0.00
    5   27    4     -1.02      0.00
    6   27    3     -0.61      0.00
    7   27    2      1.86      0.00
    8   27    1     -0.10      0.00
    9   27    0      1.65      0.00
   17   17   20      6.56      0.00
   16   17   21     -6.89      0.00
   15   17   22     -1.39      0.00
   14   17   23      7.49      0.00
   16   16   20      7.43      0.00
   15   16   21      1.06      0.00
   14   16   22     -2.45      0.00
   13   16   23      2.37      0.00
   12   16   24      0.87      0.00
   11   16   25     -0.17      0.00
   10   16   26     -1.99      0.00
   15   15   20     -0.88      0.00
   14   15   21     -0.68      0.00
   13   15   22     -1.38      0.00
   12   15   23     -0.05      0.00
   11   15   24      0.78      0.00
   10   15   25     -0.39      0.00
    9   15   26      2.05      0.00
    8   15   27     -1.07      0.00
   14   14   20      0.80      0.00
   13   14   21     -0.86      0.00
   12   14   22      1.29      0.00
   11   14   23     -1.04      0.00
   10   14   24      1.76      0.00
    9   14   25      0.23      0.00
    8   14   26     -5.61      0.00
   13   13   20      2.35      0.00
   12   13   21     -2.08      0.00
   11   13   22      1.81      0.00
   10   13   23      0.52      0.00
    9   13   24     -3.35      0.00
    8   13   25      3.76      0.00
   12   12   20     -3.04      0.00
   11   12   21      0.50      0.00
   10   12   22     -2.65      0.00
    9   12   23      4.77      0.00
    8   12   24     -3.25      0.00
   11   11   20      1.75      0.00
   10   11   21     -0.47      0.00
    9   11   22     -0.84      0.00
    8   11   23     -1.17      0.00
   10   10   20      1.90      0.00
    9   10   21     -1.51      0.00
    8   10   22      4.94      0.00
    0   10   30     -6.17      0.00
    1   10   31      0.52      0.00
    9    9   20     -0.41      0.00
    8    9   21      0.35      0.00
    0    9   29      1.89      0.00
    1    9   30     -2.06      0.00
    2    9   31      3.17      0.00
    8    8   20     -2.26      0.00
    0    8   28      0.00      0.00
    1    8   29      0.22      0.00
    2    8   30     -0.92      0.00
    3    8   31      1.76      0.00
    4    8   32     -1.79      0.00
    0    7   27     -0.86      0.00
    1    7   28     -1.11      0.00
    2    7   29     -0.73      0.00
    3    7   30     -1.88      0.00
    4    7   31      1.73      0.00
    5    7   32     -0.42      0.00
    0    6   26      1.34      0.00
    1    6   27      2.15      0.00
    2    6   28      0.45      0.00
    3    6   29      0.39      0.00
    4    6   30     -2.84      0.00
    5    6   31      0.32      0.00
    6    6   32      3.05      0.00
    5   26    1      1.21      0.00
    5   25    0      3.16      0.00
    0    5   25     -0.64      0.00
    1    5   26     -3.50      0.00
    2    5   27      4.05      0.00
    3    5   28     -0.05      0.00
    4    5   29      0.73      0.00
    5    5   30     -0.62      0.00
    5    8   33      2.79      0.00
    4   26    2      2.46      0.00
    4   25    1     -0.52      0.00
    4   24    0      0.68      0.00
    0    4   24      1.03      0.00
    1    4   25      0.84      0.00
    2    4   26     -4.59      0.00
    3    4   27      2.14      0.00
    4    4   28      2.43      0.00
    4    9   33     -2.64      0.00
    3   26    3     -4.37      0.00
    3   25    2      1.63      0.00
    3   24    1     -0.44      0.00
    3   23    0      1.46      0.00
    0    3   23      0.35      0.00
    1    3   24     -0.04      0.00
    2    3   25      2.57      0.00
    3    3   26     -8.56      0.00
    3    9   32      1.17      0.00
    3   10   33     -2.69      0.00
    2   26    4      1.67      0.00
    2   25    3      0.51      0.00
    2   24    2     -1.34      0.00
    2   23    1      0.79      0.00
    2   22    0     -2.14      0.00
    0    2   22      0.34      0.00
    1    2   23      0.04      0.00
    2    2   24      3.26      0.00
    2   10   32      0.50      0.00
    2   11   33     -2.29      0.00
    1   27    6     -3.97      0.00
    1   26    5      3.22      0.00
    1   25    4     -2.94      0.00
    1   24    3      2.29      0.00
    1   23    2     -0.91      0.00
    1   22    1      0.96      0.00
    1   21    0     -3.53      0.00
    0    1   21     -0.56      0.00
    1    1   22     -0.94      0.00
    1   11   32      5.29      0.00
    1   12   33     -2.67      0.00
    0   27    7     -1.30      0.00
    0   26    6     -0.95      0.00
    0   25    5     -0.99      0.00
    0   24    4     -1.20      0.00
    0   23    3      4.21      0.00
    0   22    2     -1.46      0.00
    0   21    1      2.52      0.00
    0   20    0      3.21      0.00
    0    0   20     -0.42      0.00
    0   11   31      3.19      0.00
    0   12   32      0.67      0.00
    0   13   33     -4.39      0.00
    1   27    8      8.95      0.00
    2   27    9     -9.10      0.00
    2   14   32     -1.53      0.00
    3   27   10      3.39      0.00
    3   14   31      4.20      0.00
    3   15   32     -2.38      0.00
    4   27   11     -5.40      0.00
    4   26   10      5.94      0.00
    4   14   30      2.68      0.00
    4   15   31      0.42      0.00
    4   16   32     -3.38      0.00
    5   27   12     -3.86      0.00
    5   26   11      5.08      0.00
    5   15   30     -1.57      0.00
    5   16   31      1.20      0.00
    6   26   12     -4.44      0.00
    6   15   29     -2.56      0.00
    6   16   30      3.56      0.00
    7   25   12     -5.18      0.00
    7   15   28      1.66      0.00
    8   25   13      1.78      0.00
    8   16   28     -0.84      0.00
    9   16   27      0.44      0.00
    6   26    0     -2.17      0.00
    3   27    4     -0.64      0.00
    4   27    3     -2.10      0.00
    5   27    2      0.62      0.00
    6   27    1      3.25      0.00
    7   27    0     -0.45      0.00
   16   16   22     -3.30      0.00
   15   16   23      4.19      0.00
   13   16   25     -7.01      0.00
   15   15   22     -2.16      0.00
   14   15   23     -1.51      0.00
   13   15   24      3.58      0.00
   12   15   25     -4.99      0.00
   11   15   26     -3.57      0.00
   10   15   27      2.05      0.00
   14   14   22      5.37      0.00
   13   14   23     -1.63      0.00
   12   14   24      2.09      0.00
   11   14   25     -3.12      0.00
   10   14   26     -0.54      0.00
    9   14   27     -0.30      0.00
    8   14   28     -4.61      0.00
   13   13   22      1.12      0.00
   12   13   23     -2.00      0.00
   11   13   24      4.30      0.00
   10   13   25      1.67      0.00
    9   13   26     -2.32      0.00
    8   13   27      3.78      0.00
   12   12   22      0.87      0.00
   11   12   23     -1.63      0.00
   10   12   24     -6.05      0.00
    9   12   25      6.50      0.00
    8   12   26     -1.86      0.00
   11   11   22     -1.89      0.00
   10   11   23      7.10      0.00
    9   11   24     -2.41      0.00
    8   11   25      0.23      0.00
   10   10   22     -2.19      0.00
    9   10   23     -3.04      0.00
    8   10   24      2.73      0.00
    0   10   32     -2.53      0.00
    9    9   22      2.23      0.00
    8    9   23     -0.07      0.00
    0    9   31      5.39      0.00
    1    9   32      0.22      0.00
    8    8   22      0.13      0.00
    0    8   30     -1.85      0.00
    1    8   31     -2.86      0.00
    2    8   32     -0.53      0.00
    3    8   33      2.35      0.00
    0    7   29      4.53      0.00
    1    7   30     -1.38      0.00
    2    7   31     -1.56      0.00
    3    7   32      0.50      0.00
    4    7   33      1.44      0.00
    0    6   28     -1.98      0.00
    1    6   29     -0.57      0.00
    2    6   30      3.31      0.00
    3    6   31      1.94      0.00
    4    6   32     -1.00      0.00
    5    6   33      3.55      0.00
    0    5   27      3.13      0.00
    1    5   28     -2.45      0.00
    2    5   29     -1.64      0.00
    3    5   30     -2.76      0.00
    4    5   31      3.70      0.00
    5    5   32     -6.07      0.00
    4   26    0     -0.31      0.00
    0    4   26      0.60      0.00
    1    4   27     -1.03      0.00
    2    4   28      2.07      0.00
    3    4   29     -1.44      0.00
    4    4   30     -0.65      0.00
    3   26    1     -2.45      0.00
    3   25    0      0.74      0.00
    0    3   25      2.06      0.00
    1    3   26     -1.35      0.00
    2    3   27      2.98      0.00
    3    3   28     -1.29      0.00
    2   26    2      2.80      0.00
    2   25    1      1.07      0.00
    2   24    0      2.14      0.00
    0    2   24      0.13      0.00
    1    2   25     -5.60      0.00
    2    2   26      4.14      0.00
    2    9   33      2.67      0.00
    1   27    4     -2.42      0.00
    1   26    3     -0.67      0.00
    1   25    2     -0.28      0.00
    1   24    1     -5.56      0.00
    1   23    0      2.85      0.00
    0    1   23      3.05      0.00
    1    1   24      0.04      0.00
    1   10   33     -3.88      0.00
    0   27    5      4.29      0.00
    0   26    4     -0.75      0.00
    0   25    3      1.65      0.00
    0   24    2      0.12      0.00
    0   23    1     -1.07      0.00
    0   22    0     -2.30      0.00
    0    0   22      0.02      0.00
    0   11   33     -0.35      0.00
    2   27    7     -2.15      0.00
    2   13   33      2.69      0.00
    3   27    8      1.34      0.00
    3   13   32     -2.83      0.00
    3   14   33      0.85      0.00
    4   27    9    -10.90      0.00
    4   13   31     -2.72      0.00
    4   14   32      1.80      0.00
    5   27   10      2.77      0.00
    5   26    9     -1.51      0.00
    5   14   31      1.20      0.00
    5   15   32     -2.26      0.00
    6   27   11      1.42      0.00
    6   26   10      1.19      0.00
    6   14   30      3.21      0.00
    6   15   31      0.88      0.00
    7   26   11      3.54      0.00
    7   14   29     -0.56      0.00
    8   25   11     -0.04      0.00
    9   25   12      1.33      0.00
    2   27    3     -5.91      0.00
    3   27    2      7.28      0.00
    4   27    1     -3.37      0.00
    5   27    0     -1.61      0.00
    6   28    0     -6.41      0.00
    7   28    1      1.48      0.00
    8   28    2     -1.32      0.00
   16   17   23      3.41      0.00
   16   16   24     -2.12      0.00
   15   15   24     -0.68      0.00
   14   15   25      5.41      0.00
   13   15   26      4.28      0.00
   14   14   24     -3.29      0.00
   13   14   25      0.23      0.00
   12   14   26      7.00      0.00
   11   14   27      0.25      0.00
   10   14   28     -2.59      0.00
   13   13   24      0.69      0.00
   12   13   25     -5.47      0.00
   11   13   26      4.04      0.00
   10   13   27      5.71      0.00
    9   13   28     -2.32      0.00
    8   13   29     -0.74      0.00
   12   12   24      6.43      0.00
   11   12   25     -6.17      0.00
   10   12   26     -6.34      0.00
    9   12   27      4.03      0.00
    8   12   28     -1.02      0.00
   11   11   24      0.72      0.00
   10   11   25      3.01      0.00
    9   11   26     -1.57      0.00
    8   11   27      0.79      0.00
   10   10   24     -3.75      0.00
    9   10   25     -1.21      0.00
    8   10   26     -0.09      0.00
    9    9   24     -0.16      0.00
    8    9   25      4.06      0.00
    8    8   24     -1.26      0.00
    0    8   32      1.73      0.00
    1    8   33     -1.17      0.00
    0    7   31      3.92      0.00
    1    7   32      0.60      0.00
    2    7   33      2.84      0.00
    0    6   30     -0.72      0.00
    1    6   31     -2.75      0.00
    2    6   32      0.77      0.00
    3    6   33      3.43      0.00
    4    6   34     -0.36      0.00
    0    5   29     -0.33      0.00
    1    5   30      4.36      0.00
    2    5   31     -1.96      0.00
    3    5   32     -5.44      0.00
    4    5   33      1.58      0.00
    5    5   34     -3.53      0.00
    0    4   28      4.22      0.00
    1    4   29     -5.53      0.00
    2    4   30      3.44      0.00
    3    4   31      1.58      0.00
    4    4   32      2.93      0.00
    0    3   27      3.62      0.00
    1    3   28      0.58      0.00
    2    3   29     -2.18      0.00
    3    3   30     -2.16      0.00
    3    7   34     -6.48      0.00
    2   26    0     -4.23      0.00
    0    2   26     -1.27      0.00
    1    2   27      1.08      0.00
    2    2   28     -0.24      0.00
    2    8   34     -5.75      0.00
    1   26    1      0.84      0.00
    1   25    0      1.65      0.00
    0    1   25     -1.04      0.00
    1    1   26      4.42      0.00
    1    9   34      0.80      0.00
    0   27    3     -2.19      0.00
    0   26    2      2.52      0.00
    0   25    1     -1.18      0.00
    0   24    0      9.43      0.00
    0    0   24     -3.67      0.00
    0    9   33      0.94      0.00
    0   10   34      1.34      0.00
    1   11   34      2.92      0.00
    2   27    5      1.64      0.00
    2   12   34      0.49      0.00
    3   27    6    -12.71      0.00
    3   12   33     -2.22      0.00
    3   13   34     -0.54      0.00
    4   27    7      3.79      0.00
    4   12   32      2.52      0.00
    4   13   33      1.96      0.00
    5   27    8      5.69      0.00
    5   12   31     -1.46      0.00
    5   13   32     -2.79      0.00
    6   27    9     -7.08      0.00
    6   26    8      4.26      0.00
    6   13   31     -2.42      0.00
    7   27   10     -2.42      0.00
    7   26    9      0.29      0.00
    7   13   30      7.34      0.00
    8   26   10     -5.69      0.00
    1   27    2      2.03      0.00
    2   27    1     -0.73      0.00
    3   27    0      2.66      0.00
    8   27    5      0.52      0.00
    4   28    0      0.86      0.00
    5   28    1      3.23      0.00
    6   28    2     -6.51      0.00
    7   28    3      1.57      0.00
   15   17   24     -4.19      0.00
   15   16   25     -0.70      0.00
   14   16   24     -2.78      0.00
   14   14   26     -9.37      0.00
   13   14   27     -3.62      0.00
   12   14   28      3.54      0.00
   13   13   26      2.48      0.00
   12   13   27      0.81      0.00
   11   13   28     -8.48      0.00
   10   13   29      5.96      0.00
   12   12   26      2.62      0.00
   11   12   27      1.05      0.00
   10   12   28     -5.30      0.00
    9   12   29     -1.16      0.00
    8   12   30      1.37      0.00
   11   11   26      8.80      0.00
   10   11   27     -0.11      0.00
    9   11   28      0.24      0.00
    8   11   29     -2.25      0.00
    6   11   31      1.42      0.00
   10   10   26      0.80      0.00
    9   10   27     -0.91      0.00
    8   10   28     -1.78      0.00
    9    9   26     -1.09      0.00
    8    9   27      0.84      0.00
    8    8   26     -0.12      0.00
    0    7   33     -1.54      0.00
    1    7   34     -2.21      0.00
    0    6   32      1.32      0.00
    1    6   33     -1.37      0.00
    2    6   34     -2.30      0.00
    0    5   31     -2.47      0.00
    1    5   32      3.64      0.00
    2    5   33      1.03      0.00
    3    5   34     -7.29      0.00
    0    4   30      1.10      0.00
    1    4   31     -2.16      0.00
    2    4   32      1.67      0.00
    3    4   33      1.09      0.00
    4    4   34      1.83      0.00
    4    5   35     -0.07      0.00
    0    3   29      0.65      0.00
    1    3   30      1.84      0.00
    2    3   31     -1.37      0.00
    3    3   32     -2.38      0.00
    3    6   35      7.08      0.00
    0    2   28     -7.07      0.00
    1    2   29      1.25      0.00
    2    2   30      5.96      0.00
    2    7   35      5.17      0.00
    0    1   27      0.49      0.00
    1    1   28     -4.10      0.00
    1    8   35     -0.44      0.00
    0   27    1     -2.55      0.00
    0   26    0     -1.72      0.00
    0    0   26      2.80      0.00
    0    8   34      3.94      0.00
    0    9   35     -2.04      0.00
    1   10   35     -0.85      0.00
    2   10   34     -1.68      0.00
    2   11   35      2.69      0.00
    3   11   34     -1.28      0.00
    4   27    5     11.35      0.00
    4   11   33      0.82      0.00
    4   12   34     -2.60      0.00
    5   27    6     -5.99      0.00
    5   11   32      0.75      0.00
    5   12   33      2.91      0.00
    6   27    7     -2.34      0.00
    6   12   32     -7.62      0.00
    7   27    8      0.99      0.00
    7   12   31      2.37      0.00
    8   27    9      6.12      0.00
    8   26    8     -5.90      0.00
    9   26    9      8.13      0.00
    1   27    0      0.07      0.00
    6   27    5      0.52      0.00
    7   27    6     -0.34      0.00
    2   28    0      2.42      0.00
    3   28    1     -1.55      0.00
    4   28    2      0.66      0.00
    5   28    3     -1.85      0.00
    6   28    4      2.12      0.00
   14   17   25      2.22      0.00
   14   16   26     -2.29      0.00
   13   18   23      7.55      0.00
   13   17   24     -1.76      0.00
   13   13   28     -2.08      0.00
   12   13   29      6.05      0.00
   12   12   28     -8.59      0.00
   11   12   29      3.32      0.00
   10   12   30      2.50      0.00
   11   11   28      2.18      0.00
   10   11   29      0.76      0.00
    9   11   30      3.93      0.00
    8   11   31     -7.67      0.00
   10   10   28     -3.31      0.00
    9   10   29      1.18      0.00
    8   10   30      4.32      0.00
    7   10   31     -6.04      0.00
    6   10   32      0.20      0.00
    9    9   28      2.23      0.00
    8    9   29      2.01      0.00
    8    8   28     -2.16      0.00
    0    6   34      3.36      0.00
    1    6   35      5.03      0.00
    0    5   33     -3.60      0.00
    1    5   34      1.17      0.00
    2    5   35      0.83      0.00
    0    4   32     -2.82      0.00
    1    4   33     -0.46      0.00
    2    4   34      1.52      0.00
    3    4   35      3.39      0.00
    0    3   31      4.46      0.00
    1    3   32     -0.29      0.00
    2    3   33      1.04      0.00
    3    3   34     -1.73      0.00
    0    2   30     -0.59      0.00
    1    2   31     -5.74      0.00
    2    2   32      2.09      0.00
    0    1   29      0.02      0.00
    1    1   30      2.74      0.00
    0    0   28      5.88      0.00
    0    7   35     -2.44      0.00
    2    9   35      0.91      0.00
    3    9   34      2.10      0.00
    3   10   35     -0.11      0.00
    4   10   34      2.16      0.00
    4   11   35      0.32      0.00
    5   10   33     -2.59      0.00
    5   11   34      2.50      0.00
    6   11   33      2.69      0.00
    7   11   32      1.61      0.00
    8   27    7      1.31      0.00
   10   26    8     -4.23      0.00
    1   28    1     -3.71      0.00
    2   28    2      2.98      0.00
    3   28    3     -3.28      0.00
    4   28    4      0.85      0.00
    5   28    5     -3.94      0.00
   13   17   26     10.13      0.00
   13   16   27     -3.03      0.00
   12   18   24     -8.68      0.00
   12   17   25     -3.19      0.00
   12   16   26      3.69      0.00
   12   15   27     -1.98      0.00
   11   19   22     -2.98      0.00
   11   11   30      3.31      0.00
   10   11   31     -1.70      0.00
   10   10   30     -5.63      0.00
    9   10   31     -0.26      0.00
    8   10   32      9.61      0.00
    9    9   30     -1.48      0.00
    8    9   31     -0.54      0.00
    7    9   32      3.10      0.00
    6    9   33     -1.35      0.00
    8    8   30     -6.05      0.00
    4    8   34     -3.60      0.00
    0    5   35      1.66      0.00
    0    4   34     -1.77      0.00
    1    4   35     -0.74      0.00
    0    3   33      1.75      0.00
    1    3   34      2.74      0.00
    2    3   35     -5.62      0.00
    3    3   36      3.89      0.00
    0    2   32     -0.98      0.00
    1    2   33      2.60      0.00
    2    2   34     -6.28      0.00
    2    4   36      4.55      0.00
    0    1   31     -1.01      0.00
    1    1   32      3.01      0.00
    1    5   36     -6.10      0.00
    0    0   30      3.77      0.00
    0    6   36     -7.76      0.00
    1    7   36     -3.83      0.00
    2    8   36      0.54      0.00
    3    8   35      4.17      0.00
    3    9   36      1.85      0.00
    4    9   35     -2.25      0.00
    5    9   34      0.67      0.00
    5   10   35     -1.41      0.00
    6   10   34      1.59      0.00
    7   10   33     -5.60      0.00
    9   27    6      1.83      0.00
    0   28    2      4.34      0.00
    1   28    3     -0.26      0.00
    2   28    4      0.04      0.00
    3   28    5      7.85      0.00
    4   28    6     -4.69      0.00
   12   16   28     -5.89      0.00
   11   18   25      2.59      0.00
   11   17   26      3.09      0.00
   11   16   27      8.76      0.00
   11   15   28     -6.79      0.00
   11   14   29      5.43      0.00
   11   13   30     -6.09      0.00
   10   19   23     -1.97      0.00
   10   18   24      4.45      0.00
   10   17   25     -2.80      0.00
   10   10   32     -3.78      0.00
    9    9   32      1.44      0.00
    8    9   33     -4.32      0.00
    8    8   32     -3.29      0.00
    7    8   33      3.25      0.00
    6    8   34     -0.62      0.00
    6    7   33     -0.75      0.00
    5    7   34     -4.85      0.00
    0    4   36     -4.06      0.00
    0    3   35     -4.19      0.00
    1    3   36      8.43      0.00
    0    2   34     -4.08      0.00
    1    2   35      2.71      0.00
    2    2   36      1.86      0.00
    0    1   33      1.04      0.00
    1    1   34     -1.77      0.00
    0    0   32     -4.35      0.00
    1    6   37     12.81      0.00
    2    6   36     -6.71      0.00
    3    7   36     -5.00      0.00
    4    7   35      4.09      0.00
    5    8   35      1.47      0.00
    7    9   34      2.10      0.00
    0   28    4     -2.41      0.00
    1   28    5      9.23      0.00
    2   28    6    -11.02      0.00
    3   28    7     10.31      0.00
   11   16   29      7.41      0.00
   11   15   30     -2.72      0.00
   10   17   27     -0.04      0.00
   10   16   28     -3.07      0.00
   10   15   29     -2.87      0.00
   10   14   30     -1.71      0.00
   10   13   31      1.07      0.00
    9   19   24      4.35      0.00
    9   18   25     -7.25      0.00
    9   15   28      5.45      0.00
    9   14   29      1.67      0.00
    9   13   30     -1.70      0.00
    9   12   31      0.91      0.00
    9   11   32      1.93      0.00
    9   10   33     -1.91      0.00
    8    8   34     -3.99      0.00
    7    7   34     -7.32      0.00
    6    6   34     -1.67      0.00
    5    6   35      2.53      0.00
    0    3   37     -3.73      0.00
    0    2   36     -2.70      0.00
    1    2   37     -1.79      0.00
    0    1   35      1.35      0.00
    1    1   36     -0.55      0.00
    0    0   34      0.44      0.00
    1    4   37     -0.66      0.00
    2    5   37      3.51      0.00
    3    5   36     -5.52      0.00
    3    6   37      3.82      0.00
    4    6   36     -0.66      0.00
    5    7   36     -2.71      0.00
    6    7   35      3.86      0.00
    0   28    6     -8.96      0.00
    1   28    7      9.03      0.00
    2   28    8     -1.96      0.00
    9   15   30     -0.38      0.00
    9   14   31      4.23      0.00
    9   13   32     -5.01      0.00
    8   18   26      8.74      0.00
    8   15   29     -3.03      0.00
    8   14   30      1.28      0.00
    8   13   31     -2.41      0.00
    8   12   32     -5.28      0.00
    8   11   33     -2.30      0.00
    5    5   36      0.51      0.00
    4    4   36     -0.23      0.00
    2    3   37     -7.90      0.00
    0    1   37      3.62      0.00
    0    0   36     -7.59      0.00
    3    4   37      0.28      0.00
    4    5   37     -1.08      0.00
    0   28    8     -2.22      0.00
    1   28    9     -2.64      0.00
    8   14   32      1.35      0.00
    8   13   33      2.96      0.00
    7   16   29     -1.07      0.00
    7   15   30      3.20      0.00
    7   14   31     -5.56      0.00
    7   13   32      0.29      0.00
    7   12   33      8.76      0.00
    7   11   34      0.33      0.00
    6    9   35     -1.25      0.00
    1    1   38      3.62      0.00
    0    0   38     -6.53      0.00
    2    2   38      0.67      0.00
    3    3   38      2.56      0.00
   14   25    1     -0.79      0.00
   15   24    1     -3.08      0.00
   16   23    1     -0.16      0.00
   17   22    1     -2.78      0.00
   18   21    1     -2.92      0.00
   19   20    1      4.41      0.00
    0   27   11      3.98      0.00
    6   14   32     -1.93      0.00
    6   13   33      5.69      0.00
    6   12   34     -4.02      0.00
    6   11   35     -5.55      0.00
    4    8   36      0.54      0.00
    1    3   38      5.91      0.00
    0    2   38      0.45      0.00
   13   26    1      1.29      0.00
    4   28    8      6.90      0.00
    3   28    9     -1.89      0.00
    1    5   38     -4.39      0.00
    0    5   37      7.16      0.00
    0    4   38     -0.27      0.00
   15   25    2      5.67      0.00
   16   24    2      3.32      0.00
   17   23    2     -0.10      0.00
   18   22    2      8.93      0.00
   18   21    3     -7.35      0.00
   19   21    2      5.57      0.00
   19   20    3     -6.08      0.00
    5   28    9     -6.78      0.00
   15   25    4     -0.73      0.00
   16   24    4      3.82      0.00
   17   23    4     -4.69      0.00
   18   22    4     -3.81      0.00
   18   21    5      3.32      0.00
   19   21    4      1.94      0.00
   19   20    5      1.00      0.00
   20   20    4      7.09      0.00
   17   23    6      5.34      0.00
   18   22    6      0.28      0.00
   18   21    7      2.82      0.00
   19   21    6     -7.52      0.00
   19   20    7      7.57      0.00
   20   20    6    -11.35      0.00
   13   25    8     -3.93      0.00
   12   25    9     -0.33      0.00
   11   25   10      3.22      0.00
   10   25   11     -2.84      0.00
   11   26    9      3.94      0.00
   10   26   10     -1.81      0.00
    9   26   11     -1.74      0.00
    8   26   12      0.48      0.00
    7   26   13      2.61      0.00
   18   21    9     -1.49      0.00
   19   21    8     -2.46      0.00
   19   20    9     -0.93      0.00
   20   21    7     13.00      0.00
   20   20    8    -10.80      0.00
   18   22    8      2.00      0.00
    9   23   16     -1.33      0.00
    8   23   17      2.81      0.00
   12   24   12     -0.90      0.00
   11   24   13     -2.52      0.00
   10   24   14      0.79      0.00
    9   24   15     -1.97      0.00
   13   25   10     10.79      0.00
   12   25   11     -3.27      0.00
   11   25   12     -0.48      0.00
   10   25   13      3.34      0.00
   18   21   11     -2.03      0.00
   17   22   11      3.13      0.00
    1    1    0     96.07      0.00
    0    1    1   -211.07      0.00
    0    0    0      0.00      0.00
# SQUEEZE RESULTS (Version = 280317)
# Note: Data are Listed for all Voids in the P1 Unit Cell
# i.e. Centre of Gravity, Solvent Accessible Volume,
# Recovered number of Electrons in the Void and
# Details about the Squeezed Material
loop_
  _platon_squeeze_void_nr
  _platon_squeeze_void_average_x
  _platon_squeeze_void_average_y
  _platon_squeeze_void_average_z
  _platon_squeeze_void_volume
  _platon_squeeze_void_count_electrons
  _platon_squeeze_void_content
   1 -0.006 -0.003  0.500      1471       280 ' '
   2 -0.040  0.485  0.000      1471       280 ' '
# Missing Reflections Below sin(th)/lambda = 0.25
loop_
  _platon_missing_refln_index_h
  _platon_missing_refln_index_k
  _platon_missing_refln_index_l
  _platon_missing_refln_theta
    1    1    0     1.510
    0    1    1     1.341
_platon_squeeze_void_probe_radius                  1.20
_platon_squeeze_details
)
TITL P16_054Ttg in I4/mmm
CELL   17.4450   17.4450   22.9340     90.00     90.00     90.00
SPGR I4/mmm
# Solvent Accessible Volume =      2941
# Electrons Found in S.A.V. =       555
# Note: Atoms in Void are Labelled as Cxxx and Qxxx for all Others
C101 1.000 1.000 0.305 !       2.32 eA-3
C102 0.297 0.502 0.820 !       1.74 eA-3
C103 0.797 1.002 0.320 !       1.74 eA-3
Q104 1.000 1.000 0.000 !       1.40 eA-3
C105 0.500 0.465 0.135 !       1.35 eA-3
C106 1.000 0.965 0.635 !       1.35 eA-3
C107 0.988 0.017 0.334 !       1.32 eA-3
C108 1.000 1.000 0.398 !       1.24 eA-3
C109 1.000 0.875 0.351 !       1.23 eA-3
C110 0.500 0.549 0.100 !       1.11 eA-3
Q111 0.465 0.469 0.389 !       1.10 eA-3
Q112 0.956 0.047 0.264 !       1.06 eA-3
Q113 0.193 0.403 0.287 !       1.03 eA-3
Q114 1.000 0.108 0.140 !       1.03 eA-3
Q115 0.923 0.480 0.336 !       1.03 eA-3
Q116 1.000 0.822 0.275 !       1.03 eA-3
C117 1.000 0.064 0.341 !       1.02 eA-3
C118 0.284 0.281 0.001 !       1.01 eA-3
Q119 1.000 0.185 0.124 !       1.01 eA-3
Q120 0.122 0.359-0.001 !       1.01 eA-3
C121 0.500 0.463 0.220 !       1.01 eA-3
C122 0.306 0.498 0.125 !       0.99 eA-3
C123 0.474 0.546 0.865 !       0.98 eA-3
Q124 0.316 0.873 0.429 !       0.98 eA-3
C125 0.403 0.797 0.045 !       0.95 eA-3
C126 0.469 0.406 0.001 !       0.95 eA-3
C127 0.164 1.000 0.305 !       0.95 eA-3
C128 0.984 0.908 0.342 !       0.94 eA-3
C129 0.577 0.516 0.136 !       0.94 eA-3
C130 0.563 0.562 0.149 !       0.94 eA-3
C131 0.516 0.612 0.117 !       0.94 eA-3
Q132 0.500 0.501 0.453 !       0.93 eA-3
Q133 0.500 0.768 0.376 !       0.93 eA-3
Q134 0.500 0.092 0.431 !       0.92 eA-3
C135 0.484 0.657 0.123 !       0.92 eA-3
Q136 0.476 0.500 0.250 !       0.91 eA-3
C137 1.000 0.874 0.323 !       0.90 eA-3
C138 0.482 0.452 0.204 !       0.90 eA-3
C139 0.453 0.452 0.055 !       0.90 eA-3
Q140 1.000 0.780 0.125 !       0.90 eA-3
C141 0.595 0.597 0.102 !       0.90 eA-3
C142 0.257 0.563 0.003 !       0.89 eA-3
C143 0.372 0.235 0.077 !       0.89 eA-3
C144 0.905 0.910 0.601 !       0.89 eA-3
C145 0.595 0.590 0.899 !       0.89 eA-3
C146 1.000 0.644 0.445 !       0.89 eA-3
Q147 0.987 0.187 0.000 !       0.89 eA-3
Q148 1.000 0.211 0.180 !       0.87 eA-3
C149 0.568 0.424 0.125 !       0.87 eA-3
C150 0.847 1.000 0.430 !       0.86 eA-3
C151 1.000 0.999 0.453 !       0.86 eA-3
C152 0.327 0.485 0.092 !       0.86 eA-3
C153 0.076 0.968 0.390 !       0.85 eA-3
Q154 0.829 0.171 0.328 !       0.85 eA-3
Q155 0.732 0.111 0.033 !       0.85 eA-3
Q156 0.859 0.062-0.003 !       0.85 eA-3
C157 0.953 0.857 0.428 !       0.85 eA-3
Q158 0.500 0.738 0.821 !       0.84 eA-3
C159 0.905 0.299 0.392 !       0.84 eA-3
Q160 0.716 1.003 0.312 !       0.84 eA-3
C161 0.966 0.031 0.400 !       0.83 eA-3
C162 0.624 0.608 0.050 !       0.83 eA-3
C163 0.500 0.656 0.038 !       0.83 eA-3
Q164 0.840 0.655 0.570 !       0.82 eA-3
Q165 0.340 0.155 0.070 !       0.82 eA-3
C166 1.000 0.920 0.307 !       0.82 eA-3
C167 0.751 0.606 0.110 !       0.82 eA-3
C168 0.705 0.297 0.038 !       0.82 eA-3
Q169 1.000 0.502 0.266 !       0.82 eA-3
C170 0.425 0.429 0.916 !       0.81 eA-3
C171 0.925 0.929 0.416 !       0.81 eA-3
C172 0.126 0.965 0.352 !       0.81 eA-3
Q173 0.874 0.363 0.438 !       0.81 eA-3
Q174 0.079 1.001 0.102 !       0.81 eA-3
Q175 0.657 0.843 0.568 !       0.80 eA-3
C176 0.909 0.144 0.413 !       0.80 eA-3
C177 0.409 0.644 0.913 !       0.80 eA-3
C178 0.091 0.856 0.587 !       0.80 eA-3
Q179 0.314 0.503 0.469 !       0.80 eA-3
Q180 0.812 0.187 0.102 !       0.80 eA-3
C181 0.734 0.359-0.002 !       0.80 eA-3
C182 0.716 0.857 0.444 !       0.79 eA-3
C183 0.142 0.722 0.553 !       0.79 eA-3
Q184 0.781 0.217 0.102 !       0.79 eA-3
C185 0.454 0.687 0.125 !       0.79 eA-3
C186 0.500 0.547 0.040 !       0.78 eA-3
Q187 0.235 0.239 0.430 !       0.78 eA-3
Q188 0.254 0.752 0.013 !       0.78 eA-3
Q189 0.792 1.000 0.015 !       0.77 eA-3
Q190 0.372 0.187 0.031 !       0.77 eA-3
C191 0.702 0.656 0.056 !       0.77 eA-3
C192 0.983 0.173 0.341 !       0.76 eA-3
C193 0.621 0.416 0.927 !       0.76 eA-3
C194 0.402 0.234-0.001 !       0.75 eA-3
C195 0.500 0.737 0.109 !       0.75 eA-3
Q196 0.500 0.709 0.587 !       0.75 eA-3
Q197 1.000 0.209 0.087 !       0.75 eA-3
Q198 1.000 0.791 0.913 !       0.75 eA-3
Q199 0.500 0.356 0.255 !       0.74 eA-3
)
;
_shelx_fab_checksum              28648
loop_
_space_group_symop_operation_xyz
'x, y, z'
'-x, -y, z'
'-y, x, z'
'y, -x, z'
'-x, y, -z'
'x, -y, -z'
'y, x, -z'
'-y, -x, -z'
'x+1/2, y+1/2, z+1/2'
'-x+1/2, -y+1/2, z+1/2'
'-y+1/2, x+1/2, z+1/2'
'y+1/2, -x+1/2, z+1/2'
'-x+1/2, y+1/2, -z+1/2'
'x+1/2, -y+1/2, -z+1/2'
'y+1/2, x+1/2, -z+1/2'
'-y+1/2, -x+1/2, -z+1/2'
'-x, -y, -z'
'x, y, -z'
'y, -x, -z'
'-y, x, -z'
'x, -y, z'
'-x, y, z'
'-y, -x, z'
'y, x, z'
'-x+1/2, -y+1/2, -z+1/2'
'x+1/2, y+1/2, -z+1/2'
'y+1/2, -x+1/2, -z+1/2'
'-y+1/2, x+1/2, -z+1/2'
'x+1/2, -y+1/2, z+1/2'
'-x+1/2, y+1/2, z+1/2'
'-y+1/2, -x+1/2, z+1/2'
'y+1/2, x+1/2, z+1/2'
loop_
_atom_site_label
_atom_site_type_symbol
_atom_site_fract_x
_atom_site_fract_y
_atom_site_fract_z
_atom_site_U_iso_or_equiv
_atom_site_adp_type
_atom_site_occupancy
_atom_site_site_symmetry_order
_atom_site_calc_flag
_atom_site_refinement_flags_posn
_atom_site_refinement_flags_adp
_atom_site_refinement_flags_occupancy
_atom_site_disorder_assembly
_atom_site_disorder_group
Zr1 Zr 0.0000 0.0000 0.10696(4) 0.0485(4) Uani 1 8 d S T P . .
Zr2 Zr 0.10113(3) 0.10113(3) 0.0000 0.0553(3) Uani 1 4 d S T P . .
O1M O 0.0994(4) 0.0000 0.0516(2) 0.097(2) Uani 1 2 d S T P . .
O1 O 0.07552(19) 0.07552(19) 0.1559(2) 0.0609(11) Uani 1 2 d S T P . .
O2 O 0.1418(2) 0.1418(2) 0.0886(2) 0.0854(18) Uani 1 2 d S T P . .
O1S O 0.0985(4) 0.2270(3) 0.0000 0.0913(19) Uani 1 2 d S T P . .
C1 C 0.1252(3) 0.1252(3) 0.1405(3) 0.0686(18) Uani 1 2 d S T P . .
C2 C 0.1673(3) 0.1673(3) 0.1892(4) 0.083(2) Uani 1 2 d S T P . .
C3 C 0.1503(4) 0.1503(4) 0.2441(4) 0.142(6) Uani 1 2 d S T P . .
H3 H 0.1130 0.1130 0.2524 0.171 Uiso 1 2 calc R U P . .
C4 C 0.1872(4) 0.1872(4) 0.2884(4) 0.196(9) Uani 1 2 d S T P . .
H4 H 0.1748 0.1748 0.3271 0.235 Uiso 1 2 calc R U P . .
C5 C 0.2176(4) 0.2176(4) 0.1767(4) 0.126(5) Uani 1 2 d S T P . .
H5 H 0.2282 0.2282 0.1373 0.151 Uiso 1 2 calc R U P . .
C6 C 0.2593(3) 0.2593(3) 0.2217(3) 0.098(3) Uani 1 2 d S T P . .
C1A C 1.0000 0.3056(19) 0.1184(15) 0.147(9) Uani 0.25 2 d DS TU P A 1
F1A F 1.0000 0.2293(16) 0.1356(12) 0.115(7) Uani 0.25 2 d DS TU P A 1
F2A F 0.9323(12) 0.3201(11) 0.0890(9) 0.141(6) Uani 0.25 1 d D U P A 1
C2A C 1.0000 0.3437(14) 0.1783(15) 0.148(10) Uani 0.25 2 d DS TU P A 1
O1A O 0.9362(13) 0.3563(15) 0.1981(11) 0.142(9) Uani 0.25 1 d D U P A 1
C1B C 1.0000 0.3782(19) 0.1912(17) 0.196(11) Uani 0.25 2 d DS TU P B 2
F1B F 1.0000 0.310(2) 0.2214(18) 0.192(10) Uani 0.25 2 d DS TU P B 2
F2B F 0.9330(9) 0.4071(17) 0.1804(14) 0.222(12) Uani 0.25 1 d D U P B 2
C2B C 1.0000 0.3108(16) 0.1507(12) 0.191(11) Uani 0.25 2 d DS TU P B 2
O1B O 1.0408(17) 0.2704(17) 0.1265(13) 0.184(10) Uani 0.25 1 d D U P B 2
loop_
_atom_site_aniso_label
_atom_site_aniso_U_11
_atom_site_aniso_U_22
_atom_site_aniso_U_33
_atom_site_aniso_U_23
_atom_site_aniso_U_13
_atom_site_aniso_U_12
Zr1 0.0517(4) 0.0517(4) 0.0419(5) 0.000 0.000 0.000
Zr2 0.0605(4) 0.0605(4) 0.0450(5) 0.000 0.000 -0.0128(4)
O1M 0.152(6) 0.070(3) 0.069(4) 0.000 0.053(4) 0.000
O1 0.0632(16) 0.0632(16) 0.056(2) -0.0009(15) -0.0009(15) -0.008(2)
O2 0.101(3) 0.101(3) 0.054(3) -0.0093(16) -0.0093(16) -0.052(4)
O1S 0.135(6) 0.066(3) 0.073(3) 0.000 0.000 -0.028(3)
C1 0.079(3) 0.079(3) 0.048(3) -0.006(2) -0.006(2) -0.018(4)
C2 0.092(4) 0.092(4) 0.065(5) -0.005(2) -0.005(2) -0.039(5)
C3 0.183(9) 0.183(9) 0.062(5) -0.015(3) -0.015(3) -0.125(10)
C4 0.266(14) 0.266(14) 0.056(5) -0.022(3) -0.022(3) -0.199(15)
C5 0.158(7) 0.158(7) 0.061(5) -0.012(3) -0.012(3) -0.091(9)
C6 0.119(5) 0.119(5) 0.056(4) -0.007(3) -0.007(3) -0.058(6)
C1A 0.153(12) 0.146(12) 0.141(12) -0.012(8) 0.000 0.000
F1A 0.086(11) 0.155(13) 0.105(13) -0.013(11) 0.000 0.000
F2A 0.194(13) 0.090(9) 0.141(12) -0.041(9) 0.007(10) 0.033(10)
C2A 0.154(12) 0.147(12) 0.143(12) -0.005(8) 0.000 0.000
O1A 0.152(14) 0.144(15) 0.131(14) -0.016(12) -0.017(11) 0.006(13)
C1B 0.200(13) 0.195(13) 0.193(13) -0.004(8) 0.000 0.000
F1B 0.194(13) 0.193(12) 0.188(12) -0.001(8) 0.000 0.000
F2B 0.257(18) 0.190(17) 0.219(19) -0.025(13) -0.020(14) 0.030(13)
C2B 0.192(13) 0.190(12) 0.190(12) 0.000(8) 0.000 0.000
O1B 0.187(13) 0.185(12) 0.181(12) -0.001(8) -0.003(8) 0.006(8)
loop_
_atom_type_symbol
_atom_type_description
_atom_type_scat_dispersion_real
_atom_type_scat_dispersion_imag
_atom_type_scat_source
C C 0.0024 0.0013 'International Tables Vol C Tables 4.2.6.8 and 6.1.1.4'
H H 0.0000 0.0000 'International Tables Vol C Tables 4.2.6.8 and 6.1.1.4'
O O 0.0087 0.0050 'International Tables Vol C Tables 4.2.6.8 and 6.1.1.4'
F F 0.0144 0.0085 'International Tables Vol C Tables 4.2.6.8 and 6.1.1.4'
Zr Zr -1.8641 3.3435 'International Tables Vol C Tables 4.2.6.8 and 6.1.1.4'
loop_
_geom_angle_atom_site_label_1
_geom_angle_atom_site_label_2
_geom_angle_atom_site_label_3
_geom_angle
_geom_angle_site_symmetry_1
_geom_angle_site_symmetry_3
O1M Zr1 O1M 69.60(19) . 4
O1M Zr1 O1M 107.6(4) . 2
O1M Zr1 O1M 69.60(19) 4 2
O1M Zr1 O1M 69.60(19) . 3
O1M Zr1 O1M 107.6(4) 4 3
O1M Zr1 O1M 69.60(19) 2 3
O1M Zr1 O1 142.51(5) . 2
O1M Zr1 O1 79.37(17) 4 2
O1M Zr1 O1 79.37(17) 2 2
O1M Zr1 O1 142.51(5) 3 2
O1M Zr1 O1 79.37(17) . 4
O1M Zr1 O1 79.37(17) 4 4
O1M Zr1 O1 142.51(5) 2 4
O1M Zr1 O1 142.51(5) 3 4
O1 Zr1 O1 74.58(12) 2 4
O1M Zr1 O1 142.51(5) . 3
O1M Zr1 O1 142.51(5) 4 3
O1M Zr1 O1 79.37(17) 2 3
O1M Zr1 O1 79.37(17) 3 3
O1 Zr1 O1 74.58(12) 2 3
O1 Zr1 O1 117.9(3) 4 3
O1M Zr1 O1 79.37(17) . .
O1M Zr1 O1 142.51(5) 4 .
O1M Zr1 O1 142.51(5) 2 .
O1M Zr1 O1 79.37(17) 3 .
O1 Zr1 O1 117.9(3) 2 .
O1 Zr1 O1 74.58(12) 4 .
O1 Zr1 O1 74.58(12) 3 .
O1M Zr1 Zr2 89.60(16) . 17
O1M Zr1 Zr2 34.83(9) 4 17
O1M Zr1 Zr2 34.83(9) 2 17
O1M Zr1 Zr2 89.60(16) 3 17
O1 Zr1 Zr2 75.56(13) 2 17
O1 Zr1 Zr2 111.19(8) 4 17
O1 Zr1 Zr2 111.19(8) 3 17
O1 Zr1 Zr2 166.53(13) . 17
O1M Zr1 Zr2 34.82(9) . 19
O1M Zr1 Zr2 34.83(9) 4 19
O1M Zr1 Zr2 89.60(16) 2 19
O1M Zr1 Zr2 89.60(16) 3 19
O1 Zr1 Zr2 111.19(8) 2 19
O1 Zr1 Zr2 75.56(13) 4 19
O1 Zr1 Zr2 166.53(13) 3 19
O1 Zr1 Zr2 111.19(8) . 19
Zr2 Zr1 Zr2 60.558(19) 17 19
O1M Zr1 Zr2 89.60(16) . 3
O1M Zr1 Zr2 89.60(16) 4 3
O1M Zr1 Zr2 34.83(9) 2 3
O1M Zr1 Zr2 34.83(9) 3 3
O1 Zr1 Zr2 111.19(8) 2 3
O1 Zr1 Zr2 166.53(13) 4 3
O1 Zr1 Zr2 75.56(13) 3 3
O1 Zr1 Zr2 111.19(8) . 3
Zr2 Zr1 Zr2 60.558(19) 17 3
Zr2 Zr1 Zr2 90.97(3) 19 3
O1M Zr1 Zr2 34.82(9) . .
O1M Zr1 Zr2 89.60(16) 4 .
O1M Zr1 Zr2 89.60(16) 2 .
O1M Zr1 Zr2 34.83(9) 3 .
O1 Zr1 Zr2 166.53(13) 2 .
O1 Zr1 Zr2 111.19(8) 4 .
O1 Zr1 Zr2 111.19(8) 3 .
O1 Zr1 Zr2 75.56(13) . .
Zr2 Zr1 Zr2 90.97(3) 17 .
Zr2 Zr1 Zr2 60.558(19) 19 .
Zr2 Zr1 Zr2 60.558(19) 3 .
O1M Zr2 O1M 106.7(4) . 20
O1M Zr2 O1M 67.7(2) . 18
O1M Zr2 O1M 70.5(3) 20 18
O1M Zr2 O1M 70.5(3) . 3
O1M Zr2 O1M 67.7(2) 20 3
O1M Zr2 O1M 106.7(4) 18 3
O1M Zr2 O1S 89.8(3) . 7
O1M Zr2 O1S 146.07(11) 20 7
O1M Zr2 O1S 89.8(3) 18 7
O1M Zr2 O1S 146.07(11) 3 7
O1M Zr2 O1S 146.07(11) . .
O1M Zr2 O1S 89.8(3) 20 .
O1M Zr2 O1S 146.07(11) 18 .
O1M Zr2 O1S 89.8(3) 3 .
O1S Zr2 O1S 92.4(3) 7 .
O1M Zr2 O2 139.81(13) . 18
O1M Zr2 O2 76.36(18) 20 18
O1M Zr2 O2 76.36(18) 18 18
O1M Zr2 O2 139.81(13) 3 18
O1S Zr2 O2 72.17(11) 7 18
O1S Zr2 O2 72.17(11) . 18
O1M Zr2 O2 76.37(18) . .
O1M Zr2 O2 139.81(13) 20 .
O1M Zr2 O2 139.81(13) 18 .
O1M Zr2 O2 76.37(18) 3 .
O1S Zr2 O2 72.17(11) 7 .
O1S Zr2 O2 72.17(11) . .
O2 Zr2 O2 127.5(3) 18 .
O1M Zr2 Zr1 35.27(15) . .
O1M Zr2 Zr1 88.00(16) 20 .
O1M Zr2 Zr1 88.00(16) 18 .
O1M Zr2 Zr1 35.27(15) 3 .
O1S Zr2 Zr1 119.58(10) 7 .
O1S Zr2 Zr1 119.58(10) . .
O2 Zr2 Zr1 160.77(14) 18 .
O2 Zr2 Zr1 71.74(14) . .
O1M Zr2 Zr1 88.00(16) . 17
O1M Zr2 Zr1 35.27(15) 20 17
O1M Zr2 Zr1 35.27(15) 18 17
O1M Zr2 Zr1 88.00(16) 3 17
O1S Zr2 Zr1 119.58(10) 7 17
O1S Zr2 Zr1 119.58(10) . 17
O2 Zr2 Zr1 71.74(14) 18 17
O2 Zr2 Zr1 160.77(14) . 17
Zr1 Zr2 Zr1 89.03(3) . 17
O1M Zr2 Zr2 89.19(19) . 3
O1M Zr2 Zr2 33.88(12) 20 3
O1M Zr2 Zr2 89.19(19) 18 3
O1M Zr2 Zr2 33.88(12) 3 3
O1S Zr2 Zr2 178.81(17) 7 3
O1S Zr2 Zr2 88.81(17) . 3
O2 Zr2 Zr2 108.23(9) 18 3
O2 Zr2 Zr2 108.23(9) . 3
Zr1 Zr2 Zr2 59.721(10) . 3
Zr1 Zr2 Zr2 59.721(9) 17 3
O1M Zr2 Zr2 33.88(12) . 19
O1M Zr2 Zr2 89.19(19) 20 19
O1M Zr2 Zr2 33.88(12) 18 19
O1M Zr2 Zr2 89.19(19) 3 19
O1S Zr2 Zr2 88.81(17) 7 19
O1S Zr2 Zr2 178.81(17) . 19
O2 Zr2 Zr2 108.23(9) 18 19
O2 Zr2 Zr2 108.23(9) . 19
Zr1 Zr2 Zr2 59.721(10) . 19
Zr1 Zr2 Zr2 59.721(9) 17 19
Zr2 Zr2 Zr2 90.0 3 19
Zr2 O1M Zr2 112.2(2) 19 .
Zr2 O1M Zr1 109.9(2) 19 .
Zr2 O1M Zr1 109.9(2) . .
C1 O1 Zr1 132.9(4) . .
C1 O2 Zr2 134.8(5) . .
O2 C1 O1 125.0(6) . .
O2 C1 C2 118.2(7) . .
O1 C1 C2 116.8(6) . .
C5 C2 C3 121.5(8) . .
C5 C2 C1 119.8(8) . .
C3 C2 C1 118.7(7) . .
C2 C3 C4 119.6(10) . .
C6 C4 C3 121.9(10) 25 .
C2 C5 C6 121.8(9) . .
C4 C6 C6 119.4(10) 25 25
C4 C6 C5 124.8(8) 25 .
C6 C6 C5 115.8(10) 25 .
F2A C1A F2A 117(3) 22_755 .
F2A C1A F1A 108.3(17) 22_755 .
F2A C1A F1A 108.3(17) . .
F2A C1A C2A 111.1(17) 22_755 .
F2A C1A C2A 111.1(17) . .
F1A C1A C2A 99(2) . .
O1A C2A O1A 131(4) . 22_755
O1A C2A C1A 114(2) . .
O1A C2A C1A 114(2) 22_755 .
F2B C1B F2B 129(3) 22_755 .
F2B C1B F1B 115.6(17) 22_755 .
F2B C1B F1B 115.6(17) . .
F2B C1B C2B 100.8(19) 22_755 .
F2B C1B C2B 100.8(19) . .
F1B C1B C2B 69(2) . .
C1B F1B C2B 59.3(16) . .
O1B C2B O1B 77(4) . 22_755
O1B C2B C1B 141.6(19) . .
O1B C2B C1B 141.6(19) 22_755 .
O1B C2B F1B 118.8(11) . .
O1B C2B F1B 118.8(11) 22_755 .
C1B C2B F1B 52.0(13) . .
C2B O1B O1B 51.6(19) . 22_755
loop_
_geom_bond_atom_site_label_1
_geom_bond_atom_site_label_2
_geom_bond_distance
_geom_bond_site_symmetry_2
Zr1 O1M 2.149(6) .
Zr1 O1M 2.149(6) 4
Zr1 O1M 2.149(6) 2
Zr1 O1M 2.149(6) 3
Zr1 O1 2.174(5) 2
Zr1 O1 2.174(5) 4
Zr1 O1 2.174(5) 3
Zr1 O1 2.175(5) .
Zr1 Zr2 3.4989(10) 17
Zr1 Zr2 3.4989(10) 19
Zr1 Zr2 3.4989(10) 3
Zr1 Zr2 3.4989(10) .
Zr2 O1M 2.125(3) .
Zr2 O1M 2.125(3) 20
Zr2 O1M 2.125(3) 18
Zr2 O1M 2.125(3) 3
Zr2 O1S 2.197(6) 7
Zr2 O1S 2.197(6) .
Zr2 O2 2.267(5) 18
Zr2 O2 2.267(5) .
Zr2 Zr1 3.4989(10) 17
Zr2 Zr2 3.5284(12) 3
Zr2 Zr2 3.5284(12) 19
O1M Zr2 2.125(3) 19
O1 C1 1.276(9) .
O2 C1 1.257(9) .
C1 C2 1.526(10) .
C2 C5 1.275(12) .
C2 C3 1.326(14) .
C3 C4 1.365(12) .
C4 C6 1.341(14) 25
C5 C6 1.457(11) .
C6 C4 1.341(14) 25
C6 C6 1.375(16) 25
C1A F2A 1.385(16) 22_755
C1A F2A 1.385(16) .
C1A F1A 1.388(19) .
C1A C2A 1.524(19) .
C2A O1A 1.222(17) .
C2A O1A 1.222(17) 22_755
C1B F2B 1.297(15) 22_755
C1B F2B 1.297(15) .
C1B F1B 1.372(19) .
C1B C2B 1.497(19) .
F1B C2B 1.62(5) .
C2B O1B 1.146(17) .
C2B O1B 1.146(17) 22_755
O1B O1B 1.42(6) 22_755
