#------------------------------------------------------------------------------
#$Date: 2019-03-01 01:27:00 +0200 (Fri, 01 Mar 2019) $
#$Revision: 213903 $
#$URL: file:///home/coder/svn-repositories/cod/cif/1/55/06/1550675.cif $
#------------------------------------------------------------------------------
#
# This file is available in the Crystallography Open Database (COD),
# http://www.crystallography.net/
#
# All data on this site have been placed in the public domain by the
# contributors.
#
data_1550675
loop_
_publ_author_name
'Kong, Xiang-Jing'
'He, Tao'
'Zhang, Yongzheng'
'Wu, Xue-Qian'
'Wang, Si-Nan'
'Xu, Ming-Ming'
'Si, Guang-Rui'
'Li, Jian-Rong Jeff'
_publ_section_title
;
 Constructing New Metal-Organic Frameworks with Complicated Ligands
 Generated from &#x201C;One-Pot&#x201D; In Situ Reactions
;
_journal_name_full               'Chemical Science'
_journal_paper_doi               10.1039/C9SC00178F
_journal_year                    2019
_chemical_formula_moiety         '0.06(C1440 H792 N72 O432 Zn90)'
_chemical_formula_sum            'C80 H44 N4 O24 Zn5'
_chemical_formula_weight         1772.04
_space_group_crystal_system      trigonal
_space_group_IT_number           167
_space_group_name_Hall           '-R 3 2"c'
_space_group_name_H-M_alt        'R -3 c'
_symmetry_space_group_name_Hall  '-R 3 2"c'
_symmetry_space_group_name_H-M   'R -3 c :H'
_atom_sites_solution_hydrogens   geom
_atom_sites_solution_primary     dual
_audit_creation_date             2018-08-19
_audit_creation_method
;
Olex2 1.2
(compiled 2018.05.29 svn.r3508 for OlexSys, GUI svn.r5506)
;
_audit_update_record
;
2019-01-04 deposited with the CCDC.    2019-02-28 downloaded from the CCDC.
;
_cell_angle_alpha                90
_cell_angle_beta                 90
_cell_angle_gamma                120
_cell_formula_units_Z            18
_cell_length_a                   54.3601(10)
_cell_length_b                   54.3601(10)
_cell_length_c                   42.0659(13)
_cell_measurement_reflns_used    8546
_cell_measurement_temperature    293(2)
_cell_measurement_theta_max      47.2140
_cell_measurement_theta_min      2.3630
_cell_volume                     107652(4)
_computing_cell_refinement       'CrysAlisPro 1.171.39.35c (Rigaku OD, 2017)'
_computing_data_collection       'CrysAlisPro 1.171.39.35c (Rigaku OD, 2017)'
_computing_data_reduction        'CrysAlisPro 1.171.39.35c (Rigaku OD, 2017)'
_computing_molecular_graphics    'Olex2 (Dolomanov et al., 2009)'
_computing_publication_material  'Olex2 (Dolomanov et al., 2009)'
_computing_structure_refinement  'ShelXL (Sheldrick, 2015)'
_computing_structure_solution    'ShelXT (Sheldrick, 2015)'
_diffrn_ambient_temperature      293(2)
_diffrn_detector                 'CCD plate'
_diffrn_measured_fraction_theta_full 0.999
_diffrn_measured_fraction_theta_max 0.999
_diffrn_measurement_details
;
List of Runs (angles in degrees, time in seconds):

  # Type    Start    End  Width  t~exp~   \w     \q     \k     \f   Frames
#--------------------------------------------------------------------------
  1  \w    -56.00   1.05   0.35   20.00    --  -45.20  71.00  85.00  163
  2  \w   -177.00 -97.90   0.35   60.00    -- -100.10 -71.00 -44.00  226
  3  \w   -181.00-107.15   0.35   60.00    -- -100.10 -59.00-103.00  211
  4  \w   -120.00 -35.30   0.35   20.00    --  -45.20 -19.00   0.00  242
  5  \w   -168.00 -95.90   0.35   60.00    -- -100.10 -57.00-150.00  206
  6  \w   -113.00 -18.85   0.35   60.00    -- -100.10  57.00-180.00  269
  7  \w   -118.00 -93.50   0.35   60.00    -- -100.10 -38.00 -60.00   70
  8  \w   -100.00 -17.05   0.35   60.00    -- -100.10  72.00 -30.00  237
;
_diffrn_measurement_device       'four-circle diffractometer'
_diffrn_measurement_device_type  'XtaLAB AFC12 (RCD3): Kappa single'
_diffrn_measurement_method       '\w scans'
_diffrn_orient_matrix_type
'CrysAlisPro convention (1999,Acta A55,543-557)'
_diffrn_orient_matrix_UB_11      -0.0245149000
_diffrn_orient_matrix_UB_12      -0.0126348000
_diffrn_orient_matrix_UB_13      -0.0242570000
_diffrn_orient_matrix_UB_21      -0.0090295000
_diffrn_orient_matrix_UB_22      0.0214335000
_diffrn_orient_matrix_UB_23      0.0107339000
_diffrn_orient_matrix_UB_31      0.0197098000
_diffrn_orient_matrix_UB_32      0.0212543000
_diffrn_orient_matrix_UB_33      -0.0252391000
_diffrn_radiation_monochromator  mirror
_diffrn_radiation_probe          x-ray
_diffrn_radiation_type           CuK\a
_diffrn_radiation_wavelength     1.54178
_diffrn_reflns_av_R_equivalents  0.1084
_diffrn_reflns_av_unetI/netI     0.0651
_diffrn_reflns_Laue_measured_fraction_full 0.999
_diffrn_reflns_Laue_measured_fraction_max 0.999
_diffrn_reflns_limit_h_max       54
_diffrn_reflns_limit_h_min       -63
_diffrn_reflns_limit_k_max       63
_diffrn_reflns_limit_k_min       -49
_diffrn_reflns_limit_l_max       49
_diffrn_reflns_limit_l_min       -49
_diffrn_reflns_number            116821
_diffrn_reflns_point_group_measured_fraction_full 0.999
_diffrn_reflns_point_group_measured_fraction_max 0.999
_diffrn_reflns_theta_full        65.073
_diffrn_reflns_theta_max         65.073
_diffrn_reflns_theta_min         2.301
_diffrn_source                   'Rotating-anode X-ray tube (dual wavelength)'
_diffrn_source_type              'Rigaku (Cu) X-ray DW Source'
_exptl_absorpt_coefficient_mu    0.780
_exptl_absorpt_correction_T_max  1.00000
_exptl_absorpt_correction_T_min  0.54524
_exptl_absorpt_correction_type   multi-scan
_exptl_absorpt_process_details
;
CrysAlisPro 1.171.39.35c (Rigaku Oxford Diffraction, 2017)
Empirical absorption correction using spherical harmonics,
 implemented in SCALE3 ABSPACK scaling algorithm.
;
_exptl_crystal_colour            'clear light yellow'
_exptl_crystal_density_diffrn    0.492
_exptl_crystal_description       block
_exptl_crystal_F_000             16092
_exptl_crystal_size_max          0.23
_exptl_crystal_size_mid          0.05
_exptl_crystal_size_min          0.05
_refine_diff_density_max         0.355
_refine_diff_density_min         -0.403
_refine_diff_density_rms         0.070
_refine_ls_extinction_method     none
_refine_ls_goodness_of_fit_ref   1.001
_refine_ls_hydrogen_treatment    constr
_refine_ls_matrix_type           full
_refine_ls_number_parameters     510
_refine_ls_number_reflns         20392
_refine_ls_number_restraints     5
_refine_ls_restrained_S_all      1.013
_refine_ls_R_factor_all          0.1460
_refine_ls_R_factor_gt           0.0938
_refine_ls_shift/su_max          0.001
_refine_ls_shift/su_mean         0.000
_refine_ls_structure_factor_coef Fsqd
_refine_ls_weighting_details
'w=1/[\s^2^(Fo^2^)+(0.1500P)^2^] where P=(Fo^2^+2Fc^2^)/3'
_refine_ls_weighting_scheme      calc
_refine_ls_wR_factor_gt          0.2655
_refine_ls_wR_factor_ref         0.3082
_reflns_Friedel_coverage         0.000
_reflns_number_gt                7124
_reflns_number_total             20392
_reflns_threshold_expression     'I > 2\s(I)'
_cod_data_source_file            c9sc00178f2.cif
_cod_data_source_block           BUT-105
_cod_original_cell_volume        107652(5)
_cod_database_code               1550675
_shelx_shelxl_version_number     2018/3
_chemical_oxdiff_formula         'Zn C H O N'
_shelx_space_group_comment
;
The symmetry employed for this shelxl refinement is uniquely defined
by the following loop, which should always be used as a source of
symmetry information in preference to the above space-group names.
They are only intended as comments.
;
_shelx_estimated_absorpt_t_max   0.962
_shelx_estimated_absorpt_t_min   0.841
_reflns_odcompleteness_completeness 99.90
_reflns_odcompleteness_iscentric 1
_reflns_odcompleteness_theta     64.99
_olex2_refinement_description
;
1. Fixed Uiso
 At 1.2 times of:
  All C(H) groups
2. Restrained distances
 C1-O3
 1.24 with sigma of 0.02
 C1-O2
 1.24 with sigma of 0.01
 C21-N2
 1.45 with sigma of 0.01
 C10-N1
 1.48 with sigma of 0.01
 O2-O3
 2.2 with sigma of 0.02
3.a Aromatic/amide H refined with riding coordinates:
 C24(H24), C35(H35), C28(H28), C13(H13), C32(H32), C36(H36), C22(H22),
 C29(H29), C40(H40), C3(H3), C16(H16), C20(H20), C15(H15), C19(H19), C9(H9),
 C39(H39), C26(H26), C4(H4), C11(H11), C31(H31), C6(H6), C7(H7)
;
_shelx_res_file
;
TITL 161_a.res in R-3c
    161.res
    created by SHELXL-2018/3 at 15:01:04 on 19-Aug-2018
REM Old TITL 161 in R3c #161
REM SHELXT solution in R-3c: R1 0.353, Rweak 0.089, Alpha 0.082
REM <I/s> 0.639 for 495 systematic absences, Orientation as input
REM Formula found by SHELXT: C68 N27 O16 Zn5
CELL 1.54178 54.3601 54.3601 42.0659 90 90 120
ZERR 18 0.001 0.001 0.0013 0 0 0
LATT 3
SYMM -Y,+X-Y,+Z
SYMM +Y-X,-X,+Z
SYMM +Y,+X,0.5-Z
SYMM -Y+X,-Y,0.5-Z
SYMM -X,-X+Y,0.5-Z
SFAC C H N O Zn
UNIT 1440 792 72 432 90
DFIX 1.24 C1 O3
DFIX 1.24 0.01 C1 O2
DFIX 1.45 0.01 C21 N2
DFIX 1.48 0.01 C10 N1
DANG 2.2 0.02 O2 O3

L.S. 10
PLAN  1
SIZE 0.05 0.05 0.23
list 4
ABIN
fmap 2 53
acta
OMIT -5 10 0
OMIT -4 9 2
OMIT -1 14 3
OMIT -4 6 14
OMIT -1 10 10
OMIT -4 7 1
OMIT -5 6 1
REM <olex2.extras>
REM <HklSrc "%.\\161.hkl">
REM </olex2.extras>

WGHT    0.150000
FVAR       0.04550
ZN1   5    0.333333    0.233606    0.416667    10.50000    0.23824    0.13669 =
         0.16862    0.02330    0.04660    0.11912
ZN2   5    0.363192    0.291113    0.462961    11.00000    0.22008    0.12243 =
         0.19510    0.02840    0.06187    0.09250
ZN3   5    0.071929    0.456068    0.246532    11.00000    0.27372    0.19099 =
         0.26039    0.07848    0.10232    0.16585
O4    4    0.141528    0.364289    0.580357    11.00000    0.15179    0.23658 =
         0.17425   -0.03408   -0.03547    0.12551
O10   4    0.235471    0.339529    0.134648    11.00000    0.17825    0.25978 =
         0.16711   -0.05904   -0.01914    0.15040
O1    4    0.365029    0.276312    0.420404    11.00000    0.29668    0.12309 =
         0.17773    0.01925    0.06785    0.11452
O6    4    0.065881    0.407874    0.300586    11.00000    0.23350    0.17140 =
         0.19462    0.02214    0.05325    0.12453
O11   4    0.240783    0.307957    0.163760    11.00000    0.18200    0.24084 =
         0.20193   -0.05213   -0.01329    0.15268
O7    4    0.091732    0.436431    0.261050    11.00000    0.22232    0.17491 =
         0.24121    0.04612    0.08316    0.13208
C38   1    0.233695    0.326820    0.160737    11.00000    0.13443    0.23635 =
         0.17929   -0.05592   -0.02066    0.11012
O2    4    0.330767    0.293824    0.453780    11.00000    0.37887    0.18404 =
         0.19461    0.00010    0.06668    0.16655
O5    4    0.146705    0.401386    0.553171    11.00000    0.17759    0.23440 =
         0.25069   -0.02677   -0.00599    0.14038
C24   1    0.176532    0.371289    0.268897    11.00000    0.16901    0.17875 =
         0.13133   -0.01004   -0.00023    0.11635
AFIX  43
H24   2    0.170502    0.373210    0.248833    11.00000   -1.20000
AFIX   0
C33   1    0.087321    0.418709    0.283138    11.00000    0.22521    0.14599 =
         0.17867    0.01514    0.03788    0.10742
C8    1    0.245179    0.344429    0.442236    11.00000    0.17627    0.17192 =
         0.11777   -0.02281   -0.00285    0.08891
N1    3    0.217131    0.359198    0.367117    11.00000    0.19378    0.24053 =
         0.27803   -0.04764    0.06065    0.14620
C35   1    0.206669    0.364980    0.212817    11.00000    0.17560    0.19763 =
         0.12240   -0.00842   -0.00487    0.12734
AFIX  43
H35   2    0.202182    0.379318    0.210716    11.00000   -1.20000
AFIX   0
C27   1    0.147518    0.389822    0.292378    11.00000    0.17306    0.16649 =
         0.12500   -0.01805    0.00769    0.09934
C23   1    0.194925    0.360730    0.271523    11.00000    0.16019    0.17501 =
         0.14659   -0.02388   -0.00575    0.10109
C5    1    0.264868    0.335058    0.449785    11.00000    0.18928    0.16942 =
         0.12213   -0.00851    0.00493    0.10463
C25   1    0.166858    0.379082    0.295438    11.00000    0.18614    0.18253 =
         0.12203   -0.01698   -0.00394    0.11735
N2    3    0.201576    0.365698    0.365382    11.00000    0.16930    0.22864 =
         0.21939   -0.00578    0.02032    0.12985
C18   1    0.150983    0.380757    0.557416    11.00000    0.17733    0.20966 =
         0.22022   -0.04887   -0.05565    0.13917
C34   1    0.204428    0.352168    0.242357    11.00000    0.14366    0.18477 =
         0.18485   -0.02563   -0.03139    0.10986
C28   1    0.125299    0.381913    0.314196    11.00000    0.19389    0.18426 =
         0.12583   -0.00892    0.01106    0.10679
AFIX  43
H28   2    0.123664    0.370189    0.331131    11.00000   -1.20000
AFIX   0
C13   1    0.230909    0.350548    0.465054    11.00000    0.16301    0.17179 =
         0.14508   -0.00313   -0.01028    0.09278
AFIX  43
H13   2    0.234033    0.348141    0.486273    11.00000   -1.20000
AFIX   0
C32   1    0.149647    0.407828    0.268154    11.00000    0.18935    0.18424 =
         0.14965    0.01227    0.03345    0.11536
AFIX  43
H32   2    0.163970    0.413181    0.253107    11.00000   -1.20000
AFIX   0
C36   1    0.215611    0.356047    0.186924    11.00000    0.14597    0.21059 =
         0.14733   -0.01401   -0.00670    0.11181
AFIX  43
H36   2    0.216581    0.364255    0.167226    11.00000   -1.20000
AFIX   0
C22   1    0.205616    0.359503    0.302312    11.00000    0.19167    0.21301 =
         0.14187    0.00969   -0.02733    0.12390
AFIX  43
H22   2    0.219017    0.353778    0.304765    11.00000   -1.20000
AFIX   0
C14   1    0.196828    0.365662    0.483654    11.00000    0.16498    0.16031 =
         0.17118    0.01040   -0.03074    0.10411
C2    1    0.303712    0.317395    0.463236    11.00000    0.24368    0.20950 =
         0.19280    0.02599    0.05631    0.16293
C1    1    0.326530    0.309721    0.466550    11.00000    0.34499    0.18552 =
         0.13267    0.00243   -0.01685    0.12572
C30   1    0.109188    0.409068    0.287098    11.00000    0.18086    0.12640 =
         0.17574   -0.01040    0.01786    0.09117
C29   1    0.105696    0.391009    0.311331    11.00000    0.21409    0.17540 =
         0.14933   -0.00256    0.03791    0.12622
AFIX  43
H29   2    0.090639    0.384966    0.325513    11.00000   -1.20000
AFIX   0
C37   1    0.223273    0.335145    0.189113    11.00000    0.14595    0.21310 =
         0.16033   -0.02730   -0.01543    0.12395
C12   1    0.212481    0.359923    0.458382    11.00000    0.17094    0.17306 =
         0.15708   -0.02252   -0.01163    0.09302
C21   1    0.195065    0.367284    0.328636    11.00000    0.23309    0.25221 =
         0.10991   -0.00221   -0.01444    0.14127
C40   1    0.210519    0.329701    0.244216    11.00000    0.19551    0.22867 =
         0.15434   -0.01045   -0.00936    0.14512
AFIX  43
H40   2    0.207817    0.320074    0.263327    11.00000   -1.20000
AFIX   0
C3    1    0.290857    0.311224    0.438081    11.00000    0.31029    0.18499 =
         0.14581    0.00163    0.02163    0.13472
AFIX  43
H3    2    0.294491    0.300534    0.423555    11.00000   -1.20000
AFIX   0
C16   1    0.172691    0.355075    0.534777    11.00000    0.16645    0.20247 =
         0.16520   -0.01719   -0.02701    0.12071
AFIX  43
H16   2    0.165957    0.343213    0.552426    11.00000   -1.20000
AFIX   0
C20   1    0.191347    0.386454    0.481492    11.00000    0.15895    0.22038 =
         0.19779    0.01094    0.01205    0.10852
AFIX  43
H20   2    0.197324    0.397616    0.463259    11.00000   -1.20000
AFIX   0
O3    4    0.340670    0.320158    0.492306    11.00000    0.31581    0.27608 =
         0.37611    0.06472    0.08206    0.23699
C10   1    0.221623    0.356992    0.403755    11.00000    0.21349    0.21109 =
         0.09245   -0.01297    0.00833    0.06622
C15   1    0.187737    0.349966    0.511173    11.00000    0.17353    0.18468 =
         0.15809    0.00227   -0.01041    0.11200
AFIX  43
H15   2    0.191743    0.335384    0.514223    11.00000   -1.20000
AFIX   0
C19   1    0.177589    0.392863    0.503923    11.00000    0.16875    0.18510 =
         0.24604    0.03247   -0.01186    0.11166
AFIX  43
H19   2    0.174472    0.408011    0.500678    11.00000   -1.20000
AFIX   0
C9    1    0.240790    0.348512    0.410654    11.00000    0.18756    0.18402 =
         0.16949   -0.01086   -0.01949    0.09050
AFIX  43
H9    2    0.250704    0.345533    0.394514    11.00000   -1.20000
AFIX   0
C39   1    0.220333    0.321980    0.218232    11.00000    0.19803    0.22362 =
         0.18830   -0.02184   -0.02268    0.15363
AFIX  43
H39   2    0.225059    0.307797    0.220146    11.00000   -1.20000
AFIX   0
C17   1    0.167914    0.376810    0.532200    11.00000    0.14585    0.18779 =
         0.20865   -0.02343   -0.03291    0.11141
C26   1    0.177048    0.377236    0.324813    11.00000    0.22505    0.23072 =
         0.12714   -0.01501   -0.02629    0.14364
AFIX  43
H26   2    0.171244    0.383093    0.342658    11.00000   -1.20000
AFIX   0
C4    1    0.271085    0.319228    0.429834    11.00000    0.31576    0.20772 =
         0.13141   -0.01455   -0.00895    0.16572
AFIX  43
H4    2    0.261928    0.313649    0.410288    11.00000   -1.20000
AFIX   0
O12   4    0.235588    0.356066    0.350402    11.00000    0.26159    0.35243 =
         0.19378   -0.00070   -0.01523    0.20563
C11   1    0.207799    0.362866    0.425233    11.00000    0.16446    0.20473 =
         0.13341    0.01003   -0.02704    0.08834
AFIX  43
H11   2    0.195173    0.368839    0.419144    11.00000   -1.20000
AFIX   0
C31   1    0.131552    0.417926    0.265624    11.00000    0.18708    0.17224 =
         0.18322    0.01626    0.05149    0.11406
AFIX  43
H31   2    0.134000    0.430750    0.249606    11.00000   -1.20000
AFIX   0
C6    1    0.280685    0.343714    0.477297    11.00000    0.22748    0.20526 =
         0.20128   -0.04134   -0.00886    0.13738
AFIX  43
H6    2    0.277929    0.355260    0.491451    11.00000   -1.20000
AFIX   0
O8    4    0.067095    0.452412    0.197970    11.00000    0.31653    0.59659 =
         0.30175    0.24041    0.12075    0.28106
C7    1    0.300472    0.335785    0.484485    11.00000    0.23578    0.23148 =
         0.23198   -0.02462    0.00425    0.16925
AFIX  43
H7    2    0.311426    0.342344    0.502830    11.00000   -1.20000
AFIX   0
O9    4    0.112463    0.492777    0.236758    11.00000    0.35092    0.20867 =
         0.50511    0.12310    0.19111    0.13402
HKLF 4




REM  161_a.res in R-3c
REM wR2 = 0.3082, GooF = S = 1.001, Restrained GooF = 1.013 for all data
REM R1 = 0.0938 for 7124 Fo > 4sig(Fo) and 0.1460 for all 20392 data
REM 510 parameters refined using 5 restraints

END

WGHT      0.2000      0.0000

REM Highest difference peak  0.355,  deepest hole -0.403,  1-sigma level  0.070
Q1    1   0.3003  0.2797  0.4602  11.00000  0.05    0.35
;
_shelx_res_checksum              79434
_shelx_fab_file
;
0 0 6 -214.4928 23.8482
0 0 12 -41.5053 -5.6893
0 0 18 52.5425 18.0715
0 0 30 -4.3780 0.4303
0 0 36 -2.0737 -0.4868
0 0 42 1.1828 0.8451
0 0 48 -24.4244 -0.1823
1 0 -44 7.8965 0.1847
1 0 -38 8.1837 -0.8191
1 0 -32 -7.5132 0.4431
1 0 -26 8.5659 -2.5966
1 0 -20 -48.9144 8.2371
1 0 -14 8.9664 -7.6117
1 0 -8 -80.5306 6.3921
1 0 -2 -225.6226 -18.7486
1 0 4 252.8341 19.4798
1 0 10 132.9630 -4.1349
1 0 16 0.2640 4.6368
1 0 28 -3.6864 1.4169
1 0 34 -8.0005 0.0014
1 0 40 -2.6406 0.4131
1 0 46 -3.0852 -0.1075
1 1 3 -1053.3128 -33.6349
1 1 6 135.0164 -7.4904
1 1 9 24.4030 2.8205
1 1 12 -6.4111 -2.9584
1 1 15 172.4643 -6.5901
1 1 18 -17.7230 -9.0517
1 1 21 -15.0175 9.1862
1 1 27 -10.9831 -2.3862
1 1 30 3.5637 0.0276
1 1 33 8.6728 -0.3126
1 1 36 9.4908 0.4383
1 1 39 -8.5148 -0.3828
1 1 42 -2.5153 -0.5071
1 1 45 4.2703 0.3016
1 1 48 8.0742 0.0730
2 0 -46 -15.3916 0.1890
2 0 -40 15.6697 -0.4192
2 0 -34 8.1157 0.2274
2 0 -28 0.8312 -2.6656
2 0 -22 8.5726 7.2806
2 0 -16 -54.2019 -5.7504
2 0 -10 -310.8773 7.6507
2 0 -4 127.6102 -20.6141
2 0 2 -290.3510 18.2936
2 0 8 -138.9559 -8.3850
2 0 14 165.0004 7.8774
2 0 20 53.6003 -8.1440
2 0 26 -22.3425 2.7657
2 0 32 3.4382 -0.5989
2 0 38 1.2913 0.9271
2 0 44 -15.7710 -0.2812
2 1 -47 15.5634 0.0055
2 1 -44 -1.1012 0.0747
2 1 -41 20.6580 0.4744
2 1 -38 15.5826 0.3496
2 1 -35 9.2347 -0.2845
2 1 -32 0.8847 -0.2083
2 1 -29 5.6681 0.3748
2 1 -26 7.2199 -2.7567
2 1 -23 -2.6910 -6.3097
2 1 -20 12.9427 -0.0612
2 1 -17 -28.5112 8.7020
2 1 -14 -49.7349 3.7949
2 1 -11 -72.6982 -5.0079
2 1 -8 -148.1908 6.9049
2 1 -5 -60.2444 10.9003
2 1 -2 -106.3029 -7.6292
2 1 1 -499.7412 -21.7739
2 1 4 -509.8933 -4.9560
2 1 7 16.7141 6.8800
2 1 10 80.2749 -0.4120
2 1 13 18.4333 -1.1227
2 1 16 44.0761 4.6204
2 1 19 43.9127 4.8005
2 1 22 13.4357 -0.4204
2 1 25 -4.0649 -2.5663
2 1 28 -1.1436 -0.5431
2 1 31 4.8896 -0.0717
2 1 34 12.1796 -0.2376
2 1 37 -4.6967 -0.4138
2 1 40 3.9583 0.1783
2 1 43 10.7042 0.1958
2 1 46 2.7800 -0.0824
2 1 49 14.0805 -0.0669
2 2 0 -1404.6465 -2.3660
2 2 3 99.1230 5.5728
2 2 6 -16.3024 -0.3256
2 2 9 -127.6666 1.6462
2 2 12 -8.2721 -1.9984
2 2 15 6.1003 0.0601
2 2 18 11.4211 -1.6244
2 2 21 2.4897 -2.6676
2 2 24 1.4258 1.2252
2 2 27 -5.4942 0.9118
2 2 30 6.0486 0.3395
2 2 33 -0.4218 -0.0664
2 2 36 3.7292 0.3182
2 2 39 5.3113 0.1486
2 2 42 -3.8219 -0.0983
2 2 45 -4.6009 -0.1958
2 2 48 4.9437 -0.0314
3 0 -48 7.4149 -0.0786
3 0 -42 -3.3723 0.4088
3 0 -36 -5.1596 0.1161
3 0 -30 -2.6421 -0.9609
3 0 -24 15.4295 -4.2668
3 0 -18 41.4259 4.5336
3 0 -12 -55.8590 7.4874
3 0 -6 -264.9183 1.3834
3 0 0 -384.1383 -21.5153
3 0 6 -174.1532 1.1752
3 0 12 109.7106 6.0376
3 0 18 65.0512 6.2508
3 0 30 0.2493 -0.6449
3 0 36 -0.1696 0.0989
3 0 42 -19.1230 0.2745
3 0 48 -15.1811 -0.0428
3 1 -49 -6.7166 -0.0638
3 1 -46 -8.3565 -0.0795
3 1 -43 -6.4595 0.3588
3 1 -40 -10.3026 0.0548
3 1 -37 -2.3861 -0.8291
3 1 -34 0.9757 0.1460
3 1 -31 -3.1971 0.3082
3 1 -28 3.8030 0.9782
3 1 -25 -2.8774 -4.0949
3 1 -22 -6.5296 -2.3157
3 1 -19 22.2843 9.5840
3 1 -16 -23.9266 -0.4334
3 1 -13 -209.8480 -4.4918
3 1 -10 -29.1268 -1.1868
3 1 -7 -7.1753 7.1063
3 1 -4 22.8267 7.8337
3 1 -1 -154.0005 -24.9564
3 1 2 64.8531 -3.4790
3 1 5 -16.8537 13.4359
3 1 8 74.6708 -0.0970
3 1 11 -38.3418 -2.8344
3 1 14 62.0255 -3.5527
3 1 17 -7.9278 6.0406
3 1 20 -23.8877 2.8522
3 1 23 -2.4062 -6.8236
3 1 26 11.2637 0.3681
3 1 29 1.0478 0.6426
3 1 32 10.4786 0.0060
3 1 35 4.8168 -0.0415
3 1 38 0.1007 -0.4323
3 1 41 -3.4271 0.5724
3 1 44 -9.3513 -0.0190
3 1 47 -6.4910 -0.0967
3 2 -47 2.0533 -0.1594
3 2 -44 -5.4893 -0.1223
3 2 -41 -14.7512 0.1892
3 2 -38 -15.1425 0.1103
3 2 -35 -3.4968 0.2068
3 2 -32 2.0084 0.8706
3 2 -29 9.1526 0.4622
3 2 -26 -13.8990 0.7527
3 2 -23 2.9010 -2.0694
3 2 -20 -20.4256 -3.3403
3 2 -17 -20.8605 -1.6826
3 2 -14 59.6311 -0.3361
3 2 -11 -18.8982 1.1243
3 2 -8 130.2790 1.2561
3 2 -5 61.2177 5.0630
3 2 -2 216.8992 7.7917
3 2 1 -8.4889 -4.8909
3 2 4 116.9225 -2.8169
3 2 7 185.2080 -0.1580
3 2 10 -128.9930 -1.5344
3 2 13 -61.5390 -2.3924
3 2 16 -6.6742 -1.2080
3 2 19 -11.1837 4.0587
3 2 22 -7.2093 2.4126
3 2 25 13.9773 -0.9515
3 2 28 4.6399 -0.1959
3 2 31 -2.0239 -0.0175
3 2 34 3.2316 0.0565
3 2 37 11.7037 -0.3195
3 2 40 4.4497 -0.1389
3 2 43 0.5917 0.0412
3 2 46 -6.5527 0.0255
3 2 49 2.0326 0.0183
3 3 0 159.5809 -0.7385
3 3 3 231.7400 -2.4297
3 3 6 -188.1526 -1.6349
3 3 9 196.8330 -1.6957
3 3 12 -19.8216 0.9577
3 3 15 -17.4824 -0.0150
3 3 18 -0.3488 1.8607
3 3 21 4.1946 1.3177
3 3 24 -7.6165 -0.6925
3 3 27 -11.1516 -0.3432
3 3 30 -5.8180 -0.2672
3 3 33 -9.4192 -0.3563
3 3 36 0.1544 -0.3662
3 3 39 -12.0044 -0.0372
3 3 42 11.6076 0.1357
3 3 45 -14.0896 0.1943
3 3 48 20.1866 0.0385
4 0 -44 4.7767 -0.0903
4 0 -38 -10.8613 -0.0608
4 0 -32 2.2532 -0.8576
4 0 -26 3.0602 1.6104
4 0 -20 -47.6419 4.6367
4 0 -14 162.3861 -4.3097
4 0 -8 362.9156 -8.2215
4 0 -2 -180.9823 -0.7944
4 0 4 371.9471 8.9782
4 0 10 209.4722 5.6033
4 0 16 -34.4045 -8.1217
4 0 22 -8.3051 0.2866
4 0 28 4.9873 -0.0472
4 0 34 -9.0636 1.0227
4 0 40 -5.2927 -0.3165
4 0 46 25.7383 -0.0259
4 1 -48 12.8563 0.0109
4 1 -45 -4.9781 0.0711
4 1 -42 -2.3991 -0.2452
4 1 -39 -1.0332 0.1520
4 1 -36 -0.4545 -0.2507
4 1 -33 1.4147 -0.1298
4 1 -30 -6.9752 0.9159
4 1 -27 -3.0694 -0.7343
4 1 -24 -10.4760 0.6146
4 1 -21 27.7406 1.5462
4 1 -18 27.6549 -0.0482
4 1 -15 67.0276 -3.6413
4 1 -12 22.5992 -4.5388
4 1 -9 -251.3650 5.4572
4 1 -6 225.2739 1.0817
4 1 -3 -144.4384 -4.7689
4 1 0 481.9563 3.6462
4 1 3 -280.8669 6.0851
4 1 6 232.2975 2.3860
4 1 9 -180.4774 -4.2491
4 1 12 -41.0134 -2.3850
4 1 15 -1.6208 0.7945
4 1 18 -43.7559 -1.0155
4 1 21 34.4047 0.6409
4 1 24 -5.0718 0.9927
4 1 27 0.1341 0.2413
4 1 30 -5.0200 0.2259
4 1 33 2.8765 0.2460
4 1 36 -25.4860 -0.2078
4 1 39 0.5524 -0.1354
4 1 42 -5.4892 -0.0101
4 1 45 4.6805 -0.0149
4 1 48 -10.4007 0.0574
4 2 -49 -16.4295 0.0290
4 2 -46 2.7984 0.0126
4 2 -43 16.4533 -0.0478
4 2 -40 4.8830 0.2317
4 2 -37 -2.1772 0.1456
4 2 -34 0.7448 -0.0951
4 2 -31 -1.1103 0.0811
4 2 -28 -0.3024 -0.1616
4 2 -25 -1.8083 0.2093
4 2 -22 17.2586 -3.5261
4 2 -19 38.4705 -0.0355
4 2 -16 26.8986 2.9168
4 2 -13 13.9503 -0.4867
4 2 -10 142.0828 1.6029
4 2 -7 2.5390 0.3535
4 2 -4 -171.7573 5.9595
4 2 -1 -184.4960 0.7996
4 2 2 38.3928 -10.4529
4 2 5 -182.3176 2.4761
4 2 8 -217.3281 -2.3309
4 2 11 -1.2710 -0.6795
4 2 14 -54.7231 0.1092
4 2 17 -28.0496 -1.2300
4 2 20 -20.3995 3.5089
4 2 23 12.9077 -0.1635
4 2 26 3.1327 -0.7211
4 2 29 -5.7754 0.7735
4 2 32 -4.1182 -0.8785
4 2 35 -13.4897 0.2337
4 2 38 -6.0234 -0.3094
4 2 41 -8.2723 -0.0760
4 2 44 3.3577 0.1874
4 2 47 -1.6569 -0.0359
4 3 -47 -0.6857 -0.0183
4 3 -44 1.0576 -0.0669
4 3 -41 -9.5245 -0.1532
4 3 -38 -13.6094 -0.1058
4 3 -35 -2.3178 0.1911
4 3 -32 10.7258 0.1082
4 3 -29 12.8838 0.8112
4 3 -26 2.4910 1.1802
4 3 -23 4.8249 0.4609
4 3 -20 44.6226 -1.0862
4 3 -17 6.4877 -1.4655
4 3 -14 23.9617 0.7144
4 3 -11 100.7281 -1.7594
4 3 -8 134.2495 -2.8598
4 3 -5 -163.7153 1.1525
4 3 -2 -289.0264 5.3056
4 3 1 -164.0639 3.7003
4 3 4 -298.8441 -3.2805
4 3 7 -270.1535 -0.2022
4 3 10 -160.7910 0.4020
4 3 13 126.5912 -0.8418
4 3 16 -62.0417 -1.2402
4 3 19 49.9273 -1.1679
4 3 22 -23.8519 0.3187
4 3 25 -5.2072 0.7484
4 3 28 4.3297 0.3072
4 3 31 -0.8121 0.4598
4 3 34 -1.5369 -0.1250
4 3 37 -14.8389 -0.1527
4 3 40 -8.5726 0.0076
4 3 43 7.4226 0.1256
4 3 46 8.6259 -0.0534
4 3 49 4.9528 -0.0751
4 4 0 242.6461 4.7037
4 4 3 128.7086 -5.9029
4 4 6 -3.7871 -1.8536
4 4 9 148.5775 3.0561
4 4 12 -37.3937 1.1109
4 4 15 28.5077 -1.8833
4 4 18 -3.4894 -2.4889
4 4 21 -30.3544 1.6281
4 4 24 9.5294 1.3638
4 4 27 -1.1366 -0.7053
4 4 30 2.2373 0.2251
4 4 33 -5.5805 0.2487
4 4 36 -10.7882 0.3094
4 4 39 0.3691 -0.0191
4 4 42 3.8839 -0.1423
4 4 45 -1.1795 0.0226
4 4 48 6.5331 -0.0315
5 0 -46 4.7952 0.2575
5 0 -40 2.5705 -0.6719
5 0 -34 -5.2992 -0.4433
5 0 -28 -7.0416 -1.2580
5 0 -22 -5.4330 8.4983
5 0 -16 72.9350 -2.6902
5 0 -10 215.6610 -6.7454
5 0 -4 236.4909 -12.8061
5 0 2 -230.4174 18.6145
5 0 8 328.1870 4.3249
5 0 14 -14.0336 -1.5772
5 0 20 15.0645 -8.1358
5 0 26 -10.1040 2.6974
5 0 32 -2.1213 1.3267
5 0 38 -6.9977 0.5590
5 0 44 15.9226 -0.3118
5 1 -47 17.6513 0.0811
5 1 -44 -6.9604 0.2151
5 1 -41 -13.3068 -0.2124
5 1 -38 -8.6031 -0.0803
5 1 -35 8.6087 0.3006
5 1 -32 3.9426 0.2240
5 1 -29 2.5568 -1.0441
5 1 -26 3.3440 -1.6163
5 1 -23 21.9031 0.8436
5 1 -20 4.9570 1.6437
5 1 -17 48.2533 0.2125
5 1 -14 -0.8183 1.2005
5 1 -11 161.6307 5.0972
5 1 -8 -281.5428 -0.2418
5 1 -5 -286.6848 -4.8109
5 1 -2 -123.1719 -3.5595
5 1 1 35.6961 -0.0182
5 1 4 -201.4693 1.9838
5 1 7 -351.6913 -3.5941
5 1 10 13.4949 -1.0275
5 1 13 -179.5893 5.3585
5 1 16 32.3034 2.2114
5 1 19 -2.3815 -1.9740
5 1 22 16.4594 -2.2369
5 1 25 29.9502 -0.1288
5 1 28 -6.1786 1.0092
5 1 31 2.8220 -1.0595
5 1 34 -0.0754 -0.2220
5 1 37 0.1319 0.6815
5 1 40 0.9960 0.1769
5 1 43 10.0945 0.0184
5 1 46 -13.2513 0.0225
5 1 49 -9.5555 0.0274
5 2 -48 17.0674 0.0339
5 2 -45 1.4299 0.0426
5 2 -42 7.7369 0.1689
5 2 -39 5.4434 -0.3094
5 2 -36 0.3160 -0.2716
5 2 -33 -1.6624 0.0675
5 2 -30 1.4249 -0.6935
5 2 -27 2.6367 -0.3955
5 2 -24 13.7422 -0.1069
5 2 -21 -13.2546 1.5454
5 2 -18 8.7447 1.3220
5 2 -15 -36.2154 -0.0082
5 2 -12 24.2097 1.4450
5 2 -9 303.5765 -1.5316
5 2 -6 119.3113 -2.8908
5 2 -3 -13.5031 -2.7963
5 2 0 20.6559 -0.3631
5 2 3 164.9430 1.5099
5 2 6 -361.7632 1.9042
5 2 9 -21.7247 1.2039
5 2 12 -15.5790 2.4094
5 2 15 20.5491 0.7484
5 2 18 -18.4056 -0.9285
5 2 21 -9.6872 -2.1061
5 2 24 -4.1983 -1.3113
5 2 27 12.1414 0.4281
5 2 30 0.6702 0.0966
5 2 33 -17.1542 -0.1024
5 2 36 -5.6966 0.2845
5 2 39 -2.2464 0.0624
5 2 42 5.8435 0.1819
5 2 45 4.6752 -0.0767
5 2 48 0.3961 -0.0661
5 3 -49 -9.1532 -0.0344
5 3 -46 -2.6700 -0.1270
5 3 -43 15.7335 0.1051
5 3 -40 4.9849 0.0681
5 3 -37 -5.7782 -0.1779
5 3 -34 -6.4923 0.0519
5 3 -31 -5.2161 0.6902
5 3 -28 8.5783 0.0831
5 3 -25 24.6997 -0.7364
5 3 -22 34.2294 0.0071
5 3 -19 5.4513 -0.1413
5 3 -16 42.3926 0.2380
5 3 -13 105.3473 0.0653
5 3 -10 55.5499 0.8951
5 3 -7 94.8283 1.1701
5 3 -4 423.5054 -1.9732
5 3 -1 16.6536 3.5203
5 3 2 291.5956 -1.7465
5 3 5 71.9326 -3.8156
5 3 8 102.0660 2.4676
5 3 11 148.6090 -0.4609
5 3 14 10.3187 2.5101
5 3 17 27.0761 -0.8950
5 3 20 -42.8992 -0.6614
5 3 23 12.8778 1.3079
5 3 26 -8.1034 -1.1883
5 3 29 0.7068 0.4087
5 3 32 6.1023 -0.1564
5 3 35 5.0258 -0.2223
5 3 38 -10.9569 0.3435
5 3 41 -2.4469 -0.0196
5 3 44 6.9596 0.0563
5 3 47 15.4941 -0.0144
5 4 -47 0.9394 0.0449
5 4 -44 7.1270 -0.1124
5 4 -41 -1.7292 0.2241
5 4 -38 -4.4274 0.0667
5 4 -35 -6.0316 -0.6762
5 4 -32 -2.8030 -0.0579
5 4 -29 1.1857 0.2862
5 4 -26 -0.2251 0.4583
5 4 -23 30.5316 -0.0193
5 4 -20 15.5803 0.2222
5 4 -17 24.5598 3.2456
5 4 -14 30.4186 -1.6971
5 4 -11 -45.0336 -2.3058
5 4 -8 -128.1146 0.2852
5 4 -5 -219.3948 -1.9791
5 4 -2 -199.4135 0.1900
5 4 1 -65.7399 -3.1144
5 4 4 -35.8245 0.7549
5 4 7 292.1088 3.9861
5 4 10 102.9284 -0.5092
5 4 13 61.3826 0.2747
5 4 16 21.2559 -0.7353
5 4 19 -11.5850 0.3818
5 4 22 -1.1057 1.3499
5 4 25 7.6146 -1.3927
5 4 28 3.8876 -0.3753
5 4 31 -10.8679 0.3385
5 4 34 -3.6803 0.0940
5 4 37 4.6350 0.0663
5 4 40 13.3047 -0.1935
5 4 43 3.8465 -0.0123
5 4 46 2.6277 0.1334
5 5 0 7.3149 1.4189
5 5 3 9.0234 2.8701
5 5 6 147.6602 -0.8731
5 5 9 -108.1889 -1.9451
5 5 12 -47.3325 -1.6254
5 5 15 -17.7504 1.3466
5 5 18 1.9544 0.4694
5 5 21 13.8960 0.1943
5 5 24 10.6234 0.9641
5 5 27 4.3150 -0.4751
5 5 30 0.2790 -0.3113
5 5 33 -5.3135 -0.0123
5 5 36 5.2424 -0.2324
5 5 39 -8.2741 -0.1329
5 5 42 -17.6944 -0.1725
5 5 45 10.9706 0.0373
5 5 48 -8.3350 0.1082
6 0 -48 14.9912 -0.0447
6 0 -42 3.5609 -0.1044
6 0 -36 6.0332 0.8663
6 0 -30 -18.9380 0.0839
6 0 -24 -16.6404 1.2433
6 0 -18 -49.6107 -9.2266
6 0 -12 34.8172 8.7032
6 0 -6 -108.9744 -1.9570
6 0 0 19.5563 11.0994
6 0 6 200.0215 -15.8687
6 0 12 -17.4949 0.4322
6 0 18 68.5617 0.2898
6 0 24 13.5330 3.1109
6 0 30 -2.0821 -0.9526
6 0 36 -8.6803 -0.2820
6 0 42 0.4733 -0.1303
6 0 48 -4.3404 0.1031
6 1 -49 -4.0983 0.0089
6 1 -46 -2.8687 -0.0653
6 1 -43 7.9096 -0.0532
6 1 -40 2.4903 0.0444
6 1 -37 -2.6833 0.0596
6 1 -34 3.6585 0.2263
6 1 -31 -2.6238 -0.8725
6 1 -28 0.1008 0.4854
6 1 -25 -11.6686 0.9518
6 1 -22 -8.6738 -0.2215
6 1 -19 -25.5277 -0.7154
6 1 -16 -66.6647 -2.3181
6 1 -13 71.5049 3.4771
6 1 -10 -175.8904 1.1351
6 1 -7 207.0116 -8.7324
6 1 -4 -338.6902 2.0702
6 1 -1 220.7233 3.2059
6 1 2 -113.0653 2.6269
6 1 5 -29.0689 -3.3344
6 1 8 -146.5026 -3.7003
6 1 11 -103.4481 7.4659
6 1 14 111.4416 0.3465
6 1 17 22.4572 -1.8627
6 1 20 34.0720 0.9477
6 1 23 -7.1819 -0.7111
6 1 26 -0.0113 0.9625
6 1 29 10.5734 -0.9368
6 1 32 3.7306 -0.5561
6 1 35 -5.5353 0.3581
6 1 38 -13.0340 -0.0961
6 1 41 -2.0869 0.0424
6 1 44 17.5415 0.0282
6 1 47 0.1174 -0.0106
6 2 -47 0.0989 -0.0314
6 2 -44 -2.0064 -0.0340
6 2 -41 0.9041 -0.0860
6 2 -38 0.4252 0.0910
6 2 -35 -8.3193 -0.1296
6 2 -32 -1.9196 -0.4717
6 2 -29 3.3509 0.2092
6 2 -26 15.4893 0.5203
6 2 -23 -23.7224 -0.0048
6 2 -20 -32.2865 -0.7824
6 2 -17 -27.3066 0.0480
6 2 -14 -14.0659 0.4771
6 2 -11 -34.7107 -1.3077
6 2 -8 160.3076 0.6077
6 2 -5 368.8040 -1.6506
6 2 -2 -165.8813 2.5161
6 2 1 229.5333 1.7183
6 2 4 -475.1455 -3.5964
6 2 7 385.3110 0.8460
6 2 10 41.8581 -0.4995
6 2 13 71.0365 -0.2418
6 2 16 5.0871 -0.7216
6 2 19 -24.8403 -1.2746
6 2 22 4.8187 1.8554
6 2 25 -24.3399 0.0530
6 2 28 -5.3571 -0.2705
6 2 31 -1.4937 0.3541
6 2 34 5.5000 -0.4454
6 2 37 -2.6300 -0.0259
6 2 40 -15.9572 -0.1066
6 2 43 5.1964 -0.1284
6 2 46 2.9767 -0.0569
6 2 49 -1.1215 -0.0278
6 3 -48 -1.3438 -0.0447
6 3 -45 5.6643 0.1318
6 3 -42 -5.1383 0.0304
6 3 -39 -2.4272 0.2213
6 3 -36 -8.2461 0.2575
6 3 -33 6.3174 -0.2489
6 3 -30 0.9591 0.3011
6 3 -27 3.2077 -1.0831
6 3 -24 4.0694 -1.4190
6 3 -21 4.7233 -0.1300
6 3 -18 36.7343 0.3762
6 3 -15 43.6238 2.7265
6 3 -12 132.1273 -1.2728
6 3 -9 104.4689 0.9214
6 3 -6 25.2352 4.7078
6 3 -3 30.8519 -1.8178
6 3 0 -374.7167 -4.6617
6 3 3 12.6990 -1.3804
6 3 6 -147.7405 1.6546
6 3 9 29.2569 0.7472
6 3 12 45.4167 -2.2658
6 3 15 -28.2813 1.5788
6 3 18 -18.5659 1.3076
6 3 21 9.4306 -0.2228
6 3 24 -16.4054 -0.0311
6 3 27 -2.7136 -0.2608
6 3 30 -4.9405 0.3059
6 3 33 -11.5301 -0.0441
6 3 36 -9.8187 -0.1025
6 3 39 2.9242 0.0568
6 3 42 10.1921 -0.1083
6 3 45 -0.2878 -0.0244
6 3 48 -0.1503 0.0253
6 4 -46 -28.1739 0.0537
6 4 -43 -9.5271 -0.0676
6 4 -40 7.3858 -0.1249
6 4 -37 -3.4198 -0.0009
6 4 -34 -0.9249 -0.0073
6 4 -31 -3.2385 0.4107
6 4 -28 -6.9654 0.9693
6 4 -25 1.8849 -0.5903
6 4 -22 7.0492 -0.3349
6 4 -19 13.4488 -0.3615
6 4 -16 -2.7179 -2.0958
6 4 -13 -3.4220 -1.1109
6 4 -10 -35.3218 -1.3543
6 4 -7 66.6383 4.2807
6 4 -4 -7.4616 2.8450
6 4 -1 -94.0469 -4.0799
6 4 2 250.3803 3.7994
6 4 5 -107.0680 0.9394
6 4 8 -11.6362 -0.6763
6 4 11 -37.4614 -2.9717
6 4 14 -30.8678 -2.9201
6 4 17 -25.9619 3.3973
6 4 20 26.3128 0.1839
6 4 23 22.6676 -0.2081
6 4 26 1.0952 0.4802
6 4 29 -1.1685 0.0245
6 4 32 8.0295 0.5349
6 4 35 -3.9848 -0.3587
6 4 38 -8.2496 -0.2633
6 4 41 11.9986 -0.0784
6 4 44 -5.8932 -0.0471
6 4 47 -0.6326 0.0598
6 5 -47 4.1325 0.0116
6 5 -44 9.0629 0.0746
6 5 -41 1.1193 -0.0118
6 5 -38 -19.0449 0.1078
6 5 -35 -8.6878 0.1249
6 5 -32 -7.7495 -0.3588
6 5 -29 10.0705 0.0525
6 5 -26 11.0418 -0.0959
6 5 -23 1.8296 -0.2777
6 5 -20 -15.1126 -0.7810
6 5 -17 -15.4391 -1.2338
6 5 -14 -85.3131 3.7792
6 5 -11 -6.4310 0.4017
6 5 -8 -3.4548 -1.1805
6 5 -5 232.1986 1.6356
6 5 -2 323.8723 -1.0987
6 5 1 384.0135 2.2125
6 5 4 -13.4715 -4.3707
6 5 7 -12.8633 -1.0810
6 5 10 -148.0449 2.8599
6 5 13 -105.0399 -1.5671
6 5 16 -33.9810 1.3998
6 5 19 -14.3057 0.0459
6 5 22 6.8819 -0.0101
6 5 25 -12.0817 0.3503
6 5 28 2.2262 -1.2497
6 5 31 5.3661 0.4154
6 5 34 8.1350 0.3334
6 5 37 -13.7607 -0.2095
6 5 40 -11.0110 0.0855
6 5 43 6.4524 -0.0262
6 5 46 -2.0509 -0.0077
6 6 0 244.2154 0.4501
6 6 3 240.0338 0.5019
6 6 6 -19.4216 -1.1689
6 6 9 63.0658 3.0389
6 6 12 5.0793 1.6719
6 6 15 17.9614 -0.8965
6 6 18 14.8481 -0.7046
6 6 21 -13.6788 -1.8709
6 6 24 -15.1675 0.2793
6 6 27 4.0686 0.2779
6 6 30 -0.0242 -0.4092
6 6 33 -2.0292 0.3706
6 6 36 4.4839 0.1288
6 6 39 -9.0389 0.2991
6 6 42 -7.8177 0.1201
6 6 45 9.8154 -0.1032
6 6 48 2.5075 -0.0430
7 0 -44 -10.3091 -0.3425
7 0 -38 9.3924 0.2288
7 0 -32 1.6674 -0.8114
7 0 -26 -17.7955 3.9928
7 0 -20 -35.8982 -2.4615
7 0 -14 -160.0795 0.4863
7 0 -8 -121.3549 -8.0033
7 0 -2 -43.0145 7.7663
7 0 4 443.9261 4.1503
7 0 10 -84.6172 1.9038
7 0 16 -17.1627 -6.0601
7 0 22 -5.9297 1.8258
7 0 28 3.4337 -0.2524
7 0 34 -7.7555 1.2163
7 0 40 -3.0189 -0.4151
7 0 46 -0.7609 0.0683
7 1 -48 -5.8797 -0.0291
7 1 -45 1.7790 -0.0335
7 1 -42 5.6204 -0.0519
7 1 -39 -5.2649 -0.2868
7 1 -36 -2.4929 0.1799
7 1 -33 -1.0992 -0.1721
7 1 -30 2.3770 -0.8633
7 1 -27 -8.6538 1.5828
7 1 -24 -0.4445 1.5260
7 1 -21 -18.0446 0.9290
7 1 -18 8.9793 1.7985
7 1 -15 18.4093 -2.2985
7 1 -12 -129.5542 -1.0791
7 1 -9 -56.3575 -4.9120
7 1 -6 -112.5507 -2.7830
7 1 -3 81.2106 3.6352
7 1 0 5.3417 -2.7792
7 1 3 159.0198 3.4083
7 1 6 -116.2878 4.2596
7 1 9 -98.5632 2.0440
7 1 12 -1.3007 1.4798
7 1 15 -24.7806 -4.8894
7 1 18 8.5850 -1.4386
7 1 21 -11.8637 0.3477
7 1 24 -0.4737 -0.4809
7 1 27 -4.7950 0.6356
7 1 30 4.3274 -0.0504
7 1 33 2.1152 0.5003
7 1 36 4.1552 0.2807
7 1 39 9.0202 -0.1123
7 1 42 17.6268 -0.1144
7 1 45 8.0470 -0.0791
7 1 48 -5.7201 -0.0886
7 2 -46 -11.1567 0.0103
7 2 -43 -1.2832 0.1125
7 2 -40 2.9824 -0.0464
7 2 -37 -10.0441 -0.0004
7 2 -34 4.0955 0.1188
7 2 -31 4.8705 -0.1340
7 2 -28 -4.9557 -0.8160
7 2 -25 -13.8416 0.2167
7 2 -22 -2.2059 -0.2388
7 2 -19 0.1252 1.3762
7 2 -16 18.2139 1.9773
7 2 -13 -100.4492 -0.9171
7 2 -10 144.9182 0.5759
7 2 -7 -348.1169 -0.8389
7 2 -4 243.8339 0.7719
7 2 -1 -243.9975 -0.8217
7 2 2 -181.3958 -6.7346
7 2 5 115.6377 4.5463
7 2 8 164.1850 0.7623
7 2 11 -16.5613 -1.3397
7 2 14 -2.5607 1.0197
7 2 17 -31.0837 -1.4599
7 2 20 -35.5913 1.5086
7 2 23 -12.6773 -1.0102
7 2 26 -7.5070 -0.7214
7 2 29 4.3067 0.6521
7 2 32 -6.4573 -0.1215
7 2 35 12.8581 0.2445
7 2 38 3.8583 0.2769
7 2 41 13.5178 0.0618
7 2 44 6.7578 0.0146
7 2 47 4.3780 -0.0419
7 3 -47 0.4408 0.0208
7 3 -44 -3.4377 0.1300
7 3 -41 3.0227 0.0226
7 3 -38 5.6739 -0.2509
7 3 -35 1.1496 0.0552
7 3 -32 14.5731 0.2383
7 3 -29 0.4280 -0.3313
7 3 -26 -8.2998 -0.7591
7 3 -23 -14.8994 -0.0371
7 3 -20 -11.8592 1.7531
7 3 -17 -3.3928 -0.5105
7 3 -14 27.3435 -0.7250
7 3 -11 109.5536 1.3054
7 3 -8 82.6221 0.5606
7 3 -5 -104.7910 1.6627
7 3 -2 -84.8476 -3.4456
7 3 1 -112.8925 -0.9743
7 3 4 -137.5525 2.8445
7 3 7 138.0199 -1.3223
7 3 10 29.9069 0.4413
7 3 13 -81.6411 -0.6503
7 3 16 1.1707 1.0039
7 3 19 45.7039 0.9926
7 3 22 3.3568 -1.4448
7 3 25 6.8473 -0.0079
7 3 28 6.1670 -0.0974
7 3 31 2.9222 -0.2344
7 3 34 6.4518 0.0241
7 3 37 1.3541 -0.0069
7 3 40 7.0279 0.1318
7 3 43 15.2939 0.0688
7 3 46 -14.9058 0.0599
7 4 -48 -8.7683 0.0122
7 4 -45 13.7903 -0.1809
7 4 -42 -5.6863 0.1760
7 4 -39 15.4322 0.0532
7 4 -36 12.2766 -0.1214
7 4 -33 -3.0329 0.5782
7 4 -30 1.4726 0.6770
7 4 -27 0.2410 0.2443
7 4 -24 -0.2387 -1.5803
7 4 -21 4.6389 -0.4030
7 4 -18 -9.7609 -0.0964
7 4 -15 5.1220 -3.2899
7 4 -12 -79.0264 1.3766
7 4 -9 -22.4799 1.4496
7 4 -6 -102.7177 1.1966
7 4 -3 -314.3245 0.9729
7 4 0 157.0666 -0.4636
7 4 3 -59.8974 1.2799
7 4 6 -178.8794 -1.6743
7 4 9 -91.5246 -1.8310
7 4 12 -2.7464 0.3239
7 4 15 2.4808 -0.0511
7 4 18 5.1079 1.9471
7 4 21 4.1015 -0.0467
7 4 24 -5.1619 -0.5836
7 4 27 -2.2174 0.1967
7 4 30 2.6575 0.1198
7 4 33 14.5036 -0.0605
7 4 36 -0.3829 -0.2395
7 4 39 4.7614 0.0385
7 4 42 7.3784 0.1191
7 4 45 5.4356 0.0748
7 4 48 -8.4301 0.0188
7 5 -46 -0.7602 -0.1023
7 5 -43 1.8528 -0.0172
7 5 -40 -12.6050 0.1739
7 5 -37 1.9921 -0.1531
7 5 -34 1.4283 -0.3884
7 5 -31 1.2352 -0.3865
7 5 -28 4.4679 0.6496
7 5 -25 2.9768 0.3836
7 5 -22 -4.8031 -0.2095
7 5 -19 -23.4762 1.4617
7 5 -16 -39.7428 0.9627
7 5 -13 -100.9744 -0.7197
7 5 -10 -2.3683 -1.1753
7 5 -7 56.3401 -2.3758
7 5 -4 -33.8317 0.1950
7 5 -1 127.6604 0.4113
7 5 2 -384.8343 -1.0254
7 5 5 -88.5945 1.5314
7 5 8 -24.9132 0.8546
7 5 11 71.8734 2.3978
7 5 14 48.0345 -0.1467
7 5 17 9.4102 -1.1975
7 5 20 2.5035 0.3096
7 5 23 18.7726 -0.3356
7 5 26 -1.7980 -0.2747
7 5 29 -7.8674 -0.1961
7 5 32 -15.0291 0.1041
7 5 35 0.5083 -0.0103
7 5 38 -5.7185 -0.0363
7 5 41 -1.8890 0.0624
7 5 44 -0.3315 -0.0093
7 5 47 -3.1255 -0.0245
7 6 -47 -10.6459 -0.0524
7 6 -44 1.0843 -0.0760
7 6 -41 14.3403 -0.1061
7 6 -38 -10.2446 0.2639
7 6 -35 16.3741 -0.0168
7 6 -32 -8.8002 -0.6023
7 6 -29 6.4363 0.1695
7 6 -26 -14.1490 0.6886
7 6 -23 -13.6846 -0.3146
7 6 -20 2.2287 -0.3782
7 6 -17 -18.1616 0.5222
7 6 -14 56.1162 -0.7358
7 6 -11 -16.0123 -0.7885
7 6 -8 233.6069 -1.0759
7 6 -5 -64.9387 1.8246
7 6 -2 419.5668 1.8190
7 6 1 11.2174 -1.5472
7 6 4 -61.1647 1.0078
7 6 7 -73.3680 -0.5453
7 6 10 -15.8520 0.1929
7 6 13 30.9308 -0.0949
7 6 16 51.5977 -1.8359
7 6 19 14.4857 0.5416
7 6 22 14.6816 0.9116
7 6 25 -4.8937 0.7876
7 6 28 1.5969 0.1326
7 6 31 1.1528 -0.5295
7 6 34 5.3053 -0.1197
7 6 37 -5.9771 0.0107
7 6 40 -0.2594 -0.0747
7 6 43 -6.9092 -0.0887
7 6 46 -11.7154 -0.0124
7 7 0 284.3394 -1.1988
7 7 3 -239.5190 -1.4600
7 7 6 -93.5348 -1.2901
7 7 9 -19.5815 -0.3690
7 7 12 -109.0969 1.5987
7 7 15 -9.2838 -0.8374
7 7 18 20.4691 0.4296
7 7 21 -21.9382 1.1283
7 7 24 17.4707 0.2028
7 7 27 3.3281 0.2038
7 7 30 -6.5785 -0.8094
7 7 33 2.6189 0.1561
7 7 36 1.3246 0.1657
7 7 39 1.8501 -0.2348
7 7 42 -6.6255 -0.0739
7 7 45 -21.3466 -0.0638
7 7 48 2.0172 0.0855
8 0 -46 12.3414 0.0698
8 0 -40 -6.1341 0.1320
8 0 -34 -3.2722 -0.9515
8 0 -28 -1.5234 0.4163
8 0 -22 -24.0565 -0.7583
8 0 -16 -68.0574 4.8788
8 0 -10 -131.0026 -10.4032
8 0 -4 302.3985 5.3469
8 0 2 64.4751 -0.3206
8 0 8 83.0607 8.9753
8 0 14 -93.8667 -7.7297
8 0 20 0.7844 -1.1335
8 0 26 4.5319 0.1076
8 0 32 5.2613 1.1603
8 0 38 -13.1363 -0.4373
8 0 44 15.1900 -0.0820
8 1 -47 0.7666 -0.0665
8 1 -44 1.2098 0.1077
8 1 -41 7.6535 0.0134
8 1 -38 -8.0142 0.1772
8 1 -35 5.0111 0.2909
8 1 -32 -4.5042 0.2371
8 1 -29 -12.5897 -0.0274
8 1 -26 8.4583 -1.7649
8 1 -23 -0.3337 -0.1790
8 1 -20 19.4651 0.0134
8 1 -17 -20.7056 -0.0307
8 1 -14 85.3441 0.0070
8 1 -11 -19.0947 -0.9193
8 1 -8 64.0068 1.9684
8 1 -5 256.6192 2.7427
8 1 -2 -85.4799 -2.9944
8 1 1 230.0783 -3.6249
8 1 4 179.2969 0.1740
8 1 7 -210.1409 3.6088
8 1 10 0.7562 1.5069
8 1 13 -84.9615 -2.0389
8 1 16 -0.0482 0.9451
8 1 19 -5.8046 2.4609
8 1 22 0.3131 -1.3828
8 1 25 0.1911 -0.2836
8 1 28 -2.8779 0.1450
8 1 31 -3.9046 -0.0148
8 1 34 -11.4957 0.1135
8 1 37 9.3695 -0.2787
8 1 40 8.3526 0.3004
8 1 43 -12.0949 0.0479
8 1 46 -16.2465 -0.0509
8 2 -48 0.9649 0.0626
8 2 -45 13.6088 -0.0020
8 2 -42 6.0092 -0.0959
8 2 -39 -4.0145 0.1310
8 2 -36 4.4263 -0.4093
8 2 -33 -9.0532 0.1530
8 2 -30 7.2951 0.0733
8 2 -27 -12.5713 -0.7204
8 2 -24 -6.9715 0.6927
8 2 -21 -8.0032 0.2013
8 2 -18 14.0414 2.1625
8 2 -15 -57.9310 0.0007
8 2 -12 -1.7176 -1.2446
8 2 -9 -138.2034 2.4065
8 2 -6 -89.4760 -0.8502
8 2 -3 106.1558 -1.7141
8 2 0 -15.9799 -0.7791
8 2 3 -69.9844 -0.6201
8 2 6 -43.6628 1.6646
8 2 9 84.3945 -1.9012
8 2 12 -13.4506 2.2223
8 2 15 37.3084 0.9984
8 2 18 7.1075 -0.7935
8 2 21 14.8419 0.2796
8 2 24 -5.2296 -1.0689
8 2 27 4.5816 0.2745
8 2 30 10.4226 -0.6754
8 2 33 -4.8789 -0.2603
8 2 36 -4.0946 0.2739
8 2 39 -7.0808 -0.0476
8 2 42 -1.4990 0.1937
8 2 45 -29.3853 0.0345
8 2 48 -4.0065 0.0296
8 3 -46 14.5466 0.0539
8 3 -43 14.0158 -0.1730
8 3 -40 -5.9360 -0.0723
8 3 -37 -6.1300 0.1198
8 3 -34 -4.9668 -0.1330
8 3 -31 0.3957 0.0491
8 3 -28 -23.5922 -0.5304
8 3 -25 -0.9527 0.2780
8 3 -22 -20.8318 0.5122
8 3 -19 -5.8111 -1.3447
8 3 -16 -21.2455 0.8502
8 3 -13 62.2729 -0.0983
8 3 -10 20.9591 0.4667
8 3 -7 -9.1183 0.4962
8 3 -4 -164.8360 -4.1869
8 3 -1 -193.2952 2.8753
8 3 2 -494.5405 1.2905
8 3 5 54.2282 -1.9007
8 3 8 113.2532 0.1216
8 3 11 -42.7848 -1.5791
8 3 14 1.0985 1.7417
8 3 17 3.3997 0.0754
8 3 20 27.8893 -1.1868
8 3 23 14.5589 0.6126
8 3 26 6.5589 -0.3179
8 3 29 -3.0489 0.2819
8 3 32 5.1408 -0.0923
8 3 35 16.0244 -0.2534
8 3 38 -0.8672 -0.0145
8 3 41 -7.7135 0.0153
8 3 44 -0.3063 0.0978
8 3 47 4.3384 -0.0095
8 4 -47 -5.3725 0.0030
8 4 -44 2.8405 -0.0185
8 4 -41 0.3977 -0.0235
8 4 -38 9.8897 0.0215
8 4 -35 10.7596 0.3501
8 4 -32 -0.2021 0.1154
8 4 -29 -5.4297 -0.8022
8 4 -26 -12.9064 -0.1958
8 4 -23 10.8973 0.6804
8 4 -20 37.7324 0.0625
8 4 -17 15.5896 -0.1979
8 4 -14 34.6954 0.1957
8 4 -11 63.6816 2.2093
8 4 -8 -4.8765 0.4500
8 4 -5 8.0551 -4.0090
8 4 -2 117.2335 0.6932
8 4 1 201.1698 1.2169
8 4 4 20.2040 0.3067
8 4 7 -10.7567 -1.2183
8 4 10 44.1198 -1.9389
8 4 13 32.6856 2.3112
8 4 16 40.1190 -0.2453
8 4 19 8.0571 -1.5434
8 4 22 -11.9779 -0.0904
8 4 25 -3.3369 0.5088
8 4 28 2.2568 0.8759
8 4 31 -7.7485 -0.1382
8 4 34 3.0031 -0.1744
8 4 37 -1.7141 0.0964
8 4 40 6.5844 -0.0599
8 4 43 -9.9348 -0.0785
8 4 46 -10.3030 -0.0452
8 5 -48 6.5195 -0.0555
8 5 -45 0.0462 -0.0010
8 5 -42 0.1377 -0.2369
8 5 -39 7.8085 -0.1272
8 5 -36 -0.4916 0.1377
8 5 -33 -0.2602 0.2537
8 5 -30 1.4089 0.1725
8 5 -27 -11.7167 0.3659
8 5 -24 -5.6274 0.8783
8 5 -21 -31.2693 -0.5627
8 5 -18 -8.5757 -0.7780
8 5 -15 -29.6633 0.1746
8 5 -12 127.5372 -1.2799
8 5 -9 83.2343 -0.1239
8 5 -6 7.1244 0.1003
8 5 -3 102.8523 1.7262
8 5 0 -131.5469 2.9735
8 5 3 -19.5971 -0.9657
8 5 6 -101.0314 -0.1793
8 5 9 140.4885 -0.1960
8 5 12 37.1508 -0.7247
8 5 15 7.3998 -0.9031
8 5 18 -31.2142 -1.4625
8 5 21 16.6444 0.5159
8 5 24 -17.9408 1.0817
8 5 27 -6.6938 0.1501
8 5 30 4.6064 0.1104
8 5 33 13.0569 0.0033
8 5 36 1.0697 0.0102
8 5 39 10.6043 -0.0821
8 5 42 -11.0055 -0.0401
8 5 45 4.6741 -0.1514
8 5 48 -6.4130 -0.0496
8 6 -46 -5.1698 0.1135
8 6 -43 1.1929 -0.0304
8 6 -40 -5.6451 -0.1435
8 6 -37 8.7789 0.0528
8 6 -34 -2.8242 0.1650
8 6 -31 2.9310 0.3123
8 6 -28 0.5888 -0.4844
8 6 -25 -10.4124 0.1269
8 6 -22 -5.3004 0.2637
8 6 -19 -1.2788 -0.8264
8 6 -16 19.2185 0.3771
8 6 -13 45.6995 -0.1312
8 6 -10 69.8635 0.2937
8 6 -7 0.9379 1.2870
8 6 -4 -49.2583 0.2395
8 6 -1 -103.2730 -0.4818
8 6 2 -281.1910 -1.0716
8 6 5 21.1389 0.3016
8 6 8 -151.6915 -0.1677
8 6 11 -45.7508 -1.2075
8 6 14 -16.6454 0.0470
8 6 17 -35.4733 0.4941
8 6 20 -7.9079 0.3756
8 6 23 -4.1035 -0.1147
8 6 26 2.9385 -0.0697
8 6 29 1.8084 -0.0648
8 6 32 -3.2890 -0.0427
8 6 35 1.9203 0.2687
8 6 38 9.2364 0.0594
8 6 41 5.4990 -0.0557
8 6 44 -4.2867 0.0288
8 6 47 8.9651 -0.0406
8 7 -47 22.5756 0.0044
8 7 -44 4.9403 0.0219
8 7 -41 16.4509 0.0693
8 7 -38 -8.4239 -0.2573
8 7 -35 3.3668 -0.1288
8 7 -32 2.9184 0.2027
8 7 -29 -3.3125 -0.1725
8 7 -26 4.0240 -0.0059
8 7 -23 2.7417 0.0629
8 7 -20 3.9270 0.6599
8 7 -17 36.7880 0.6391
8 7 -14 -4.7244 0.7133
8 7 -11 103.6139 -0.5652
8 7 -8 -73.6454 -1.0585
8 7 -5 28.5296 -0.5008
8 7 -2 -199.3246 -0.0631
8 7 1 -239.6019 -0.8643
8 7 4 116.8119 -0.0444
8 7 7 31.3870 1.3417
8 7 10 -31.9889 1.4863
8 7 13 -8.9363 -0.3296
8 7 16 -19.2310 -0.6975
8 7 19 -2.0298 -0.2813
8 7 22 -4.7089 -0.6177
8 7 25 0.6656 -0.8054
8 7 28 3.6525 -0.2777
8 7 31 0.3468 0.4554
8 7 34 -1.3664 0.5869
8 7 37 -5.1162 -0.1045
8 7 40 12.1543 -0.0783
8 7 43 -1.4877 0.0610
8 7 46 5.9649 0.0126
8 8 0 -184.1322 -0.7868
8 8 3 -29.6427 1.8403
8 8 6 198.2010 1.3917
8 8 9 -70.4513 -2.6252
8 8 12 37.6808 -0.0630
8 8 15 -14.1388 1.4688
8 8 18 -6.0507 -0.1327
8 8 21 10.3985 -0.4395
8 8 24 13.5954 -1.1186
8 8 27 -13.1431 0.7411
8 8 30 -1.5468 0.4675
8 8 33 -0.3623 -0.6368
8 8 36 -7.3509 0.1506
8 8 39 2.1169 0.0527
8 8 42 9.5382 0.1637
8 8 45 -0.3937 0.0336
9 0 -48 12.0322 -0.1920
9 0 -42 7.9862 0.0544
9 0 -36 0.6190 -0.1421
9 0 -30 4.3686 3.6578
9 0 -24 27.8466 -4.0368
9 0 -18 6.4240 -4.3457
9 0 -12 73.2955 -5.6528
9 0 -6 -62.8380 17.8250
9 0 0 -164.0674 2.7462
9 0 6 -147.8212 -7.6022
9 0 12 -2.0299 -12.9171
9 0 18 -36.5985 6.9881
9 0 24 10.2858 3.0505
9 0 30 -18.1331 0.8524
9 0 36 0.9986 -1.5332
9 0 42 12.4350 0.1904
9 0 48 16.2643 0.0541
9 1 -46 23.7608 0.0561
9 1 -43 6.3168 0.0469
9 1 -40 -8.3376 -0.0155
9 1 -37 -9.5726 0.1398
9 1 -34 -5.9956 -0.0631
9 1 -31 -4.6647 0.1431
9 1 -28 -0.4361 0.9236
9 1 -25 6.8435 -0.7699
9 1 -22 19.1505 -0.0861
9 1 -19 -0.8724 0.4304
9 1 -16 55.6919 -1.0130
9 1 -13 -74.8605 1.1699
9 1 -10 38.3913 -1.2661
9 1 -7 -73.7833 1.5684
9 1 -4 -66.5309 3.7610
9 1 -1 -13.3772 -4.8439
9 1 2 -191.1352 1.4414
9 1 5 2.0871 2.2857
9 1 8 -129.0537 -0.8726
9 1 11 -50.0991 0.7823
9 1 14 -22.6769 -2.2802
9 1 17 7.8263 1.7134
9 1 20 0.6857 0.5409
9 1 23 -15.0635 -1.1534
9 1 26 0.0197 1.0143
9 1 29 10.4036 0.0563
9 1 32 14.0160 -0.0152
9 1 35 -1.9630 0.1050
9 1 38 -2.9700 -0.1832
9 1 41 -2.3254 -0.0285
9 1 44 26.0250 -0.1437
9 1 47 20.5551 -0.0207
9 2 -47 0.5139 -0.0508
9 2 -44 1.0278 -0.0979
9 2 -41 16.0313 -0.0768
9 2 -38 3.0450 -0.1505
9 2 -35 -19.5401 -0.0234
9 2 -32 13.9045 0.4043
9 2 -29 3.4560 0.3906
9 2 -26 1.9256 0.8673
9 2 -23 22.6059 0.3355
9 2 -20 12.8002 -0.5390
9 2 -17 45.5277 -0.6740
9 2 -14 -21.3823 -1.6803
9 2 -11 -54.5969 -0.5790
9 2 -8 -83.2974 -1.0487
9 2 -5 63.7952 -0.7593
9 2 -2 -151.1570 2.5320
9 2 1 -159.3411 1.4165
9 2 4 -153.1508 1.2583
9 2 7 104.2727 0.3116
9 2 10 -14.6007 -0.1865
9 2 13 20.6128 0.4516
9 2 16 -4.2450 -1.9457
9 2 19 -5.4955 -0.7567
9 2 22 18.8240 0.3947
9 2 25 -4.1631 -0.4188
9 2 28 -3.6611 0.4857
9 2 31 1.7214 0.2018
9 2 34 4.2066 0.3178
9 2 37 -10.3992 0.0747
9 2 40 -1.5195 -0.1564
9 2 43 0.5028 0.0798
9 2 46 -11.0499 -0.0866
9 3 -48 1.7462 -0.0012
9 3 -45 15.1692 0.0693
9 3 -42 10.9268 0.0425
9 3 -39 -4.2707 -0.2414
9 3 -36 14.0858 0.2382
9 3 -33 6.4315 -0.1219
9 3 -30 -11.3802 -0.3735
9 3 -27 -1.5703 -0.5792
9 3 -24 0.0960 0.5915
9 3 -21 12.3265 0.7247
9 3 -18 29.6639 -1.0865
9 3 -15 21.2968 1.3833
9 3 -12 -98.0851 0.6280
9 3 -9 87.9040 0.2340
9 3 -6 -92.2536 -2.6025
9 3 -3 50.7007 0.0336
9 3 0 -133.7064 1.9588
9 3 3 110.4941 -1.9274
9 3 6 159.5972 0.5026
9 3 9 -61.2080 0.6504
9 3 12 -18.9706 -0.1395
9 3 15 -28.5222 1.8230
9 3 18 15.7027 -1.9205
9 3 21 7.4668 0.3866
9 3 24 -4.5121 -0.1816
9 3 27 -2.0500 -0.1312
9 3 30 -7.4246 0.6944
9 3 33 -8.5594 -0.5062
9 3 36 2.2461 0.2064
9 3 39 -1.1999 0.0740
9 3 42 -12.7089 -0.0634
9 3 45 -3.9240 0.0694
9 3 48 -0.3817 -0.0526
9 4 -46 3.6159 -0.0304
9 4 -43 -8.6847 0.1882
9 4 -40 -4.1090 -0.1276
9 4 -37 -3.1506 -0.1580
9 4 -34 3.8447 0.3865
9 4 -31 6.9738 0.0356
9 4 -28 5.6688 -0.2778
9 4 -25 -7.7535 -0.1818
9 4 -22 10.7763 0.4056
9 4 -19 8.4440 -0.3273
9 4 -16 21.9038 -1.7607
9 4 -13 62.0257 1.5734
9 4 -10 -10.5550 1.1970
9 4 -7 17.0378 -1.2224
9 4 -4 -18.4015 0.6257
9 4 -1 408.0884 1.2922
9 4 2 99.3796 0.3797
9 4 5 151.4780 -3.2705
9 4 8 -89.4020 -0.6674
9 4 11 17.9747 0.8353
9 4 14 -6.8565 0.0126
9 4 17 47.0974 -0.7306
9 4 20 -24.2027 0.1666
9 4 23 -3.2668 0.8793
9 4 26 -6.4699 -0.0007
9 4 29 0.4863 -0.3319
9 4 32 2.6447 -0.1421
9 4 35 8.0850 0.1522
9 4 38 0.3697 0.0114
9 4 41 -5.4187 -0.0777
9 4 44 2.3433 0.0331
9 4 47 -16.8690 0.0743
9 5 -47 0.7437 0.0235
9 5 -44 3.5798 0.0172
9 5 -41 4.0881 0.1124
9 5 -38 -3.0513 0.0158
9 5 -35 -0.0033 -0.1715
9 5 -32 1.6006 0.8070
9 5 -29 -15.0165 0.8242
9 5 -26 7.1598 -0.9774
9 5 -23 2.6245 -0.9668
9 5 -20 4.4869 -0.6777
9 5 -17 2.4180 -0.1060
9 5 -14 -37.5002 -1.3881
9 5 -11 -30.3649 -1.0022
9 5 -8 -58.2074 3.1934
9 5 -5 -2.0565 2.6388
9 5 -2 -38.7990 -0.5352
9 5 1 -101.9441 -1.1357
9 5 4 -157.4339 -2.1343
9 5 7 -0.2138 1.6057
9 5 10 26.5630 -0.9465
9 5 13 -36.2212 -1.4448
9 5 16 -69.8015 1.7775
9 5 19 -17.6648 1.0925
9 5 22 -17.9343 0.4156
9 5 25 7.2165 -0.6431
9 5 28 8.5697 -0.5447
9 5 31 -7.3286 0.1184
9 5 34 3.6538 -0.2845
9 5 37 4.2031 0.1600
9 5 40 13.1802 0.1979
9 5 43 -8.6244 0.0408
9 5 46 -4.3501 0.0283
9 6 -48 -0.0380 0.0962
9 6 -45 3.8749 -0.0060
9 6 -42 5.1445 0.0325
9 6 -39 -3.4202 -0.0209
9 6 -36 10.3861 -0.5242
9 6 -33 11.7876 -0.1584
9 6 -30 -0.2774 0.7366
9 6 -27 -4.0901 0.4353
9 6 -24 -18.2410 -0.2766
9 6 -21 16.0414 0.7909
9 6 -18 -7.3851 0.9710
9 6 -15 -7.1497 -0.4195
9 6 -12 16.1992 -2.5129
9 6 -9 -97.1845 0.0888
9 6 -6 -77.3032 1.3452
9 6 -3 -196.3055 -1.6044
9 6 0 -27.7152 -1.5040
9 6 3 -137.8351 2.6795
9 6 6 154.6661 1.3293
9 6 9 -34.8485 -0.3498
9 6 12 -19.3885 -0.9365
9 6 15 12.9074 0.5236
9 6 18 6.7012 0.9977
9 6 21 7.5152 -0.6730
9 6 24 -10.1587 -0.6463
9 6 27 7.3341 -0.1236
9 6 30 6.4016 0.2355
9 6 33 -4.4163 0.0978
9 6 36 -9.6840 -0.1766
9 6 39 -1.6494 -0.0689
9 6 42 -3.1678 0.0190
9 6 45 -5.3920 0.1771
9 6 48 -18.7074 -0.0002
9 7 -46 4.4666 -0.0276
9 7 -43 -8.5660 -0.0217
9 7 -40 9.8301 0.0774
9 7 -37 8.0271 -0.0311
9 7 -34 -3.3969 -0.5351
9 7 -31 -3.9481 -0.1392
9 7 -28 -6.7120 0.9879
9 7 -25 6.4339 -0.2504
9 7 -22 1.7611 -0.9156
9 7 -19 4.5016 0.1461
9 7 -16 -20.9977 1.4115
9 7 -13 44.6987 -0.0755
9 7 -10 17.7663 -3.0423
9 7 -7 8.2693 0.1907
9 7 -4 32.2523 2.3509
9 7 -1 -56.1819 -0.1629
9 7 2 19.1972 -1.4421
9 7 5 -122.0495 0.2072
9 7 8 5.7353 2.2277
9 7 11 -15.7746 -1.1794
9 7 14 42.4377 -1.8116
9 7 17 20.0330 0.3981
9 7 20 9.5165 0.7250
9 7 23 16.0109 -0.0455
9 7 26 1.9609 -0.5047
9 7 29 -4.5212 0.4626
9 7 32 -17.1280 0.2932
9 7 35 12.8420 -0.4967
9 7 38 3.2245 -0.1639
9 7 41 6.9397 -0.0590
9 7 44 10.0413 0.0753
9 7 47 -6.5485 0.1007
9 8 -47 -9.4631 0.0547
9 8 -44 -5.7990 0.1198
9 8 -41 -3.7168 -0.0459
9 8 -38 -8.2133 0.3186
9 8 -35 -2.9367 0.1870
9 8 -32 -8.9821 -0.6311
9 8 -29 -2.9203 -0.2879
9 8 -26 1.9784 -0.2831
9 8 -23 -1.0097 0.0828
9 8 -20 14.0159 -0.7836
9 8 -17 -28.0835 -0.4951
9 8 -14 -23.7111 1.9980
9 8 -11 4.5293 1.0059
9 8 -8 23.1170 -0.2192
9 8 -5 121.5004 -1.4662
9 8 -2 -21.0619 0.3533
9 8 1 123.7973 1.2481
9 8 4 -41.7136 -2.4789
9 8 7 -48.7593 -0.8034
9 8 10 1.6354 0.9736
9 8 13 18.6833 1.4657
9 8 16 43.3894 0.3294
9 8 19 6.0058 -0.8091
9 8 22 15.5719 0.7386
9 8 25 3.8741 0.5617
9 8 28 3.1594 -0.2082
9 8 31 -13.1244 -0.3971
9 8 34 0.5642 -0.2183
9 8 37 5.7259 0.1255
9 8 40 -8.3536 0.0031
9 8 43 2.0351 -0.0764
9 8 46 8.9965 -0.0320
9 9 0 -46.6254 2.6729
9 9 3 147.6015 -1.4904
9 9 6 72.2139 -0.1244
9 9 9 -11.0090 2.2485
9 9 12 -46.4138 -0.5090
9 9 15 -1.0971 -0.5499
9 9 18 -7.3673 -1.0861
9 9 21 -7.9695 0.1845
9 9 24 -9.1580 1.0415
9 9 27 4.0773 -0.5861
9 9 30 -0.5902 0.1169
9 9 33 7.1362 0.1731
9 9 36 -6.1433 0.0458
9 9 39 -2.6399 0.1474
9 9 42 -5.3710 -0.2426
9 9 45 14.4452 -0.1125
10 0 -44 10.1936 -0.0500
10 0 -38 -3.8493 0.0519
10 0 -32 14.7464 -0.4938
10 0 -26 3.3783 1.1072
10 0 -20 -6.4425 -0.9821
10 0 -14 -86.0855 -0.1493
10 0 -8 -37.6314 4.0464
10 0 -2 19.3363 -0.4216
10 0 4 -20.4504 0.2981
10 0 10 -16.0914 -7.2647
10 0 16 -20.9171 5.6019
10 0 22 -10.5445 -0.1604
10 0 28 11.3139 0.1421
10 0 34 -1.0957 -1.2148
10 0 40 -6.6173 0.1972
10 0 46 -10.1429 -0.0013
10 1 -48 -8.2617 0.1095
10 1 -45 15.5573 -0.0488
10 1 -42 -2.0666 -0.0341
10 1 -39 -2.0573 0.2169
10 1 -36 6.8841 -0.0403
10 1 -33 3.2325 -0.3696
10 1 -30 -1.3903 -1.5672
10 1 -27 15.9214 1.4682
10 1 -24 -11.2034 1.3145
10 1 -21 13.0679 -0.5381
10 1 -18 -17.5227 0.5574
10 1 -15 -20.7482 -0.6110
10 1 -12 30.3965 1.8510
10 1 -9 -108.1485 -4.1301
10 1 -6 129.3623 -5.7065
10 1 -3 -268.2966 -0.1975
10 1 0 -179.4210 -0.8023
10 1 3 -251.2710 5.2293
10 1 6 70.8119 2.0126
10 1 9 129.5059 0.6121
10 1 12 -3.8846 2.4442
10 1 15 7.0323 -2.2858
10 1 18 19.8021 -1.1048
10 1 21 -12.1060 -2.4976
10 1 24 5.7759 -0.0251
10 1 27 -4.6916 0.2842
10 1 30 18.4471 -0.1000
10 1 33 1.3690 0.8898
10 1 36 2.3550 0.2049
10 1 39 0.9860 -0.0782
10 1 42 11.1597 -0.2152
10 1 45 2.1765 -0.0360
10 1 48 5.6392 -0.0650
10 2 -46 4.3399 -0.0722
10 2 -43 -8.1207 -0.0173
10 2 -40 6.9076 0.1644
10 2 -37 3.9476 -0.0164
10 2 -34 -0.8076 0.4579
10 2 -31 -9.2018 -0.2935
10 2 -28 0.6549 -0.1679
10 2 -25 11.7682 0.8236
10 2 -22 20.2682 -0.4541
10 2 -19 17.8835 0.0027
10 2 -16 -13.4789 -1.2285
10 2 -13 41.1469 -0.2798
10 2 -10 -87.6198 2.6618
10 2 -7 54.7893 -2.9968
10 2 -4 113.7437 0.6547
10 2 -1 273.3532 2.3521
10 2 2 279.4018 -0.1030
10 2 5 111.5589 1.6849
10 2 8 -74.4518 -1.0078
10 2 11 73.8173 0.8804
10 2 14 13.6587 0.4835
10 2 17 7.8842 -1.3456
10 2 20 -4.5801 0.8107
10 2 23 -1.5279 -0.5331
10 2 26 3.8507 0.2181
10 2 29 0.7048 0.2576
10 2 32 -2.3558 -0.3277
10 2 35 10.9034 0.0443
10 2 38 6.7612 0.1346
10 2 41 -1.2304 0.0501
10 2 44 19.9237 0.0070
10 2 47 -3.5212 0.0420
10 3 -47 -16.4803 0.0619
10 3 -44 11.6924 0.0079
10 3 -41 -10.1042 -0.0028
10 3 -38 1.1824 -0.0254
10 3 -35 -1.1672 -0.1643
10 3 -32 4.5466 -0.6093
10 3 -29 -6.1705 0.0093
10 3 -26 0.7738 0.3017
10 3 -23 -13.0217 0.3251
10 3 -20 19.1476 0.9546
10 3 -17 -6.5236 0.6551
10 3 -14 -15.9953 0.3276
10 3 -11 -25.7086 -0.7801
10 3 -8 -11.4653 -1.3615
10 3 -5 -79.8378 -0.2840
10 3 -2 124.1760 -0.8540
10 3 1 15.7447 0.0678
10 3 4 23.7803 0.7458
10 3 7 -63.3684 0.4722
10 3 10 -29.0328 1.5037
10 3 13 14.2969 1.0164
10 3 16 18.2827 -0.4352
10 3 19 8.0516 0.1875
10 3 22 -12.3839 0.3754
10 3 25 5.2387 -0.2989
10 3 28 2.6276 -0.3153
10 3 31 5.4892 -0.2887
10 3 34 4.5856 0.0406
10 3 37 13.7055 -0.0454
10 3 40 -2.2199 -0.1585
10 3 43 13.4001 0.0672
10 3 46 4.0625 0.0830
10 4 -48 0.8321 -0.0022
10 4 -45 -6.9679 0.0659
10 4 -42 -5.7907 0.0390
10 4 -39 1.7630 0.0601
10 4 -36 -2.6723 -0.0995
10 4 -33 1.9285 -0.5875
10 4 -30 3.3774 -0.0480
10 4 -27 -1.5867 0.4319
10 4 -24 15.4373 -0.9886
10 4 -21 2.6508 -0.5633
10 4 -18 -11.2904 1.8066
10 4 -15 -10.7490 1.2006
10 4 -12 -23.6547 -0.2050
10 4 -9 100.3625 -2.8033
10 4 -6 -71.4002 2.3374
10 4 -3 97.8112 0.1972
10 4 0 -198.4979 -4.3759
10 4 3 -15.5394 -2.0883
10 4 6 64.7851 1.5689
10 4 9 -96.5041 2.3716
10 4 12 37.2410 -0.9902
10 4 15 -26.8221 -0.7408
10 4 18 -21.2647 1.5982
10 4 21 -10.2468 0.6602
10 4 24 4.9989 -0.7312
10 4 27 2.2109 -1.0659
10 4 30 -1.2762 0.0288
10 4 33 -1.0467 0.2240
10 4 36 0.0263 -0.0896
10 4 39 -8.8005 0.0184
10 4 42 3.3541 -0.0477
10 4 45 4.3878 0.0715
10 4 48 -3.0344 0.0111
10 5 -46 -6.1910 0.0500
10 5 -43 -4.0887 0.0283
10 5 -40 5.6186 0.2194
10 5 -37 4.8461 -0.0495
10 5 -34 9.2186 -0.1100
10 5 -31 -6.6180 -0.2179
10 5 -28 -2.9767 -0.3163
10 5 -25 8.6496 -0.2225
10 5 -22 0.5613 -0.1739
10 5 -19 -0.0990 1.3013
10 5 -16 -12.7497 0.9562
10 5 -13 6.5678 -0.8519
10 5 -10 -68.6535 0.3022
10 5 -7 -34.5686 0.9762
10 5 -4 15.7674 -1.4154
10 5 -1 -158.0516 -2.2135
10 5 2 53.0813 -0.0088
10 5 5 96.1251 1.5268
10 5 8 149.7056 1.0170
10 5 11 36.9218 -0.2595
10 5 14 -31.1422 0.1477
10 5 17 -23.0759 0.6561
10 5 20 -23.9541 -0.7463
10 5 23 5.3780 0.1183
10 5 26 2.6462 -0.0794
10 5 29 10.4274 0.0232
10 5 32 -4.5156 0.3286
10 5 35 13.3345 -0.0253
10 5 38 -7.8366 0.1552
10 5 41 7.6979 -0.1218
10 5 44 3.1692 -0.1571
10 5 47 -7.0038 0.0130
10 6 -47 -1.7553 -0.0068
10 6 -44 3.7189 -0.0697
10 6 -41 4.6193 -0.0588
10 6 -38 -12.9527 -0.2006
10 6 -35 -3.7875 0.0759
10 6 -32 1.2215 -0.1199
10 6 -29 -1.8557 0.1612
10 6 -26 8.3836 0.8813
10 6 -23 -3.3258 0.2277
10 6 -20 -33.5586 0.0992
10 6 -17 -18.9027 -0.9299
10 6 -14 -8.0323 -0.0935
10 6 -11 -20.0606 0.0340
10 6 -8 14.3583 -1.8119
10 6 -5 -76.8386 0.4887
10 6 -2 -43.6798 0.4778
10 6 1 28.5128 2.8273
10 6 4 72.3142 0.8492
10 6 7 18.8136 -2.5718
10 6 10 -5.8856 1.0462
10 6 13 -11.8987 -0.5729
10 6 16 12.7991 -0.9754
10 6 19 39.3263 -0.1068
10 6 22 -1.1036 -0.1455
10 6 25 0.7862 1.1787
10 6 28 -1.6857 0.2130
10 6 31 -0.0823 0.1550
10 6 34 8.4542 -0.0134
10 6 37 -5.2330 -0.3474
10 6 40 4.6270 0.0018
10 6 43 -2.8949 -0.0117
10 6 46 7.4034 -0.0523
10 7 -45 2.0131 0.0721
10 7 -42 -11.7035 0.1706
10 7 -39 -18.2147 -0.0426
10 7 -36 3.9717 0.0267
10 7 -33 1.0119 -0.1300
10 7 -30 1.8640 -0.3904
10 7 -27 -3.5548 -0.4946
10 7 -24 0.7402 0.0660
10 7 -21 -1.5068 0.4584
10 7 -18 -8.2231 -0.1554
10 7 -15 -9.0727 0.6315
10 7 -12 -1.2622 1.4337
10 7 -9 -42.2193 -0.2363
10 7 -6 62.8842 -0.7876
10 7 -3 76.9334 -0.7584
10 7 0 38.4281 0.1704
10 7 3 92.2501 -0.3112
10 7 6 -49.6967 -1.5070
10 7 9 -6.3976 0.1060
10 7 12 65.7774 0.7049
10 7 15 12.1767 0.1232
10 7 18 15.2031 0.1061
10 7 21 -6.1145 -0.5811
10 7 24 6.6595 0.3366
10 7 27 1.3802 0.3285
10 7 30 2.2635 -0.2984
10 7 33 -12.6860 0.0634
10 7 36 -11.3645 -0.0333
10 7 39 17.1641 0.0972
10 7 42 9.7088 0.0549
10 7 45 9.8603 -0.0570
10 8 -46 -13.5418 0.0387
10 8 -43 -9.2724 0.0752
10 8 -40 -3.3391 0.1331
10 8 -37 3.2555 -0.0987
10 8 -34 -1.4448 -0.1232
10 8 -31 1.6994 -0.0909
10 8 -28 -0.9111 -0.3957
10 8 -25 -6.4089 0.7230
10 8 -22 -5.8497 0.6864
10 8 -19 -2.4542 -0.5701
10 8 -16 -18.6102 -0.2815
10 8 -13 7.4719 1.1967
10 8 -10 19.9874 0.2889
10 8 -7 -38.1814 -2.1487
10 8 -4 43.2631 -1.0542
10 8 -1 67.3631 2.5631
10 8 2 -14.5098 0.6173
10 8 5 21.4580 -0.9477
10 8 8 -6.6258 0.0366
10 8 11 -28.8574 1.7874
10 8 14 6.1629 -0.1194
10 8 17 -33.3034 -1.3688
10 8 20 -12.1416 -0.1400
10 8 23 1.4684 0.2573
10 8 26 -8.5245 -0.0553
10 8 29 7.0130 -0.2757
10 8 32 -4.3029 0.3145
10 8 35 -6.5263 0.3893
10 8 38 3.8590 0.1271
10 8 41 14.5210 0.0812
10 8 44 -3.4098 -0.1192
10 8 47 -7.9835 -0.0978
10 9 -47 -11.1461 -0.0700
10 9 -44 -17.5131 -0.0748
10 9 -41 -7.3856 0.1188
10 9 -38 -4.2843 0.1318
10 9 -35 2.2790 -0.1503
10 9 -32 4.8285 0.3240
10 9 -29 -4.5792 0.3186
10 9 -26 3.1064 -0.0985
10 9 -23 -0.9686 -0.1847
10 9 -20 -14.8112 -0.1012
10 9 -17 5.8172 -0.4754
10 9 -14 -10.5910 -0.6296
10 9 -11 -26.0546 -0.1471
10 9 -8 24.3569 0.5752
10 9 -5 -26.8857 1.1651
10 9 -2 -3.0048 -0.7185
10 9 1 22.2935 0.2020
10 9 4 -108.3123 1.7576
10 9 7 -16.7627 -0.3210
10 9 10 -13.8386 -0.2244
10 9 13 27.2825 -0.3653
10 9 16 -44.7911 0.1141
10 9 19 -13.8411 0.2053
10 9 22 -12.0400 -0.3842
10 9 25 -9.5079 0.0455
10 9 28 1.2093 -0.1845
10 9 31 -9.8045 -0.0710
10 9 34 -11.1462 0.2789
10 9 37 -2.8179 0.0978
10 9 40 -14.0051 -0.1232
10 9 43 1.1365 -0.0326
10 9 46 2.7494 0.0266
10 10 0 70.1043 -2.4445
10 10 3 -86.7023 1.0575
10 10 6 28.0079 -0.4086
10 10 9 36.9249 0.3892
10 10 12 -11.0872 0.7550
10 10 15 24.6627 -0.3160
10 10 18 14.4282 1.2209
10 10 21 1.9185 -0.3181
10 10 24 12.8416 -0.4717
10 10 27 -2.4252 -0.2546
10 10 30 -5.1738 -0.2374
10 10 33 1.4491 0.1782
10 10 36 -6.7437 -0.1818
10 10 39 6.1440 -0.1495
10 10 42 -7.0622 0.2127
10 10 45 9.0993 0.1249
11 0 -46 1.6506 0.1749
11 0 -40 -0.0558 -0.0788
11 0 -34 -20.0619 0.6727
11 0 -28 -2.2362 -3.6737
11 0 -22 -2.7125 2.0217
11 0 -16 -19.7439 -1.0815
11 0 -10 -184.0795 10.9872
11 0 -4 72.5839 -14.7069
11 0 2 183.0258 3.1361
11 0 8 104.6170 -8.0175
11 0 14 55.4859 10.8826
11 0 20 22.1433 -4.1946
11 0 26 12.1233 0.4390
11 0 32 16.7970 -0.9222
11 0 38 -2.3760 0.5794
11 0 44 14.4805 0.0193
11 1 -47 -5.0832 -0.0125
11 1 -44 -21.4121 0.0062
11 1 -41 4.7966 -0.0919
11 1 -38 0.7976 0.0113
11 1 -35 -1.9868 0.2063
11 1 -32 5.4529 0.3310
11 1 -29 3.3170 -0.2363
11 1 -26 -8.9433 -0.4844
11 1 -23 7.1412 0.0712
11 1 -20 -22.8650 -0.0483
11 1 -17 -41.3346 -1.8356
11 1 -14 38.7282 -0.8441
11 1 -11 4.4516 0.5539
11 1 -8 133.5273 2.0509
11 1 -5 -2.2709 1.1970
11 1 -2 161.2420 -0.8791
11 1 1 97.7918 1.4556
11 1 4 -35.4600 -0.0717
11 1 7 68.5659 -3.8395
11 1 10 27.9232 -0.8174
11 1 13 14.4830 -2.4862
11 1 16 -1.4494 -0.1267
11 1 19 8.0642 0.6496
11 1 22 3.5361 0.3450
11 1 25 -2.3651 1.6421
11 1 28 -3.8548 -0.0526
11 1 31 0.0716 0.1690
11 1 34 -10.6260 -0.1162
11 1 37 -13.7569 -0.3688
11 1 40 -0.9957 -0.0149
11 1 43 1.3249 -0.0942
11 1 46 -2.4825 0.0549
11 2 -48 1.6395 -0.1092
11 2 -45 27.4187 -0.0005
11 2 -42 11.4435 0.1182
11 2 -39 -8.7767 0.0776
11 2 -36 -11.1174 0.0983
11 2 -33 7.4173 0.2915
11 2 -30 0.3641 0.0084
11 2 -27 -5.3243 -0.4943
11 2 -24 0.2083 -0.2930
11 2 -21 -15.2629 -0.1616
11 2 -18 14.2805 0.1930
11 2 -15 24.5352 -0.4237
11 2 -12 -46.0347 0.9837
11 2 -9 72.4204 2.2411
11 2 -6 51.4708 1.6798
11 2 -3 117.4042 0.8372
11 2 0 201.8265 -2.8224
11 2 3 -75.9548 -0.1904
11 2 6 120.6212 0.2975
11 2 9 -7.2560 -1.9811
11 2 12 -38.8325 -0.1279
11 2 15 17.1242 -0.4048
11 2 18 -5.3345 2.3358
11 2 21 -9.7432 0.6149
11 2 24 -1.0315 -0.1349
11 2 27 0.7680 0.7405
11 2 30 10.6321 -0.6501
11 2 33 -9.6180 -0.1068
11 2 36 6.9352 0.0186
11 2 39 2.7089 -0.0526
11 2 42 -1.0684 0.0066
11 2 45 1.4966 -0.0230
11 2 48 -7.3158 0.0758
11 3 -46 4.0937 -0.0532
11 3 -43 4.5605 -0.0367
11 3 -40 17.2085 -0.0491
11 3 -37 3.6046 0.2824
11 3 -34 -11.9195 -0.5448
11 3 -31 -1.2544 -0.0560
11 3 -28 1.9957 0.4628
11 3 -25 -0.5588 0.0629
11 3 -22 -19.2753 -0.3204
11 3 -19 -11.9570 -0.6576
11 3 -16 23.1174 1.9619
11 3 -13 -57.6457 0.6782
11 3 -10 108.9160 -3.2603
11 3 -7 29.2999 -0.0699
11 3 -4 148.8660 1.3249
11 3 -1 -74.8692 0.1576
11 3 2 140.4108 -2.8576
11 3 5 -198.1789 0.4438
11 3 8 -18.9612 3.5568
11 3 11 -52.9703 1.5417
11 3 14 -43.1378 -2.0058
11 3 17 -24.7469 -0.6165
11 3 20 16.4897 0.8791
11 3 23 -9.0791 -0.2241
11 3 26 -1.8425 -0.8827
11 3 29 -11.6432 -0.1219
11 3 32 14.7722 0.5555
11 3 35 4.9183 0.0042
11 3 38 7.6111 -0.2138
11 3 41 8.1859 0.0873
11 3 44 7.5248 -0.0113
11 3 47 -1.8964 -0.0930
11 4 -47 -1.9636 -0.0825
11 4 -44 -1.6384 0.0190
11 4 -41 -4.2042 0.0277
11 4 -38 -7.7140 0.1275
11 4 -35 -12.3968 -0.0480
11 4 -32 1.8233 -0.1653
11 4 -29 3.2941 -0.5119
11 4 -26 15.7002 -0.1750
11 4 -23 5.4255 -0.3338
11 4 -20 12.6917 0.3810
11 4 -17 1.8049 1.6656
11 4 -14 -2.9376 0.6650
11 4 -11 18.8511 -0.1414
11 4 -8 35.6865 0.4430
11 4 -5 248.5044 -0.2649
11 4 -2 -50.8666 -1.2946
11 4 1 137.4132 -3.3151
11 4 4 -63.3699 1.5457
11 4 7 67.1097 1.9600
11 4 10 -33.8612 -0.7292
11 4 13 7.2551 -0.1266
11 4 16 -3.9837 0.6630
11 4 19 -32.5696 -0.6164
11 4 22 -25.9331 -0.9612
11 4 25 -8.9149 -0.7862
11 4 28 9.7543 0.3391
11 4 31 -9.0329 0.3538
11 4 34 2.0008 0.1599
11 4 37 9.9124 0.1869
11 4 40 -8.2648 -0.0252
11 4 43 14.5552 -0.0906
11 4 46 -20.4885 -0.0348
11 5 -45 -0.2714 -0.1180
11 5 -42 -0.8892 0.0343
11 5 -39 6.8908 0.1479
11 5 -36 -12.9112 0.0984
11 5 -33 13.2657 0.2866
11 5 -30 1.9386 -0.5680
11 5 -27 5.7606 -0.1978
11 5 -24 -10.2827 0.6774
11 5 -21 2.4889 -0.8098
11 5 -18 19.1155 -1.0602
11 5 -15 0.5074 -0.0152
11 5 -12 30.6344 1.7328
11 5 -9 -103.4243 0.9199
11 5 -6 40.1686 -2.3808
11 5 -3 -17.8553 1.6738
11 5 0 87.3974 3.6936
11 5 3 16.9567 -1.4571
11 5 6 -38.9979 -2.0583
11 5 9 119.3891 0.2154
11 5 12 -16.9928 1.1815
11 5 15 35.1610 -0.1438
11 5 18 -4.3062 -1.5344
11 5 21 5.3126 0.3037
11 5 24 8.7507 1.1066
11 5 27 -1.9963 -0.1917
11 5 30 -7.0509 -0.1725
11 5 33 9.0901 0.0736
11 5 36 -2.9519 0.0830
11 5 39 5.7194 0.0606
11 5 42 -2.9496 -0.0677
11 5 45 -4.4575 -0.0300
11 6 -46 4.0459 -0.0763
11 6 -43 -6.4624 0.0044
11 6 -40 10.2116 -0.0565
11 6 -37 -10.1289 0.2566
11 6 -34 -9.2349 0.3990
11 6 -31 9.6280 0.3760
11 6 -28 4.4504 -0.1971
11 6 -25 2.4937 -0.6414
11 6 -22 2.1523 -0.1770
11 6 -19 -11.8792 -1.0342
11 6 -16 17.5053 -1.1556
11 6 -13 37.7725 0.7982
11 6 -10 13.0638 1.7899
11 6 -7 163.4169 0.5091
11 6 -4 -47.2599 0.1889
11 6 -1 117.5291 0.8787
11 6 2 24.5591 0.6031
11 6 5 17.5754 -2.8675
11 6 8 -78.6500 -2.2532
11 6 11 -30.4624 1.2345
11 6 14 -33.4221 0.5506
11 6 17 17.1864 0.5687
11 6 20 11.6260 -0.3214
11 6 23 5.6963 0.0729
11 6 26 -2.1259 0.7955
11 6 29 -1.1700 -0.7518
11 6 32 -8.9908 -0.5188
11 6 35 -0.6025 -0.0833
11 6 38 8.0547 0.0378
11 6 41 -15.3933 0.2978
11 6 44 -3.6541 -0.0370
11 6 47 -0.5509 0.0501
11 7 -47 -5.6445 -0.0501
11 7 -44 8.5648 -0.0010
11 7 -41 -3.6113 -0.0201
11 7 -38 3.2164 0.0307
11 7 -35 3.8653 -0.1825
11 7 -32 12.5311 0.0638
11 7 -29 -3.3184 0.0617
11 7 -26 -4.9322 0.0856
11 7 -23 -11.2011 0.6361
11 7 -20 8.1330 0.3997
11 7 -17 17.9336 0.1983
11 7 -14 1.9792 -0.9720
11 7 -11 22.5932 0.5930
11 7 -8 63.8851 0.1194
11 7 -5 -27.2716 -1.7101
11 7 -2 43.3015 0.3200
11 7 1 21.6158 0.0551
11 7 4 57.0617 1.1417
11 7 7 -53.2934 -0.9837
11 7 10 15.0168 -0.6932
11 7 13 -15.4149 1.4100
11 7 16 -6.9656 -0.2937
11 7 19 -11.0040 -0.3032
11 7 22 -24.7785 -0.4354
11 7 25 10.8044 0.0354
11 7 28 -1.6342 0.0207
11 7 31 -9.1569 -0.4829
11 7 34 0.6690 0.1779
11 7 37 -2.5780 0.0691
11 7 40 -8.2056 0.1201
11 7 43 5.6914 0.0475
11 7 46 3.7873 -0.0028
11 8 -45 8.9359 -0.0465
11 8 -42 -0.8551 -0.1166
11 8 -39 -3.2139 0.1755
11 8 -36 -0.4521 0.0874
11 8 -33 -4.4221 -0.1133
11 8 -30 -3.9295 -0.0284
11 8 -27 -5.7338 0.2165
11 8 -24 1.1405 0.0960
11 8 -21 5.9192 -0.8767
11 8 -18 -6.5392 -0.2372
11 8 -15 29.5126 -0.0798
11 8 -12 25.5169 -0.2064
11 8 -9 37.1788 0.4830
11 8 -6 2.2559 0.0601
11 8 -3 48.6179 1.8226
11 8 0 -10.0069 -0.5327
11 8 3 -5.4054 -0.1704
11 8 6 -88.0716 1.0506
11 8 9 72.6681 -1.7049
11 8 12 20.6869 -0.3251
11 8 15 -18.3901 -0.6160
11 8 18 -2.4818 0.1431
11 8 21 -4.9053 1.1321
11 8 24 -0.3721 -0.6635
11 8 27 -3.4248 0.3051
11 8 30 10.9483 -0.0182
11 8 33 -10.4417 -0.1216
11 8 36 0.1718 0.1251
11 8 39 -0.2086 -0.2164
11 8 42 -1.8692 -0.0228
11 8 45 -9.1608 0.0238
11 9 -46 18.9567 -0.0294
11 9 -43 0.1084 -0.0530
11 9 -40 -3.9268 0.1568
11 9 -37 -2.1075 0.3334
11 9 -34 -4.2931 0.1267
11 9 -31 -3.6407 -0.4870
11 9 -28 -5.7797 -0.0352
11 9 -25 -1.0743 -0.2571
11 9 -22 2.7272 -0.2802
11 9 -19 13.9857 -0.1052
11 9 -16 27.0661 0.0256
11 9 -13 -12.5464 0.4525
11 9 -10 13.1490 0.7372
11 9 -7 -73.6495 0.7903
11 9 -4 -21.3833 -1.2829
11 9 -1 -43.1915 -1.0020
11 9 2 -43.8560 0.5831
11 9 5 37.0993 0.4549
11 9 8 20.1449 -0.7343
11 9 11 13.9320 -0.6270
11 9 14 8.8927 0.3575
11 9 17 -1.8865 -0.0291
11 9 20 -8.4863 0.1604
11 9 23 -25.4930 0.1821
11 9 26 18.4516 -0.0487
11 9 29 5.4764 0.1389
11 9 32 -5.2329 0.0679
11 9 35 -16.8731 -0.0204
11 9 38 -3.0454 -0.4381
11 9 41 -4.6090 -0.1334
11 9 44 -0.9413 0.0678
11 10 -44 9.1146 -0.0089
11 10 -41 -2.2265 -0.1463
11 10 -38 8.2126 0.0061
11 10 -35 1.4123 0.5298
11 10 -32 0.2531 -0.3261
11 10 -29 -1.0430 0.1015
11 10 -26 5.3220 0.3638
11 10 -23 -7.7355 0.1653
11 10 -20 13.0095 0.4252
11 10 -17 -20.5388 -0.6093
11 10 -14 0.7080 0.0939
11 10 -11 23.5292 -0.1407
11 10 -8 24.4918 -0.2692
11 10 -5 -18.1536 0.0162
11 10 -2 20.6247 -1.0126
11 10 1 -105.9776 -0.1573
11 10 4 99.3303 0.5989
11 10 7 -19.1784 0.4034
11 10 10 14.0856 -0.4067
11 10 13 -22.2687 -0.2095
11 10 16 18.0830 0.5308
11 10 19 26.0861 -0.0825
11 10 22 -8.0116 -0.5179
11 10 25 16.0750 0.1165
11 10 28 -5.3984 0.3702
11 10 31 2.9026 0.0687
11 10 34 3.0970 -0.2591
11 10 37 -6.1968 -0.1064
11 10 40 -11.8743 0.0494
11 10 43 6.3368 0.0001
11 10 46 3.3211 -0.0157
11 11 0 -81.0848 -0.0040
11 11 3 14.3659 -0.2897
11 11 6 -23.3286 -0.2528
11 11 9 -28.7273 -1.5022
11 11 12 5.2380 1.0449
11 11 15 -12.8335 0.6349
11 11 18 13.3429 -0.5615
11 11 21 -8.3728 -0.0807
11 11 24 8.8266 0.2236
11 11 27 -5.1773 0.6545
11 11 30 -0.3116 -0.3358
11 11 33 7.0405 -0.2899
11 11 36 10.7116 0.3274
11 11 39 12.2806 0.1100
11 11 42 3.8939 -0.0631
11 11 45 16.9727 -0.1518
12 0 -48 -10.4690 -0.0646
12 0 -42 -14.2447 0.0489
12 0 -36 5.3927 -0.5410
12 0 -30 -1.5828 2.7077
12 0 -24 5.3179 -2.3412
12 0 -18 24.6858 -1.7006
12 0 -12 14.6014 -4.2965
12 0 -6 -90.1504 8.8863
12 0 0 1.5694 6.6574
12 0 6 -205.5844 -9.4274
12 0 12 40.0379 -2.1669
12 0 18 -20.7579 -2.1101
12 0 24 -10.4722 3.2258
12 0 30 -16.8357 -0.4748
12 0 36 -9.9129 -0.4666
12 0 42 2.4061 0.0607
12 0 48 -5.1651 0.0413
12 1 -46 -3.2755 -0.0660
12 1 -43 -16.3914 0.1090
12 1 -40 8.2618 0.0197
12 1 -37 -13.0022 -0.2531
12 1 -34 1.7862 -0.5032
12 1 -31 0.3088 0.4912
12 1 -28 1.4092 2.0216
12 1 -25 -18.6765 -1.8032
12 1 -22 7.6881 -0.4606
12 1 -19 1.1443 1.8489
12 1 -16 -12.4497 0.0122
12 1 -13 -29.4980 -2.0777
12 1 -10 -8.8505 -5.8768
12 1 -7 -79.8268 6.0080
12 1 -4 26.3048 6.4010
12 1 -1 -208.9799 -5.2417
12 1 2 66.7537 0.8463
12 1 5 111.9843 -1.1933
12 1 8 20.2247 1.6332
12 1 11 -67.1239 -3.2076
12 1 14 -10.3041 -5.1093
12 1 17 18.3525 3.2631
12 1 20 -18.0520 0.8659
12 1 23 -16.4836 -0.0694
12 1 26 -3.4836 0.4066
12 1 29 0.7818 -0.2349
12 1 32 8.7548 0.4767
12 1 35 -4.8103 -0.1039
12 1 38 -1.5568 -0.2227
12 1 41 -4.1733 0.0946
12 1 44 9.9322 -0.0227
12 1 47 12.2456 -0.0101
12 2 -47 -8.1964 -0.0205
12 2 -44 19.3636 -0.0176
12 2 -41 -2.3687 0.0349
12 2 -38 -6.4992 0.1152
12 2 -35 -2.4613 -0.1419
12 2 -32 -2.9290 -0.3813
12 2 -29 -4.2184 0.2394
12 2 -26 4.8769 0.5256
12 2 -23 -4.8288 0.3384
12 2 -20 -1.1348 0.0272
12 2 -17 18.0310 -0.1787
12 2 -14 7.4399 0.6590
12 2 -11 59.2437 -0.2537
12 2 -8 72.4162 -2.6962
12 2 -5 -127.7559 0.4747
12 2 -2 -45.2936 -0.3927
12 2 1 -99.4453 0.8112
12 2 4 -34.2261 1.3721
12 2 7 -45.2876 -0.2959
12 2 10 -74.0611 1.0862
12 2 13 -29.9248 0.3564
12 2 16 10.9845 -0.8625
12 2 19 8.4474 0.4545
12 2 22 0.5045 -1.3695
12 2 25 3.3501 0.0570
12 2 28 -5.2286 -0.1911
12 2 31 -6.4538 -0.2182
12 2 34 11.5718 0.5401
12 2 37 11.0843 -0.0070
12 2 40 2.3169 0.1769
12 2 43 3.5882 0.1099
12 2 46 5.2236 -0.0364
12 3 -45 0.4919 -0.0248
12 3 -42 7.5015 -0.1733
12 3 -39 -8.4353 0.1858
12 3 -36 -7.9158 0.1788
12 3 -33 4.8501 0.3608
12 3 -30 1.2739 0.5877
12 3 -27 6.5398 -0.3197
12 3 -24 17.7397 0.3160
12 3 -21 9.5888 0.1731
12 3 -18 -4.4716 -1.2038
12 3 -15 -7.9182 -0.4156
12 3 -12 11.9157 -2.2355
12 3 -9 42.4449 1.1836
12 3 -6 124.8942 0.8159
12 3 -3 135.1467 -0.0907
12 3 0 169.3238 1.8308
12 3 3 72.6918 0.6126
12 3 6 -69.8905 1.7294
12 3 9 23.8550 -0.2535
12 3 12 36.6805 -1.8937
12 3 15 -32.0898 -0.4468
12 3 18 15.9248 0.0382
12 3 21 -15.5777 -0.2467
12 3 24 0.6577 -0.6714
12 3 27 0.5941 0.5638
12 3 30 1.4524 0.6080
12 3 33 0.1744 -0.0138
12 3 36 -2.0860 -0.1726
12 3 39 0.7210 0.0560
12 3 42 -9.2944 0.1360
12 3 45 -3.9509 -0.0832
12 4 -46 8.1982 0.0571
12 4 -43 2.7988 -0.1912
12 4 -40 -7.0354 -0.1194
12 4 -37 -15.6350 -0.1144
12 4 -34 -6.4104 0.2502
12 4 -31 5.3808 0.1565
12 4 -28 -1.3178 -0.1380
12 4 -25 5.7206 0.4645
12 4 -22 -5.3783 1.1532
12 4 -19 15.9758 0.2553
12 4 -16 20.7401 -1.9514
12 4 -13 16.9604 -1.4499
12 4 -10 -14.5969 1.8010
12 4 -7 -28.0959 0.3366
12 4 -4 -107.8684 -2.1534
12 4 -1 -88.8681 0.4137
12 4 2 -170.3191 3.7318
12 4 5 32.5828 1.2502
12 4 8 84.6443 -2.9905
12 4 11 50.9610 -1.3501
12 4 14 13.2861 2.1588
12 4 17 22.5626 -0.6485
12 4 20 13.9036 -0.5324
12 4 23 -1.2197 -0.1384
12 4 26 0.5473 0.5229
12 4 29 -0.2615 0.4222
12 4 32 -6.4879 -0.4420
12 4 35 -5.4280 0.0646
12 4 38 -5.0041 -0.0979
12 4 41 -12.8220 -0.0268
12 4 44 1.7399 0.1313
12 4 47 2.6520 -0.0175
12 5 -47 0.6245 0.0288
12 5 -44 9.4749 0.0038
12 5 -41 0.4786 -0.1155
12 5 -38 13.5300 -0.0380
12 5 -35 17.3530 0.2794
12 5 -32 3.4564 0.0959
12 5 -29 5.9010 0.0998
12 5 -26 10.1041 -0.1707
12 5 -23 6.3899 -0.2154
12 5 -20 10.6629 -0.7463
12 5 -17 22.6578 -0.3313
12 5 -14 16.8827 0.2123
12 5 -11 -8.3894 -0.4875
12 5 -8 -6.7791 0.3237
12 5 -5 -45.1157 0.7717
12 5 -2 -40.4961 1.5734
12 5 1 -67.1571 -0.7265
12 5 4 -43.9016 -2.9360
12 5 7 32.5254 1.2922
12 5 10 -29.7382 -0.0851
12 5 13 11.9361 -0.6697
12 5 16 -21.7232 0.1337
12 5 19 12.4750 0.8967
12 5 22 -10.5703 1.2788
12 5 25 3.6081 -0.2968
12 5 28 -8.3605 -0.3194
12 5 31 -3.8391 -0.0725
12 5 34 2.2432 -0.2674
12 5 37 -12.4113 -0.0187
12 5 40 6.1068 -0.0218
12 5 43 -12.9741 0.0736
12 5 46 0.6668 0.0678
12 6 -45 12.6468 0.0939
12 6 -42 6.4779 -0.1289
12 6 -39 -11.4785 -0.0903
12 6 -36 1.6754 0.2439
12 6 -33 5.8146 -0.0364
12 6 -30 -0.1196 0.0954
12 6 -27 -2.2733 -0.3543
12 6 -24 6.6734 -0.1259
12 6 -21 5.7221 0.4676
12 6 -18 6.3998 0.0232
12 6 -15 12.2331 0.1080
12 6 -12 -70.5545 -0.0369
12 6 -9 26.0582 0.1179
12 6 -6 17.5281 0.3341
12 6 -3 68.7238 -1.3840
12 6 0 180.8323 -0.6375
12 6 3 -63.9276 -0.0362
12 6 6 -47.5558 -0.1686
12 6 9 -127.3281 0.8006
12 6 12 -56.1238 0.5268
12 6 15 14.4067 0.1798
12 6 18 6.4124 -0.0423
12 6 21 -5.8842 -0.1716
12 6 24 -12.1616 0.4562
12 6 27 -4.9954 -0.0575
12 6 30 8.3167 -0.1777
12 6 33 18.9097 -0.0608
12 6 36 28.4585 0.0744
12 6 39 1.8489 0.0540
12 6 42 4.9163 -0.0852
12 6 45 0.0784 -0.0577
12 7 -46 11.4875 0.0110
12 7 -43 -2.9804 -0.0714
12 7 -40 -12.3961 -0.2682
12 7 -37 2.8691 -0.1031
12 7 -34 2.8054 0.2560
12 7 -31 3.2629 0.1086
12 7 -28 -2.6563 0.2760
12 7 -25 3.4581 0.6765
12 7 -22 -8.8367 -0.2434
12 7 -19 -7.3852 -0.4328
12 7 -16 18.9185 -0.9579
12 7 -13 -16.4094 -0.5231
12 7 -10 14.6336 0.0907
12 7 -7 18.5101 -0.8958
12 7 -4 -44.2179 1.5181
12 7 -1 82.2127 0.7773
12 7 2 -93.6236 0.4640
12 7 5 -124.7345 -0.0426
12 7 8 13.3585 -0.6071
12 7 11 27.4874 0.0915
12 7 14 -18.1306 -0.1442
12 7 17 -5.3932 -0.7669
12 7 20 -13.1154 0.3033
12 7 23 -13.1486 0.0247
12 7 26 14.2518 0.3747
12 7 29 1.1299 0.1879
12 7 32 5.6355 -0.0445
12 7 35 -16.8533 0.0862
12 7 38 3.1769 -0.0234
12 7 41 -3.4077 -0.1139
12 7 44 15.6687 -0.0509
12 7 47 16.1996 -0.0059
12 8 -44 -3.3184 -0.0519
12 8 -41 -3.8181 0.0989
12 8 -38 -6.7589 -0.2688
12 8 -35 -3.1284 0.0264
12 8 -32 6.4878 0.1868
12 8 -29 -5.3886 -0.4755
12 8 -26 10.7097 -0.1348
12 8 -23 3.7883 -0.2938
12 8 -20 20.8565 0.1089
12 8 -17 -4.7447 0.5218
12 8 -14 4.4198 -0.8663
12 8 -11 -29.3035 0.0736
12 8 -8 -63.7029 1.1584
12 8 -5 12.6123 0.4862
12 8 -2 -1.0667 -0.5801
12 8 1 -67.5329 -0.9232
12 8 4 -54.1725 0.9270
12 8 7 40.2257 0.2169
12 8 10 46.4249 -1.7331
12 8 13 -13.1998 0.2709
12 8 16 -1.8655 0.1983
12 8 19 -9.9049 0.5411
12 8 22 -1.0580 -0.1345
12 8 25 3.0021 -0.4902
12 8 28 3.9438 0.6536
12 8 31 -6.6864 0.1009
12 8 34 -4.0652 0.1184
12 8 37 -3.4257 -0.0622
12 8 40 11.1351 -0.1670
12 8 43 10.5383 0.1463
12 8 46 -15.5804 -0.0655
12 9 -45 12.2947 -0.0206
12 9 -42 12.1425 0.0957
12 9 -39 -6.1319 -0.1877
12 9 -36 -2.3913 -0.1736
12 9 -33 -16.8239 0.1312
12 9 -30 -2.7954 0.2186
12 9 -27 7.6743 -0.4068
12 9 -24 -5.2054 0.0884
12 9 -21 9.8688 0.6482
12 9 -18 -2.0819 0.1322
12 9 -15 -1.6988 -0.4493
12 9 -12 7.5643 -1.0951
12 9 -9 -57.6599 0.5668
12 9 -6 23.6424 0.0496
12 9 -3 -41.2790 -1.5060
12 9 0 -2.0010 0.9601
12 9 3 -20.9217 0.5194
12 9 6 84.4612 1.4839
12 9 9 -24.6982 0.1393
12 9 12 -24.7593 -1.3354
12 9 15 4.3003 1.2352
12 9 18 -9.2602 -0.2871
12 9 21 18.7776 -0.3911
12 9 24 1.3146 -0.3669
12 9 27 6.0763 -0.0089
12 9 30 6.9949 0.8385
12 9 33 6.8019 -0.2141
12 9 36 4.3179 -0.1031
12 9 39 -3.4040 0.1703
12 9 42 -13.6890 0.0127
12 9 45 -15.0760 0.0447
12 10 -46 -0.9155 -0.0835
12 10 -43 11.8608 -0.0516
12 10 -40 -12.0232 -0.0543
12 10 -37 -5.0425 -0.0211
12 10 -34 -1.3860 -0.0339
12 10 -31 -1.2130 0.6096
12 10 -28 -2.5444 -0.1539
12 10 -25 -14.0363 -0.5042
12 10 -22 -5.6233 0.1974
12 10 -19 -4.2476 0.4375
12 10 -16 1.8448 -0.4881
12 10 -13 20.1415 -1.6658
12 10 -10 -22.6783 0.1860
12 10 -7 8.6426 1.8120
12 10 -4 14.6264 0.0100
12 10 -1 -0.3412 -1.2065
12 10 2 28.7087 -0.0971
12 10 5 -60.5176 1.1570
12 10 8 -45.9972 0.7931
12 10 11 17.1005 -1.1688
12 10 14 -2.9060 0.3782
12 10 17 2.8507 0.5201
12 10 20 6.3194 -0.7109
12 10 23 -3.0410 -0.0887
12 10 26 1.4480 -0.2608
12 10 29 4.7379 -0.0165
12 10 32 3.8218 -0.0847
12 10 35 6.4596 0.0804
12 10 38 9.7471 0.3645
12 10 41 10.3126 0.0516
12 10 44 -9.9176 0.0594
12 11 -44 -6.1357 -0.1627
12 11 -41 -8.6195 -0.0224
12 11 -38 9.3499 0.0627
12 11 -35 -8.0274 -0.4705
12 11 -32 -10.1393 0.0444
12 11 -29 1.8146 -0.2204
12 11 -26 7.6728 0.0917
12 11 -23 4.7188 0.2809
12 11 -20 -9.8347 -0.2915
12 11 -17 -14.6681 1.1246
12 11 -14 14.8984 -0.0804
12 11 -11 9.2242 -0.7843
12 11 -8 11.3092 -0.4324
12 11 -5 -27.8575 0.0560
12 11 -2 -38.5574 0.8889
12 11 1 14.3281 -0.9978
12 11 4 -13.7539 -0.6796
12 11 7 14.3896 1.1995
12 11 10 0.0146 0.8072
12 11 13 5.1587 -0.1643
12 11 16 19.4489 -0.5485
12 11 19 -20.2764 0.1199
12 11 22 -1.0832 0.5277
12 11 25 2.7889 -0.1407
12 11 28 6.3084 -0.4101
12 11 31 2.9229 -0.2325
12 11 34 -7.0281 0.1754
12 11 37 3.0510 0.3160
12 11 40 -1.5352 -0.0209
12 11 43 -7.5738 -0.0562
12 11 46 -9.3263 0.1003
12 12 0 -57.5068 0.6691
12 12 3 43.5359 -1.6094
12 12 6 -26.1678 0.6478
12 12 9 23.6645 0.6788
12 12 12 4.0170 -1.1502
12 12 15 -10.9753 -0.4907
12 12 18 -11.2360 0.1327
12 12 21 -6.5044 0.6870
12 12 24 -7.5405 -0.0645
12 12 27 16.5304 -0.3076
12 12 30 -3.2391 0.1915
12 12 33 11.5041 -0.0921
12 12 36 -21.4914 -0.1828
12 12 39 -22.0598 -0.0792
12 12 42 10.4652 -0.0929
12 12 45 4.3133 0.2034
13 0 -44 -5.9011 -0.0570
13 0 -38 -7.2615 0.1116
13 0 -32 3.4893 -1.0965
13 0 -26 12.0282 1.3119
13 0 -20 30.9790 -3.6765
13 0 -14 -2.0671 8.5624
13 0 -8 -45.8649 -6.3036
13 0 -2 -194.5697 8.4659
13 0 4 -183.9135 -14.1459
13 0 10 129.5561 9.2090
13 0 16 -0.7363 -0.0236
13 0 22 -3.3155 3.4123
13 0 28 2.4042 -2.3497
13 0 34 -2.3199 -0.2053
13 0 40 -5.9086 0.1472
13 0 46 6.1778 0.1107
13 1 -45 -19.5897 0.1146
13 1 -42 1.8841 -0.0797
13 1 -39 -6.3514 -0.1597
13 1 -36 -2.5483 0.1951
13 1 -33 1.3986 -0.8334
13 1 -30 3.0855 -0.9842
13 1 -27 7.7752 0.2362
13 1 -24 3.1519 0.3767
13 1 -21 -7.2952 0.1699
13 1 -18 12.2769 0.9371
13 1 -15 -14.8148 1.5229
13 1 -12 -39.0127 2.3219
13 1 -9 -19.7237 -2.8318
13 1 -6 -141.1627 -3.3646
13 1 -3 -30.5511 -2.2214
13 1 0 45.0248 -1.6225
13 1 3 -9.4306 0.6123
13 1 6 -4.9794 0.1955
13 1 9 -14.1875 0.8548
13 1 12 5.4414 2.5727
13 1 15 39.9335 2.2202
13 1 18 9.9558 0.3988
13 1 21 17.1911 -1.1446
13 1 24 -16.4250 -0.5815
13 1 27 -4.9741 -0.5800
13 1 30 5.5774 -0.0855
13 1 33 5.5491 -0.1277
13 1 36 -7.2690 0.0838
13 1 39 1.6657 0.0228
13 1 42 -3.1320 0.1130
13 1 45 2.1098 0.0307
13 2 -46 2.9900 0.0605
13 2 -43 -2.3507 0.0445
13 2 -40 8.1550 -0.0829
13 2 -37 0.8582 -0.0959
13 2 -34 5.0606 0.1398
13 2 -31 -3.0251 -0.1367
13 2 -28 -4.3679 -0.2158
13 2 -25 11.4162 0.6833
13 2 -22 -1.7463 -0.3279
13 2 -19 -27.2164 -0.6111
13 2 -16 40.3735 -0.4051
13 2 -13 17.7709 0.6152
13 2 -10 28.1420 0.7290
13 2 -7 48.4544 -2.5667
13 2 -4 12.4552 0.2994
13 2 -1 140.4726 1.8340
13 2 2 31.5976 1.0083
13 2 5 85.0407 0.4683
13 2 8 -99.6214 -2.8983
13 2 11 27.4707 0.3963
13 2 14 5.2265 -0.0852
13 2 17 -2.3541 -0.1329
13 2 20 -1.8490 -0.1647
13 2 23 3.8705 -0.4198
13 2 26 7.8266 0.8779
13 2 29 -5.9028 0.2859
13 2 32 -0.8372 -0.1835
13 2 35 -0.4575 -0.0393
13 2 38 6.8352 -0.1131
13 2 41 14.7106 0.0307
13 2 44 15.1704 0.0302
13 2 47 16.8113 -0.0138
13 3 -47 2.2672 0.0894
13 3 -44 -4.2795 0.0457
13 3 -41 13.8958 0.1112
13 3 -38 3.4295 -0.0585
13 3 -35 -10.0570 -0.0909
13 3 -32 -3.8237 0.3848
13 3 -29 0.1304 -0.0078
13 3 -26 1.9552 -0.6707
13 3 -23 -3.2771 -0.0913
13 3 -20 -0.0508 0.5741
13 3 -17 -6.1120 0.1184
13 3 -14 -4.8808 -1.7789
13 3 -11 17.3428 -0.0518
13 3 -8 -1.1691 2.8565
13 3 -5 74.6603 0.0697
13 3 -2 88.9406 -0.7222
13 3 1 -15.1553 0.3526
13 3 4 -31.1696 1.9380
13 3 7 -48.6644 -0.0402
13 3 10 65.2189 -3.3711
13 3 13 -33.6561 0.3544
13 3 16 13.1063 0.8392
13 3 19 -2.6131 0.0302
13 3 22 24.0630 0.3632
13 3 25 -1.2452 0.4611
13 3 28 15.1898 1.0087
13 3 31 1.0476 -0.2710
13 3 34 3.5935 -0.4905
13 3 37 5.9954 -0.0365
13 3 40 -5.8985 -0.1984
13 3 43 1.7466 -0.0375
13 3 46 -14.9803 -0.0088
13 4 -45 12.3388 -0.0393
13 4 -42 -13.4803 0.1095
13 4 -39 9.7667 -0.2986
13 4 -36 6.0148 -0.0885
13 4 -33 -10.1914 -0.1339
13 4 -30 13.2237 -0.0030
13 4 -27 -1.3858 0.6894
13 4 -24 13.6610 -0.2630
13 4 -21 -13.9292 0.6929
13 4 -18 6.3837 0.3319
13 4 -15 9.7243 -0.6347
13 4 -12 -3.0183 0.4660
13 4 -9 56.9309 -1.4325
13 4 -6 30.9530 -0.8202
13 4 -3 -74.1725 -0.3871
13 4 0 -169.5952 -0.3290
13 4 3 -14.8990 1.2064
13 4 6 38.2417 -0.5766
13 4 9 28.0559 0.0898
13 4 12 -51.3642 0.7674
13 4 15 -8.0731 -0.5837
13 4 18 -0.1145 -0.5375
13 4 21 -15.8374 0.2711
13 4 24 -0.7250 -0.3075
13 4 27 0.0887 0.0204
13 4 30 -6.1200 -0.0141
13 4 33 8.4325 -0.0448
13 4 36 -15.4463 0.0547
13 4 39 -10.5470 -0.1931
13 4 42 -10.4573 0.0646
13 4 45 -9.1534 -0.0052
13 5 -46 -7.6170 -0.0261
13 5 -43 6.2928 0.0817
13 5 -40 11.2892 0.0613
13 5 -37 16.1064 -0.0723
13 5 -34 6.4733 -0.2813
13 5 -31 -0.1944 -0.2856
13 5 -28 4.0979 -0.0867
13 5 -25 7.1532 -0.5116
13 5 -22 24.6353 -0.1657
13 5 -19 -36.3186 1.3825
13 5 -16 -0.0711 2.2618
13 5 -13 2.7481 -0.0098
13 5 -10 14.7506 -1.9248
13 5 -7 6.7913 0.8532
13 5 -4 -21.6607 -0.1146
13 5 -1 -10.2102 -2.5995
13 5 2 56.9330 -2.9167
13 5 5 29.5437 2.4470
13 5 8 -107.5046 3.3277
13 5 11 21.9219 -0.7253
13 5 14 2.0001 -0.2153
13 5 17 21.3023 0.5150
13 5 20 -25.6953 -0.0052
13 5 23 11.9366 -0.2711
13 5 26 2.3829 -1.1166
13 5 29 3.5303 0.3538
13 5 32 -4.8657 0.2650
13 5 35 0.6238 0.1790
13 5 38 -2.4392 0.1202
13 5 41 -2.7739 -0.1689
13 5 44 5.2092 0.0749
13 5 47 -2.5676 -0.0948
13 6 -47 5.0695 0.0784
13 6 -44 5.4703 0.0240
13 6 -41 4.7418 -0.0164
13 6 -38 -4.6420 0.1321
13 6 -35 4.8033 -0.1908
13 6 -32 11.9786 -0.1252
13 6 -29 0.3262 -0.1198
13 6 -26 0.7643 -0.0097
13 6 -23 -8.5275 0.1457
13 6 -20 -9.2260 0.0229
13 6 -17 -5.2644 0.0349
13 6 -14 4.5379 1.5919
13 6 -11 15.7699 -0.3129
13 6 -8 -57.5564 -1.4801
13 6 -5 -30.1942 0.4756
13 6 -2 18.5231 -0.4034
13 6 1 -200.7210 0.4678
13 6 4 30.0264 -0.6277
13 6 7 -55.2324 0.9614
13 6 10 13.9874 1.8874
13 6 13 -23.5725 -0.9385
13 6 16 -18.7127 -0.3498
13 6 19 -11.6504 -0.3544
13 6 22 -0.9331 -0.0747
13 6 25 5.9989 -0.1334
13 6 28 -1.4654 -0.3081
13 6 31 2.5688 0.4173
13 6 34 5.6157 0.0470
13 6 37 -12.1295 0.1513
13 6 40 12.4367 -0.0722
13 6 43 -10.7715 -0.1225
13 6 46 4.8486 0.0149
13 7 -45 10.5767 -0.0180
13 7 -42 17.1243 0.0105
13 7 -39 -4.4627 0.0531
13 7 -36 4.9759 -0.0418
13 7 -33 -5.5129 0.2978
13 7 -30 12.1518 0.2965
13 7 -27 -5.4693 0.2725
13 7 -24 -1.9717 -0.6119
13 7 -21 2.0156 -0.3294
13 7 -18 8.6624 -0.1157
13 7 -15 -18.0708 -0.0329
13 7 -12 64.3567 -0.0044
13 7 -9 -37.1851 -0.7550
13 7 -6 -68.2789 1.2661
13 7 -3 -3.7732 0.7824
13 7 0 -148.9394 -0.3700
13 7 3 68.6835 -0.1261
13 7 6 49.2538 -0.8379
13 7 9 8.4726 0.4444
13 7 12 56.3276 -0.2511
13 7 15 -11.2884 -0.3577
13 7 18 1.7693 0.4670
13 7 21 -0.8330 -0.5041
13 7 24 -8.1418 -0.0780
13 7 27 6.5002 -0.2336
13 7 30 7.7799 -0.1582
13 7 33 -15.3732 0.2029
13 7 36 5.9493 -0.0946
13 7 39 -7.0281 0.0017
13 7 42 -6.8416 0.0772
13 7 45 -14.3501 0.0382
13 8 -46 -7.6650 -0.0077
13 8 -43 -9.3148 0.0977
13 8 -40 10.3228 -0.0290
13 8 -37 -1.4727 -0.3130
13 8 -34 -0.8776 -0.2733
13 8 -31 1.0222 0.1010
13 8 -28 1.0804 0.3059
13 8 -25 1.2851 -0.0398
13 8 -22 5.3294 0.9239
13 8 -19 8.1172 1.0993
13 8 -16 -9.8024 0.0891
13 8 -13 -6.5138 -0.6103
13 8 -10 -2.8568 -0.3600
13 8 -7 -52.4872 -0.2565
13 8 -4 -36.8138 -1.4774
13 8 -1 -75.5132 -0.4879
13 8 2 -4.7742 1.3111
13 8 5 -10.0185 0.7688
13 8 8 15.8740 -0.5547
13 8 11 -17.3911 0.2306
13 8 14 -13.1351 0.7102
13 8 17 18.8967 0.3896
13 8 20 4.8374 -0.2812
13 8 23 7.5017 -0.6494
13 8 26 -14.4785 0.0147
13 8 29 5.5536 0.1214
13 8 32 -2.1132 -0.1783
13 8 35 9.5286 -0.0899
13 8 38 -2.0497 0.0079
13 8 41 -3.7806 0.1767
13 8 44 4.6075 0.0756
13 9 -44 -9.4495 0.1015
13 9 -41 1.6401 -0.1210
13 9 -38 2.3897 0.0762
13 9 -35 -1.9068 -0.2275
13 9 -32 1.4805 -0.0140
13 9 -29 2.9761 0.4292
13 9 -26 16.8945 -0.4792
13 9 -23 -3.2508 0.1286
13 9 -20 -6.0697 0.5062
13 9 -17 -0.1801 0.4195
13 9 -14 7.2519 -0.0101
13 9 -11 12.5218 -0.8945
13 9 -8 -5.0972 0.2660
13 9 -5 51.8795 -0.4670
13 9 -2 9.9847 -0.0473
13 9 1 53.5625 0.5392
13 9 4 -53.3855 -0.2459
13 9 7 4.6322 0.6436
13 9 10 -44.6866 -0.0279
13 9 13 32.3469 -0.2026
13 9 16 -3.2599 0.4812
13 9 19 18.8448 -0.7519
13 9 22 -2.4891 0.3156
13 9 25 -12.7754 -0.0820
13 9 28 2.8852 0.0298
13 9 31 -9.1499 -0.1391
13 9 34 12.2428 -0.4016
13 9 37 3.6398 0.2318
13 9 40 6.2319 0.0159
13 9 43 -23.1435 -0.0346
13 9 46 -5.6956 -0.0297
13 10 -45 2.1380 0.0764
13 10 -42 15.9196 -0.0697
13 10 -39 -4.2191 0.2230
13 10 -36 -3.4641 0.0594
13 10 -33 5.2799 -0.1888
13 10 -30 6.2129 -0.1150
13 10 -27 -9.3958 -0.0120
13 10 -24 -2.4336 -0.1907
13 10 -21 7.3819 0.0905
13 10 -18 -0.9747 0.1623
13 10 -15 12.8665 0.6940
13 10 -12 -11.0220 0.1911
13 10 -9 37.7904 -0.6375
13 10 -6 19.9387 0.0466
13 10 -3 13.0718 -0.8687
13 10 0 -22.3555 -0.3514
13 10 3 43.2980 0.0287
13 10 6 26.0190 -0.5438
13 10 9 -6.4860 1.1377
13 10 12 -3.4252 -0.0522
13 10 15 3.1576 -0.3908
13 10 18 -8.6936 -0.2512
13 10 21 -3.9266 -0.0526
13 10 24 14.1705 0.6554
13 10 27 16.1666 -0.5470
13 10 30 11.8500 -0.0413
13 10 33 3.3394 0.1254
13 10 36 -2.0409 -0.0356
13 10 39 13.3494 0.0225
13 10 42 -1.0228 -0.1124
13 10 45 6.3648 -0.0305
13 11 -43 -0.8887 -0.1275
13 11 -40 -5.4500 -0.1021
13 11 -37 -8.3643 -0.0464
13 11 -34 -0.8953 0.3835
13 11 -31 -10.9660 -0.1512
13 11 -28 -4.6487 0.2445
13 11 -25 -0.1360 0.5777
13 11 -22 -4.3758 -0.1437
13 11 -19 0.4424 -0.1778
13 11 -16 5.2559 0.2485
13 11 -13 -5.3868 0.3643
13 11 -10 3.8369 -1.0926
13 11 -7 -23.3986 -0.2400
13 11 -4 -24.0538 1.3571
13 11 -1 28.1750 0.3232
13 11 2 19.3566 -0.5952
13 11 5 2.8347 -0.7787
13 11 8 20.6781 0.5533
13 11 11 -4.5606 -0.2310
13 11 14 1.2348 -1.1322
13 11 17 -10.3803 0.5450
13 11 20 -10.2016 0.6267
13 11 23 -1.4248 0.5408
13 11 26 11.7780 0.1429
13 11 29 8.5241 -0.1461
13 11 32 -8.3769 0.2459
13 11 35 2.7554 -0.0986
13 11 38 11.3083 -0.1857
13 11 41 -4.1478 -0.2045
13 11 44 -8.1817 -0.0041
13 12 -44 -2.0550 0.1019
13 12 -41 -8.6906 -0.0628
13 12 -38 -15.9351 -0.1278
13 12 -35 7.2990 0.3313
13 12 -32 -8.9815 -0.0429
13 12 -29 -6.1751 -0.0800
13 12 -26 -4.3492 -0.5803
13 12 -23 -1.3906 0.0028
13 12 -20 5.9240 0.1368
13 12 -17 -4.9326 -0.1674
13 12 -14 38.5626 0.9638
13 12 -11 -4.3983 0.1298
13 12 -8 9.8164 0.0710
13 12 -5 0.4888 0.6305
13 12 -2 15.9602 -0.9954
13 12 1 38.5283 -0.1774
13 12 4 -12.4948 -0.4405
13 12 7 13.0980 -0.7707
13 12 10 22.6041 0.1344
13 12 13 8.7345 -0.6043
13 12 16 -10.8169 0.6168
13 12 19 10.7965 0.6242
13 12 22 17.1045 -0.5794
13 12 25 -7.7794 0.0722
13 12 28 -1.8234 0.0916
13 12 31 -9.9099 0.3354
13 12 34 -2.6396 -0.0862
13 12 37 4.4853 -0.3359
13 12 40 -0.5573 0.0281
13 12 43 -9.9507 0.0112
13 13 0 52.6747 0.0032
13 13 3 -8.2027 0.1735
13 13 6 41.2748 -0.5628
13 13 9 -18.1593 0.8322
13 13 12 -12.7064 0.7148
13 13 15 -0.2934 -0.0427
13 13 18 -1.3838 -0.1446
13 13 21 5.3429 -0.5597
13 13 24 5.8078 -0.2217
13 13 27 -5.8927 0.0487
13 13 30 13.0250 0.2713
13 13 33 1.2643 0.0407
13 13 36 -9.4242 0.0514
13 13 39 6.4079 0.1910
13 13 42 -4.1604 0.0238
13 13 45 -7.1836 -0.1921
14 0 -46 0.2826 0.1481
14 0 -40 7.7029 -0.0843
14 0 -34 -4.8350 1.1919
14 0 -28 6.2152 -3.8755
14 0 -22 11.0621 1.1044
14 0 -16 6.2430 1.3809
14 0 -10 51.0112 11.4780
14 0 -4 -80.8175 -12.0606
14 0 2 -270.3099 -6.2237
14 0 8 66.8539 3.1509
14 0 14 9.4020 10.1186
14 0 20 27.3369 -1.3950
14 0 26 1.2922 -2.7996
14 0 32 3.3690 -0.6585
14 0 38 -7.7312 0.7699
14 0 44 3.9153 0.0320
14 1 -47 -6.3677 -0.0469
14 1 -44 10.2539 0.0113
14 1 -41 -2.3516 -0.1700
14 1 -38 -13.3636 -0.1817
14 1 -35 -2.2941 0.1154
14 1 -32 -2.0368 1.0353
14 1 -29 1.4643 -0.1807
14 1 -26 -4.5124 -0.2173
14 1 -23 7.5602 1.3873
14 1 -20 -4.2881 -0.0020
14 1 -17 -4.1103 -3.1550
14 1 -14 -30.8353 -3.1703
14 1 -11 -15.1043 2.9927
14 1 -8 -13.4768 2.7102
14 1 -5 33.9478 -5.1907
14 1 -2 52.7005 -0.5098
14 1 1 62.1857 6.8598
14 1 4 77.1713 1.9492
14 1 7 -28.3768 -4.5877
14 1 10 -22.5418 -2.6529
14 1 13 -14.3926 1.0108
14 1 16 -4.1737 -0.1889
14 1 19 -1.0853 -2.8353
14 1 22 12.6260 -0.3793
14 1 25 4.8129 0.7782
14 1 28 -9.5757 0.8331
14 1 31 2.9333 0.4547
14 1 34 0.9101 -0.2070
14 1 37 -10.9379 0.0138
14 1 40 1.5187 -0.0094
14 1 43 -8.8343 -0.1490
14 1 46 1.4591 -0.1321
14 2 -45 8.2661 -0.0188
14 2 -42 8.8216 0.0877
14 2 -39 0.0356 0.0147
14 2 -36 -15.6318 -0.3841
14 2 -33 1.1586 0.3407
14 2 -30 6.4255 0.1218
14 2 -27 -3.9786 0.0246
14 2 -24 -4.7329 -0.6957
14 2 -21 -13.9358 -0.9222
14 2 -18 -12.6774 0.8069
14 2 -15 14.1417 -0.7930
14 2 -12 42.1485 0.3747
14 2 -9 4.9484 2.5993
14 2 -6 134.4146 1.9284
14 2 -3 -34.4351 0.2363
14 2 0 38.4141 -1.7959
14 2 3 46.2563 0.6620
14 2 6 62.5525 -1.3546
14 2 9 -41.5737 -3.0965
14 2 12 11.3602 0.0983
14 2 15 -14.7590 1.2998
14 2 18 -18.5770 0.4307
14 2 21 12.4399 -0.5988
14 2 24 -2.0522 0.4184
14 2 27 -2.1869 0.6549
14 2 30 15.8077 -0.2004
14 2 33 -6.1345 -0.2089
14 2 36 -14.8869 0.0168
14 2 39 -1.3208 0.0963
14 2 42 -0.5071 -0.0682
14 2 45 -0.2085 -0.0139
14 3 -46 -8.4983 -0.0486
14 3 -43 5.5874 0.1310
14 3 -40 0.6799 0.1758
14 3 -37 -4.6057 -0.0570
14 3 -34 1.5690 0.0203
14 3 -31 3.2068 -0.2517
14 3 -28 7.0248 -0.1954
14 3 -25 10.3813 0.0860
14 3 -22 -10.7554 -0.1837
14 3 -19 -4.5844 0.1052
14 3 -16 21.4342 -0.4277
14 3 -13 -12.7102 0.3231
14 3 -10 -37.4576 1.8389
14 3 -7 47.0202 -0.8994
14 3 -4 -62.8299 -0.7080
14 3 -1 64.4661 -0.3605
14 3 2 10.2665 -0.4397
14 3 5 -139.1403 -0.2606
14 3 8 26.3486 -0.7697
14 3 11 -45.1377 0.4382
14 3 14 3.2219 0.8940
14 3 17 -31.5658 -0.3135
14 3 20 5.6753 0.3943
14 3 23 1.7974 0.0201
14 3 26 1.3507 -0.1581
14 3 29 -2.7646 -0.1814
14 3 32 2.6872 -0.1578
14 3 35 -0.5774 0.0711
14 3 38 -5.1044 0.2004
14 3 41 -1.1800 -0.0517
14 3 44 6.3795 0.0004
14 3 47 3.2221 0.0429
14 4 -47 1.6809 -0.0820
14 4 -44 -1.9396 -0.0256
14 4 -41 4.6160 0.0175
14 4 -38 0.1318 0.0997
14 4 -35 2.3106 0.2177
14 4 -32 -0.1993 -0.2910
14 4 -29 -23.6165 0.1611
14 4 -26 -0.8491 0.1770
14 4 -23 -0.1115 -0.5474
14 4 -20 0.9079 -0.3002
14 4 -17 0.7915 0.0998
14 4 -14 37.1650 0.9081
14 4 -11 -39.0590 0.2623
14 4 -8 63.9225 -1.4458
14 4 -5 34.4596 0.4561
14 4 -2 -16.7227 0.2842
14 4 1 7.6180 -1.9720
14 4 4 -75.9723 0.1475
14 4 7 22.1595 0.8352
14 4 10 -19.5985 1.8154
14 4 13 -5.8489 -0.6589
14 4 16 11.3369 -0.5025
14 4 19 9.6688 0.3413
14 4 22 0.2523 -0.3199
14 4 25 1.2045 -0.8550
14 4 28 -2.4190 -0.4704
14 4 31 -10.6966 0.2070
14 4 34 -9.6372 0.2647
14 4 37 -15.8122 0.0898
14 4 40 0.7442 0.1168
14 4 43 -1.6420 0.0193
14 4 46 12.3068 0.0458
14 5 -45 -4.5179 0.0323
14 5 -42 14.4543 -0.0694
14 5 -39 0.8995 0.0651
14 5 -36 -11.5403 -0.1305
14 5 -33 1.4830 0.0704
14 5 -30 -4.2879 -0.1963
14 5 -27 -4.1462 -0.3185
14 5 -24 -4.9601 0.4958
14 5 -21 3.2669 0.0830
14 5 -18 1.9031 0.6411
14 5 -15 -19.1090 -0.0719
14 5 -12 -13.7012 -0.2764
14 5 -9 -19.3968 1.3039
14 5 -6 14.1420 -0.4342
14 5 -3 -32.4262 -0.3536
14 5 0 -10.0354 -0.9071
14 5 3 -13.6551 -0.3089
14 5 6 -8.6247 1.9933
14 5 9 25.3814 -0.0895
14 5 12 1.8944 -0.4332
14 5 15 14.2427 0.5837
14 5 18 -5.9280 0.1841
14 5 21 5.8502 0.4866
14 5 24 7.1266 -0.4450
14 5 27 9.5298 -0.4474
14 5 30 9.9771 0.2472
14 5 33 2.7144 0.0449
14 5 36 -2.2436 0.0163
14 5 39 4.0328 0.0452
14 5 42 -12.7972 -0.0257
14 5 45 3.8288 0.1089
14 6 -46 8.0267 0.0956
14 6 -43 14.8545 -0.0265
14 6 -40 12.3415 0.0724
14 6 -37 13.2393 0.0101
14 6 -34 -3.4847 -0.0597
14 6 -31 1.5921 0.1468
14 6 -28 -0.9963 0.0027
14 6 -25 14.1002 -0.2621
14 6 -22 1.6803 -0.7635
14 6 -19 -18.7770 -0.5374
14 6 -16 -3.9576 0.7187
14 6 -13 -4.0984 0.1505
14 6 -10 0.4149 -1.0549
14 6 -7 82.1495 1.0866
14 6 -4 10.3777 1.7971
14 6 -1 -2.9308 0.2209
14 6 2 84.7238 -1.7893
14 6 5 11.7771 -1.1915
14 6 8 28.1092 1.2403
14 6 11 45.9101 -0.6603
14 6 14 7.3866 -1.6124
14 6 17 8.7266 1.1472
14 6 20 4.9783 0.5211
14 6 23 4.3503 0.4738
14 6 26 4.0387 -0.1744
14 6 29 -5.5712 -0.1946
14 6 32 -7.4850 0.1717
14 6 35 10.6636 -0.4007
14 6 38 -7.4732 -0.0392
14 6 41 1.6153 -0.0316
14 6 44 4.6758 0.0260
14 7 -44 2.6554 0.1080
14 7 -41 3.6120 0.0339
14 7 -38 -3.0815 -0.0342
14 7 -35 -7.7643 0.2047
14 7 -32 -3.5555 -0.1850
14 7 -29 -2.4069 0.2122
14 7 -26 -4.5792 0.0622
14 7 -23 -7.2238 -0.6014
14 7 -20 -5.4465 -0.1522
14 7 -17 1.5333 -0.2569
14 7 -14 11.2305 0.3873
14 7 -11 -7.2343 0.5543
14 7 -8 8.8213 -0.0246
14 7 -5 69.9615 0.1675
14 7 -2 -2.3483 0.4218
14 7 1 118.1652 0.0995
14 7 4 25.6940 -0.9216
14 7 7 14.3983 -1.5228
14 7 10 -11.3184 0.6522
14 7 13 19.3931 0.3669
14 7 16 16.6756 0.0805
14 7 19 11.2717 -0.0518
14 7 22 6.7571 0.2211
14 7 25 -4.8178 0.7261
14 7 28 -1.8610 -0.2972
14 7 31 -6.5272 0.0575
14 7 34 7.3314 -0.1986
14 7 37 -17.0014 -0.2664
14 7 40 9.4221 0.1609
14 7 43 -18.4258 -0.0740
14 7 46 -22.1296 0.1235
14 8 -45 23.8280 0.0231
14 8 -42 -2.2682 0.0611
14 8 -39 -2.1760 -0.2323
14 8 -36 17.5388 0.0252
14 8 -33 -2.7707 -0.0679
14 8 -30 -8.1687 -0.0138
14 8 -27 -3.9816 0.4962
14 8 -24 14.0282 0.3362
14 8 -21 0.3204 -0.4107
14 8 -18 5.5786 -0.3942
14 8 -15 -7.4630 -0.2593
14 8 -12 -20.6594 0.8427
14 8 -9 2.5429 -0.1969
14 8 -6 -4.9508 -1.4302
14 8 -3 -33.7545 1.3495
14 8 0 38.5393 1.2710
14 8 3 2.5037 -0.3033
14 8 6 -56.0466 -1.6142
14 8 9 -6.8087 -0.1936
14 8 12 -16.7240 1.6353
14 8 15 15.9306 -0.5924
14 8 18 10.9999 -0.4204
14 8 21 -7.9856 0.1202
14 8 24 6.0456 0.3821
14 8 27 -0.8448 0.4664
14 8 30 0.4950 -0.4291
14 8 33 -4.2257 0.0570
14 8 36 -0.9800 -0.0119
14 8 39 -11.3207 -0.0178
14 8 42 5.8800 -0.0258
14 8 45 -12.1524 -0.0944
14 9 -46 -23.2584 0.1413
14 9 -43 15.0560 0.1005
14 9 -40 6.9709 0.0831
14 9 -37 -1.5184 0.0728
14 9 -34 4.2855 -0.0753
14 9 -31 -7.4180 -0.3008
14 9 -28 10.4735 -0.3254
14 9 -25 3.1712 0.0612
14 9 -22 3.4304 -0.3452
14 9 -19 9.3418 -0.4000
14 9 -16 -3.3439 0.2109
14 9 -13 -0.7855 0.8518
14 9 -10 26.3029 0.4202
14 9 -7 -3.3512 -0.5973
14 9 -4 22.7233 0.3876
14 9 -1 -11.8018 0.4803
14 9 2 20.6866 -0.4582
14 9 5 29.8726 -0.0909
14 9 8 -13.0794 -0.4624
14 9 11 7.4307 0.3044
14 9 14 1.1345 -0.0052
14 9 17 14.8779 -0.5944
14 9 20 -14.8895 0.0435
14 9 23 -3.9436 0.2242
14 9 26 -10.9536 0.1367
14 9 29 5.8926 0.0021
14 9 32 8.6889 0.0285
14 9 35 -6.4699 0.1462
14 9 38 9.3933 0.0168
14 9 41 -5.7076 -0.0832
14 9 44 -1.7494 -0.1509
14 10 -44 5.5392 0.0416
14 10 -41 8.8445 0.1990
14 10 -38 8.9436 -0.1667
14 10 -35 19.7090 0.0673
14 10 -32 8.2873 0.1041
14 10 -29 -3.8255 -0.2252
14 10 -26 -5.3896 0.5428
14 10 -23 -6.1249 -0.4627
14 10 -20 -4.4012 -0.1910
14 10 -17 -16.8595 -0.2867
14 10 -14 -5.9067 0.0482
14 10 -11 25.4837 0.7947
14 10 -8 4.7673 -0.7141
14 10 -5 2.2192 0.4120
14 10 -2 -4.4246 1.1327
14 10 1 42.5812 -0.1251
14 10 4 57.3920 0.0295
14 10 7 -40.6441 0.0051
14 10 10 34.1463 0.0351
14 10 13 0.0608 -0.2736
14 10 16 -24.8303 -0.5468
14 10 19 -22.1099 0.2614
14 10 22 -9.8440 0.1508
14 10 25 -10.2372 -0.0969
14 10 28 -3.3042 -0.1487
14 10 31 -7.8498 0.3460
14 10 34 -3.5324 0.1902
14 10 37 10.5941 -0.0115
14 10 40 0.7142 0.0250
14 10 43 -5.8364 -0.0772
14 11 -45 -15.1260 -0.0705
14 11 -42 0.9665 0.1929
14 11 -39 2.0477 -0.1536
14 11 -36 -5.3955 0.0457
14 11 -33 -3.7861 0.1777
14 11 -30 -4.4944 0.0512
14 11 -27 -8.3683 0.2971
14 11 -24 6.1478 -0.3688
14 11 -21 11.3344 -0.6216
14 11 -18 -3.4427 0.2080
14 11 -15 -10.3871 -0.4474
14 11 -12 13.3963 0.2899
14 11 -9 4.6684 0.2870
14 11 -6 -15.3228 0.5367
14 11 -3 -33.0277 0.4742
14 11 0 -0.2367 -1.0779
14 11 3 13.3158 0.2670
14 11 6 -30.0804 0.0314
14 11 9 27.4893 -0.7114
14 11 12 -10.8058 -0.0430
14 11 15 -10.0765 0.3171
14 11 18 -4.2568 1.0985
14 11 21 -7.9615 -0.2706
14 11 24 5.1931 -0.3787
14 11 27 -6.3327 -0.1348
14 11 30 -0.0652 -0.1547
14 11 33 2.5834 0.3379
14 11 36 0.3548 -0.1688
14 11 39 1.8237 -0.0004
14 11 42 -18.1286 0.1731
14 11 45 12.8487 0.0783
14 12 -43 10.4920 0.1475
14 12 -40 -2.3864 -0.0238
14 12 -37 -8.4159 -0.0961
14 12 -34 11.7626 -0.3855
14 12 -31 -9.1679 -0.0148
14 12 -28 2.9876 0.1832
14 12 -25 2.2529 -0.1675
14 12 -22 6.1355 0.0703
14 12 -19 0.6299 0.5662
14 12 -16 10.6052 0.4311
14 12 -13 22.2345 -0.0428
14 12 -10 34.3828 -0.2297
14 12 -7 -6.1076 -0.7050
14 12 -4 15.6890 -0.2114
14 12 -1 -2.8878 -0.4752
14 12 2 -12.1086 0.3576
14 12 5 29.6459 0.2996
14 12 8 -18.4344 0.0189
14 12 11 4.8484 0.9397
14 12 14 13.9667 -0.2967
14 12 17 7.8102 0.1217
14 12 20 1.3745 -0.1905
14 12 23 3.1939 -0.7226
14 12 26 -6.2783 0.3953
14 12 29 -5.5914 -0.1273
14 12 32 5.2923 0.0142
14 12 35 6.9079 -0.0065
14 12 38 -8.6818 0.0232
14 12 41 -9.8922 0.3059
14 12 44 -6.9833 -0.0985
14 13 -44 -5.2546 0.0365
14 13 -41 6.3551 0.0484
14 13 -38 -9.9572 0.1341
14 13 -35 17.0461 -0.1611
14 13 -32 -11.9049 0.1132
14 13 -29 0.6862 0.2294
14 13 -26 7.6935 0.1190
14 13 -23 -0.0604 -0.6008
14 13 -20 -5.2969 -0.4825
14 13 -17 4.6289 0.2621
14 13 -14 -13.9561 -0.1332
14 13 -11 14.1958 0.1489
14 13 -8 7.5947 0.0568
14 13 -5 29.0839 0.5063
14 13 -2 -17.7950 1.2547
14 13 1 -15.9157 -0.1899
14 13 4 -9.8415 -0.2679
14 13 7 -31.8447 -0.3299
14 13 10 -10.4665 0.2430
14 13 13 -28.2709 0.3106
14 13 16 0.3429 -0.9826
14 13 19 11.8016 0.0864
14 13 22 -7.5492 0.4728
14 13 25 -10.0724 0.2693
14 13 28 6.0840 0.0692
14 13 31 -1.7091 -0.5292
14 13 34 4.4741 0.1123
14 13 37 -0.0134 0.0913
14 13 40 -9.2722 -0.0287
14 13 43 5.4159 0.0341
14 14 0 -34.8003 0.3415
14 14 3 14.7841 -0.5096
14 14 6 -25.2167 -0.4215
14 14 9 -1.2984 -0.4781
14 14 12 -1.4992 0.3748
14 14 15 0.5059 -0.2701
14 14 18 -7.9365 -0.1464
14 14 21 -10.7396 0.7902
14 14 24 -2.6972 0.0894
14 14 27 -2.7283 -0.0997
14 14 30 6.1767 -0.3268
14 14 33 -0.6332 -0.1112
14 14 36 10.2477 -0.0863
14 14 39 -5.5790 -0.1052
14 14 42 -6.2310 0.0374
15 0 -42 -11.3572 -0.1552
15 0 -36 2.2326 -0.5035
15 0 -30 -13.3635 1.0412
15 0 -24 4.8058 1.3900
15 0 -18 13.3963 1.7807
15 0 -12 -0.7288 -6.1295
15 0 -6 42.1570 -0.8159
15 0 0 -0.8580 1.7419
15 0 6 45.4667 7.5730
15 0 12 -32.5086 -1.5711
15 0 18 -13.9188 -3.2497
15 0 24 0.5398 -0.6855
15 0 30 6.8802 0.5347
15 0 36 -8.1750 0.5361
15 0 42 14.5233 -0.1840
15 1 -46 3.5690 0.0284
15 1 -43 0.1111 -0.1555
15 1 -40 -13.4987 0.0755
15 1 -37 -10.9097 -0.0343
15 1 -34 0.2630 -0.3666
15 1 -31 2.7322 0.5292
15 1 -28 -11.8274 1.1365
15 1 -25 -4.7839 -0.1850
15 1 -22 9.0091 -0.3618
15 1 -19 29.4718 -1.2048
15 1 -16 -19.7650 -0.4029
15 1 -13 65.5459 -0.0105
15 1 -10 -26.8999 -3.2258
15 1 -7 -2.8843 3.2232
15 1 -4 -7.3249 3.4368
15 1 -1 -30.2752 0.6413
15 1 2 54.3192 1.6026
15 1 5 45.0831 -3.7255
15 1 8 -17.6306 0.8803
15 1 11 -4.2225 0.1277
15 1 14 -7.4891 -2.9654
15 1 17 16.1865 1.4231
15 1 20 -14.3630 -0.0989
15 1 23 -8.0199 1.1012
15 1 26 -9.8325 0.6260
15 1 29 7.7056 -0.5316
15 1 32 -0.8001 0.1782
15 1 35 -8.9718 -0.4711
15 1 38 -4.1661 0.0369
15 1 41 -8.9505 0.2142
15 1 44 17.8686 -0.1110
15 1 47 19.9502 0.0909
15 2 -47 -1.2671 0.0027
15 2 -44 8.4412 -0.0174
15 2 -41 -4.2471 -0.0325
15 2 -38 19.5024 -0.1769
15 2 -35 4.8090 -0.1833
15 2 -32 4.0371 -0.2663
15 2 -29 -7.1396 -0.1444
15 2 -26 2.7648 0.2786
15 2 -23 4.2939 0.3938
15 2 -20 -8.2601 1.1721
15 2 -17 4.3978 0.3144
15 2 -14 -20.9831 -0.1732
15 2 -11 10.6280 0.5820
15 2 -8 10.4251 -0.3259
15 2 -5 -45.8321 0.0889
15 2 -2 -18.5659 -2.9536
15 2 1 -47.7355 -0.0971
15 2 4 58.7045 0.7639
15 2 7 -49.2590 -1.4719
15 2 10 37.4491 1.5602
15 2 13 6.1239 1.5995
15 2 16 -14.9044 0.6202
15 2 19 -12.6116 0.3662
15 2 22 9.7259 -0.8506
15 2 25 -4.8865 0.6890
15 2 28 4.8877 -0.8050
15 2 31 7.9077 -0.4618
15 2 34 -2.1853 0.1956
15 2 37 -2.4239 -0.0638
15 2 40 19.2826 0.2631
15 2 43 15.0927 0.0384
15 2 46 8.2615 0.0112
15 3 -45 8.2877 0.0494
15 3 -42 -6.9952 0.0511
15 3 -39 -20.2373 -0.0236
15 3 -36 -4.3985 0.0628
15 3 -33 0.9484 -0.2312
15 3 -30 1.5692 0.2661
15 3 -27 -4.4283 -0.0323
15 3 -24 -0.7366 0.4374
15 3 -21 -19.5476 -0.0098
15 3 -18 -15.3462 -1.0160
15 3 -15 15.1410 -0.3148
15 3 -12 -11.8136 -0.5864
15 3 -9 -1.7956 -0.7973
15 3 -6 -18.6805 0.1038
15 3 -3 -42.8903 1.3595
15 3 0 -24.1790 1.4310
15 3 3 -87.4904 -0.1352
15 3 6 -3.9213 0.3196
15 3 9 -26.7662 0.1464
15 3 12 -46.9768 -0.8715
15 3 15 -14.4384 -0.9606
15 3 18 -14.1452 0.5177
15 3 21 -5.0921 0.4196
15 3 24 6.0569 0.1816
15 3 27 3.7623 -0.0460
15 3 30 24.9433 -0.0895
15 3 33 -5.2520 0.0982
15 3 36 2.5906 -0.1025
15 3 39 -7.1375 -0.0782
15 3 42 -7.8160 -0.0383
15 3 45 -9.1666 0.0783
15 4 -46 -16.0303 0.0008
15 4 -43 4.9825 0.0353
15 4 -40 -18.9910 0.0318
15 4 -37 -10.6920 0.0808
15 4 -34 -14.8253 -0.2053
15 4 -31 1.3373 0.3156
15 4 -28 0.5264 0.2155
15 4 -25 -0.5120 -0.0735
15 4 -22 2.6597 0.3718
15 4 -19 -1.8220 0.2180
15 4 -16 19.1378 -0.3049
15 4 -13 -33.3529 -1.2180
15 4 -10 21.6099 -0.4077
15 4 -7 -50.2658 0.8392
15 4 -4 13.4477 0.2313
15 4 -1 -77.3150 0.0740
15 4 2 -52.8952 1.3113
15 4 5 47.3894 1.3032
15 4 8 17.1373 0.1355
15 4 11 -22.3187 -1.3198
15 4 14 -0.2681 -1.1632
15 4 17 13.6417 -0.2900
15 4 20 12.2565 0.0317
15 4 23 3.1334 -0.1498
15 4 26 -5.2348 0.3011
15 4 29 -14.2551 0.2351
15 4 32 3.0487 0.3800
15 4 35 -7.6389 -0.0543
15 4 38 -6.9331 -0.2023
15 4 41 -6.7365 -0.0225
15 4 44 1.8141 -0.0809
15 5 -44 -6.7140 -0.1252
15 5 -41 -6.4935 0.1212
15 5 -38 -5.9148 -0.1187
15 5 -35 -2.0672 -0.2541
15 5 -32 4.0737 0.4161
15 5 -29 -0.2946 0.0713
15 5 -26 -1.8525 0.5953
15 5 -23 3.4462 0.5230
15 5 -20 10.2827 -0.3335
15 5 -17 -11.1932 0.2926
15 5 -14 -8.6794 -1.5770
15 5 -11 16.8281 -1.0497
15 5 -8 34.5133 0.8498
15 5 -5 28.7439 -0.9164
15 5 -2 23.9819 0.8954
15 5 1 89.2954 1.3834
15 5 4 -20.4975 0.0442
15 5 7 -17.6326 0.1538
15 5 10 -42.6651 -1.3665
15 5 13 22.3215 0.0148
15 5 16 9.6937 0.0423
15 5 19 -22.1791 -0.4064
15 5 22 -0.4255 0.0243
15 5 25 -0.7418 0.3684
15 5 28 -17.5607 0.3228
15 5 31 -12.6979 -0.0214
15 5 34 3.0435 0.0358
15 5 37 3.5933 -0.1053
15 5 40 7.2504 0.0063
15 5 43 2.9735 -0.0507
15 5 46 7.2633 -0.0878
15 6 -45 -10.4524 -0.0662
15 6 -42 -15.5099 0.0798
15 6 -39 -6.7694 0.1484
15 6 -36 10.7304 -0.1017
15 6 -33 3.2124 -0.2519
15 6 -30 -7.8510 -0.0685
15 6 -27 2.1376 -0.1631
15 6 -24 6.8277 -0.0706
15 6 -21 1.1407 -0.0679
15 6 -18 2.0496 0.3081
15 6 -15 15.3350 0.9275
15 6 -12 13.7241 -1.0211
15 6 -9 -21.7783 0.1291
15 6 -6 41.0443 1.4947
15 6 -3 -6.7263 -1.0565
15 6 0 25.7454 -0.2628
15 6 3 -0.7510 -0.0481
15 6 6 -29.2273 0.0534
15 6 9 17.9254 -0.2965
15 6 12 -21.6320 -0.9351
15 6 15 -22.9897 0.9467
15 6 18 8.1633 0.2863
15 6 21 -13.6207 -0.6821
15 6 24 2.9393 0.4492
15 6 27 0.8960 0.2041
15 6 30 4.1747 0.2178
15 6 33 2.6401 -0.1033
15 6 36 -3.0354 -0.0900
15 6 39 -5.5539 0.1097
15 6 42 -3.3618 0.0200
15 6 45 9.4601 -0.0956
15 7 -46 -15.0796 -0.0459
15 7 -43 15.0251 -0.0485
15 7 -40 -12.4185 0.0341
15 7 -37 10.7918 0.1072
15 7 -34 -7.1325 0.0340
15 7 -31 6.4806 0.0209
15 7 -28 3.8108 -0.2238
15 7 -25 -3.6113 0.2771
15 7 -22 -1.3247 -0.0734
15 7 -19 0.0616 -0.7214
15 7 -16 -9.2599 -0.0676
15 7 -13 -7.8183 0.7999
15 7 -10 -18.8952 0.5850
15 7 -7 -4.4525 -1.2832
15 7 -4 -35.5488 -0.0768
15 7 -1 -38.0647 1.4794
15 7 2 -73.3161 -0.0185
15 7 5 -35.7626 -1.5332
15 7 8 -12.5768 -0.1976
15 7 11 -25.0622 1.4072
15 7 14 12.9479 -0.0185
15 7 17 -12.9461 -1.0488
15 7 20 3.8171 0.0355
15 7 23 -2.6294 0.0925
15 7 26 -1.8278 0.1199
15 7 29 1.5030 -0.1222
15 7 32 -1.8270 0.0887
15 7 35 -8.5614 0.1807
15 7 38 2.1779 0.0788
15 7 41 6.4536 0.0548
15 7 44 12.3970 -0.0465
15 8 -44 -3.0510 -0.0589
15 8 -41 1.0441 0.0195
15 8 -38 0.8547 0.2089
15 8 -35 -3.7427 0.0284
15 8 -32 9.4011 0.2652
15 8 -29 -0.3038 -0.0440
15 8 -26 -2.1630 -0.0648
15 8 -23 2.0253 0.2787
15 8 -20 -2.2097 -0.8334
15 8 -17 12.0855 -0.6901
15 8 -14 -9.1095 0.0714
15 8 -11 -8.5545 0.5261
15 8 -8 31.6906 -0.3743
15 8 -5 -24.1997 0.1396
15 8 -2 3.7565 0.4532
15 8 1 42.6274 0.0378
15 8 4 -2.4524 -0.1701
15 8 7 8.0690 -0.2970
15 8 10 11.3074 0.3056
15 8 13 -6.7818 0.0082
15 8 16 -14.5183 -0.8065
15 8 19 -8.0725 0.6127
15 8 22 5.9365 -0.2291
15 8 25 -1.6455 -0.0483
15 8 28 -0.2631 -0.2638
15 8 31 -4.3953 -0.1614
15 8 34 0.1705 0.4942
15 8 37 3.0042 -0.0907
15 8 40 -15.0780 0.0158
15 8 43 -0.1586 0.0507
15 8 46 -3.9196 -0.0330
15 9 -45 -2.5830 0.0260
15 9 -42 -18.6297 -0.0780
15 9 -39 3.5234 0.1113
15 9 -36 -18.3530 -0.2455
15 9 -33 10.4991 -0.0278
15 9 -30 1.3435 -0.0205
15 9 -27 -1.4785 -0.2067
15 9 -24 18.5032 0.8498
15 9 -21 9.8403 0.7074
15 9 -18 4.7464 -0.3539
15 9 -15 -4.0689 -0.5904
15 9 -12 -6.5200 0.0311
15 9 -9 3.2643 0.7483
15 9 -6 9.3403 -0.8178
15 9 -3 -4.9518 -0.6760
15 9 0 44.4622 0.7866
15 9 3 -49.6807 0.7733
15 9 6 17.6486 0.4196
15 9 9 -33.4685 -0.9055
15 9 12 25.8748 0.0342
15 9 15 -4.2336 0.1327
15 9 18 -4.5291 -0.3219
15 9 21 13.6283 0.5428
15 9 24 5.2883 -0.2545
15 9 27 6.2663 0.0199
15 9 30 13.0587 -0.1577
15 9 33 12.3841 -0.0861
15 9 36 -13.5569 0.2393
15 9 39 16.2699 -0.0893
15 9 42 1.9787 0.0484
15 9 45 -2.1752 0.0047
15 10 -43 8.5573 0.0722
15 10 -40 6.2971 0.0343
15 10 -37 0.5183 -0.0127
15 10 -34 -5.1543 -0.0621
15 10 -31 1.5004 0.0129
15 10 -28 8.3283 0.0449
15 10 -25 -14.0149 -0.3355
15 10 -22 3.9743 0.0173
15 10 -19 5.0721 0.3757
15 10 -16 10.1364 -0.2886
15 10 -13 -17.5655 -0.4553
15 10 -10 -6.5535 0.2631
15 10 -7 4.1559 0.4079
15 10 -4 16.8476 -0.5705
15 10 -1 30.2548 -0.5356
15 10 2 -18.9832 0.2479
15 10 5 44.4199 0.5973
15 10 8 22.9020 -0.2241
15 10 11 2.6574 -0.1332
15 10 14 -3.4560 0.6496
15 10 17 -8.3364 -0.1245
15 10 20 2.8091 0.1330
15 10 23 -3.5218 -0.2438
15 10 26 0.4471 -0.2725
15 10 29 8.9789 -0.0058
15 10 32 -9.5807 -0.2636
15 10 35 3.4416 0.1117
15 10 38 10.7465 -0.0762
15 10 41 -7.5352 -0.0024
15 10 44 -5.2502 0.1592
15 11 -44 20.1091 0.0698
15 11 -41 8.0137 0.0432
15 11 -38 -1.8888 0.1857
15 11 -35 6.4829 -0.1029
15 11 -32 -4.3578 -0.3309
15 11 -29 -4.6389 -0.0095
15 11 -26 -4.6819 -0.0999
15 11 -23 5.7124 0.0593
15 11 -20 4.4346 0.0454
15 11 -17 -7.5523 0.5449
15 11 -14 -0.2750 0.0345
15 11 -11 -18.5718 -0.2973
15 11 -8 13.5428 0.2339
15 11 -5 -9.0106 -1.3681
15 11 -2 9.8918 -1.1417
15 11 1 -18.0099 0.3865
15 11 4 4.0690 0.6024
15 11 7 1.4468 0.2263
15 11 10 -39.3457 -0.1247
15 11 13 10.1329 0.9801
15 11 16 7.3032 0.5354
15 11 19 13.3049 -0.6981
15 11 22 2.9972 -0.5121
15 11 25 13.7324 0.0170
15 11 28 8.7616 0.3243
15 11 31 13.5029 -0.0135
15 11 34 10.2961 -0.3199
15 11 37 -14.7496 -0.0963
15 11 40 -2.0282 0.1068
15 11 43 1.0045 0.0806
15 12 -42 2.4822 -0.0509
15 12 -39 8.9834 0.1132
15 12 -36 -9.8558 -0.1078
15 12 -33 -5.7806 0.0406
15 12 -30 11.9911 0.1715
15 12 -27 -8.9529 -0.0527
15 12 -24 0.1426 0.4722
15 12 -21 -3.3508 0.2048
15 12 -18 0.2541 -0.1814
15 12 -15 0.5118 -0.2401
15 12 -12 12.3021 -0.8263
15 12 -9 1.4967 0.2857
15 12 -6 12.4837 0.2465
15 12 -3 11.8291 -0.2297
15 12 0 -5.3388 0.4247
15 12 3 7.8266 0.3447
15 12 6 1.1230 0.2882
15 12 9 4.2677 -0.2865
15 12 12 -16.8603 -0.6946
15 12 15 26.5018 0.0290
15 12 18 4.5714 -0.1675
15 12 21 8.5336 -0.1858
15 12 24 -6.5222 0.4024
15 12 27 13.0527 0.6497
15 12 30 7.8644 -0.0838
15 12 33 -1.4376 -0.2500
15 12 36 -0.6501 -0.0424
15 12 39 -2.4591 -0.0478
15 12 42 6.7665 -0.1066
15 13 -43 -14.4476 -0.0461
15 13 -40 -6.0127 0.1917
15 13 -37 0.0787 -0.0065
15 13 -34 -2.1819 0.0794
15 13 -31 3.3320 -0.1087
15 13 -28 -5.3105 -0.4548
15 13 -25 10.7688 0.0417
15 13 -22 -2.1448 -0.2403
15 13 -19 5.9247 -0.4102
15 13 -16 2.1177 0.0730
15 13 -13 26.4979 0.5495
15 13 -10 -15.4573 0.8273
15 13 -7 33.5224 -0.1381
15 13 -4 0.9184 0.3723
15 13 -1 -10.5980 0.1032
15 13 2 9.2300 -1.4599
15 13 5 -44.3306 -0.1887
15 13 8 -19.6898 -0.3357
15 13 11 8.3631 0.1560
15 13 14 3.3903 0.0811
15 13 17 6.4674 -0.3784
15 13 20 -0.9865 1.1619
15 13 23 -0.4077 0.2996
15 13 26 0.1108 -0.3430
15 13 29 -1.2547 -0.1233
15 13 32 -13.0844 -0.1689
15 13 35 -1.1479 0.2512
15 13 38 -5.9311 -0.1295
15 13 41 7.3597 -0.1684
15 13 44 -4.9412 0.0317
15 14 -44 -7.1805 -0.0308
15 14 -41 10.0822 0.0919
15 14 -38 5.7564 -0.2251
15 14 -35 -14.9377 0.0002
15 14 -32 -13.1479 0.1500
15 14 -29 -11.4524 -0.0886
15 14 -26 6.6546 0.0446
15 14 -23 -2.9634 0.4632
15 14 -20 -7.8354 -0.0817
15 14 -17 -7.4823 -0.2950
15 14 -14 -12.0206 -0.3093
15 14 -11 10.8419 0.1155
15 14 -8 -22.9678 -0.0458
15 14 -5 5.1799 -0.7343
15 14 -2 -11.8955 0.4490
15 14 1 9.8514 -0.0217
15 14 4 10.1535 0.1531
15 14 7 15.0903 0.3735
15 14 10 -15.4330 -0.5347
15 14 13 -5.8634 0.1833
15 14 16 -6.6563 -0.1626
15 14 19 6.8176 0.1269
15 14 22 2.0763 0.1978
15 14 25 2.0079 -0.6001
15 14 28 1.7474 0.1854
15 14 31 7.6120 0.1333
15 14 34 7.3474 0.1317
15 14 37 18.0030 0.1600
15 14 40 12.2454 -0.2070
15 14 43 0.0815 -0.0397
15 15 0 -4.4437 0.7169
15 15 3 -6.5501 0.0232
15 15 6 -5.4974 0.0480
15 15 9 2.2284 -0.0067
15 15 12 -8.1972 -0.1899
15 15 15 7.1112 0.3014
15 15 18 9.5458 -0.8226
15 15 21 5.6248 -0.1190
15 15 24 3.0441 0.0843
15 15 27 -1.0240 -0.1891
15 15 30 -0.4808 0.4245
15 15 33 2.1417 0.1642
15 15 36 -2.5662 0.0516
15 15 39 -5.9200 -0.0253
15 15 42 -16.1639 -0.0422
16 0 -44 29.4976 -0.0717
16 0 -38 -5.8858 0.3825
16 0 -32 -1.0029 -1.4404
16 0 -26 -9.6239 1.5879
16 0 -20 9.6044 -1.8024
16 0 -14 75.6781 7.6242
16 0 -8 19.8695 -10.2348
16 0 -2 -52.2332 7.9933
16 0 4 -67.6090 -6.6013
16 0 10 -81.1401 8.1667
16 0 16 22.2198 -4.2789
16 0 22 -34.2406 2.1150
16 0 28 2.6833 -1.0797
16 0 34 -4.3720 0.6592
16 0 40 -1.7397 -0.2850
16 0 46 7.9655 0.0701
16 1 -45 4.6491 -0.0067
16 1 -42 2.3985 0.1284
16 1 -39 12.6367 0.1667
16 1 -36 11.7105 0.5085
16 1 -33 1.7418 0.1140
16 1 -30 4.0464 -0.7040
16 1 -27 0.7842 -0.6057
16 1 -24 -3.9352 -1.1714
16 1 -21 -21.7997 0.2784
16 1 -18 1.2965 -0.1527
16 1 -15 -0.7680 3.4208
16 1 -12 -17.7358 3.1754
16 1 -9 34.2329 -1.3952
16 1 -6 -1.6016 0.6905
16 1 -3 32.7459 -0.0983
16 1 0 -19.8953 -2.0114
16 1 3 -33.0537 -5.8125
16 1 6 -54.6978 -2.9110
16 1 9 -3.1741 5.7280
16 1 12 -14.4854 0.8468
16 1 15 -6.7642 -0.6481
16 1 18 -4.0941 1.3015
16 1 21 12.8964 0.7855
16 1 24 -1.7140 0.6809
16 1 27 2.8088 -1.1040
16 1 30 -9.8283 -0.4299
16 1 33 -1.8579 0.0988
16 1 36 -8.2651 -0.1455
16 1 39 -12.2669 0.1915
16 1 42 15.4700 -0.0443
16 1 45 -2.2132 -0.1137
16 2 -46 -8.7385 -0.1107
16 2 -43 19.1296 0.0166
16 2 -40 7.8472 -0.2169
16 2 -37 -3.4219 0.0535
16 2 -34 2.4987 0.2149
16 2 -31 -6.0947 -0.2193
16 2 -28 11.2234 0.2134
16 2 -25 4.9697 0.0421
16 2 -22 -5.8359 0.7482
16 2 -19 -8.3977 -0.1132
16 2 -16 -21.2637 -1.6769
16 2 -13 -29.6652 1.4584
16 2 -10 -25.9838 -0.5327
16 2 -7 -7.6808 -2.2602
16 2 -4 -0.4509 -1.1023
16 2 -1 9.4986 1.3668
16 2 2 63.5372 2.7921
16 2 5 -3.2343 -2.2119
16 2 8 65.6690 -0.8061
16 2 11 35.9070 3.4587
16 2 14 -10.0782 -0.8679
16 2 17 5.4852 -1.0655
16 2 20 -4.3889 -0.7723
16 2 23 14.0496 0.2098
16 2 26 3.7250 0.4916
16 2 29 3.2712 -0.5813
16 2 32 9.3904 0.2200
16 2 35 -5.9651 0.2570
16 2 38 -5.7712 -0.1711
16 2 41 -6.3061 0.0533
16 2 44 9.7058 -0.1893
16 2 47 14.2441 -0.0459
16 3 -44 -12.6699 0.0964
16 3 -41 0.2304 -0.0850
16 3 -38 12.3285 0.1785
16 3 -35 -6.1431 -0.0978
16 3 -32 3.8958 -0.1741
16 3 -29 -13.7164 0.1642
16 3 -26 -4.4937 -0.4509
16 3 -23 -4.5685 -0.0673
16 3 -20 -9.2782 0.0376
16 3 -17 -8.9653 -0.0901
16 3 -14 0.3599 0.1246
16 3 -11 39.2224 -0.3375
16 3 -8 -41.4744 1.0934
16 3 -5 42.5899 1.5065
16 3 -2 -50.8949 -0.3548
16 3 1 93.3457 0.2957
16 3 4 30.3408 0.9868
16 3 7 15.0480 -0.4204
16 3 10 4.9742 -2.2201
16 3 13 -22.6669 -0.6931
16 3 16 -9.8259 0.5761
16 3 19 9.8216 0.6695
16 3 22 20.0825 -0.2373
16 3 25 0.2303 -0.0379
16 3 28 3.4221 0.7165
16 3 31 -11.4458 0.1695
16 3 34 4.5349 0.0019
16 3 37 -5.3633 -0.2179
16 3 40 12.7270 -0.1777
16 3 43 12.1132 0.1230
16 3 46 27.8340 -0.0694
16 4 -45 -9.6271 -0.0328
16 4 -42 -12.1562 -0.0051
16 4 -39 -3.1641 0.1929
16 4 -36 3.8267 0.0075
16 4 -33 -0.8831 -0.2609
16 4 -30 -5.7773 -0.1939
16 4 -27 8.2149 0.1540
16 4 -24 6.1792 -0.0037
16 4 -21 1.9881 0.3239
16 4 -18 23.2393 0.0707
16 4 -15 -13.9051 -0.0382
16 4 -12 4.1809 -0.2029
16 4 -9 -4.0998 -0.7581
16 4 -6 30.2544 -0.2904
16 4 -3 47.3991 -0.7500
16 4 0 10.0091 -0.3099
16 4 3 10.8235 1.6047
16 4 6 -36.1332 0.4394
16 4 9 -1.9869 -0.5100
16 4 12 -38.1976 -0.1516
16 4 15 20.7775 -0.3023
16 4 18 -19.0794 0.2692
16 4 21 4.5364 -0.4107
16 4 24 -7.3358 -0.8148
16 4 27 2.0954 0.4926
16 4 30 22.2734 0.1485
16 4 33 -0.0880 0.0897
16 4 36 -10.0208 0.0340
16 4 39 11.5563 -0.0950
16 4 42 -7.5627 0.1117
16 4 45 13.6792 -0.0532
16 5 -46 12.1543 -0.1299
16 5 -43 -10.8433 -0.0716
16 5 -40 -8.1681 0.0580
16 5 -37 7.0152 0.3034
16 5 -34 3.9286 0.2716
16 5 -31 23.1537 -0.5840
16 5 -28 4.9520 0.1360
16 5 -25 -1.1179 0.1440
16 5 -22 11.4886 -0.3741
16 5 -19 10.3891 -0.5373
16 5 -16 -13.4864 0.1963
16 5 -13 30.3848 1.1213
16 5 -10 27.0933 0.1125
16 5 -7 -15.5922 -0.7465
16 5 -4 31.9020 0.1921
16 5 -1 25.5576 0.2731
16 5 2 -20.9280 -0.9904
16 5 5 -15.8638 -0.3100
16 5 8 -40.7853 0.1415
16 5 11 1.3954 0.7317
16 5 14 -19.1945 1.3266
16 5 17 20.9792 -0.1653
16 5 20 -22.4208 -0.1797
16 5 23 -7.6080 -0.0150
16 5 26 6.1007 -0.3398
16 5 29 8.1860 -0.2598
16 5 32 -5.6052 -0.3569
16 5 35 4.9850 0.2351
16 5 38 -12.4698 0.1764
16 5 41 8.6118 0.1196
16 5 44 -0.9326 -0.0088
16 6 -44 -2.1305 -0.0341
16 6 -41 -6.5300 -0.1655
16 6 -38 -5.9564 0.0964
16 6 -35 -1.1489 0.0726
16 6 -32 -2.9776 -0.3606
16 6 -29 5.0027 -0.2267
16 6 -26 -2.6351 -0.3493
16 6 -23 4.1522 0.4870
16 6 -20 -8.1518 0.5341
16 6 -17 -8.5376 0.0471
16 6 -14 -15.2723 0.6201
16 6 -11 -5.0189 0.6133
16 6 -8 -20.6890 -0.0817
16 6 -5 -54.6622 -0.8727
16 6 -2 -26.9375 -0.9973
16 6 1 -64.9482 -0.2647
16 6 4 -0.1708 -0.1926
16 6 7 6.4515 0.3049
16 6 10 36.2569 1.1157
16 6 13 -10.7362 0.8475
16 6 16 -4.9427 0.0709
16 6 19 -0.2187 -0.2738
16 6 22 18.1296 0.1879
16 6 25 -3.9805 -0.2632
16 6 28 -2.6554 -0.1600
16 6 31 -3.7155 -0.3625
16 6 34 5.7463 -0.0564
16 6 37 -5.8973 0.2187
16 6 40 1.4054 0.0177
16 6 43 1.7931 0.0994
16 7 -45 -4.0119 0.0225
16 7 -42 0.2649 -0.1115
16 7 -39 7.0371 -0.0145
16 7 -36 6.6365 0.2751
16 7 -33 13.1276 0.0390
16 7 -30 6.2637 0.0236
16 7 -27 -0.7787 -0.1631
16 7 -24 11.5136 -0.6353
16 7 -21 -4.0249 -0.0657
16 7 -18 11.0282 0.1314
16 7 -15 -0.3101 0.1167
16 7 -12 9.3709 0.3328
16 7 -9 6.0963 -1.0196
16 7 -6 -8.9939 0.2861
16 7 -3 -0.6823 1.2528
16 7 0 0.3642 -1.1970
16 7 3 40.3095 -0.8882
16 7 6 18.7492 0.3582
16 7 9 14.2362 1.1949
16 7 12 -3.2512 0.0783
16 7 15 11.7831 -1.2609
16 7 18 6.2521 0.4160
16 7 21 0.0865 0.5422
16 7 24 -2.2272 -0.2035
16 7 27 9.7942 -0.1280
16 7 30 -5.9134 -0.2346
16 7 33 -2.0730 -0.0028
16 7 36 11.9174 0.0012
16 7 39 -11.4627 -0.1616
16 7 42 13.4603 0.0218
16 7 45 -13.9496 0.0790
16 8 -43 9.6818 -0.0547
16 8 -40 -4.8632 0.0430
16 8 -37 -3.1750 0.0072
16 8 -34 -5.9470 0.0475
16 8 -31 -7.6543 0.0516
16 8 -28 -5.0980 0.0522
16 8 -25 6.0090 -0.2438
16 8 -22 12.7031 0.1233
16 8 -19 7.2215 0.1328
16 8 -16 13.1200 -0.0643
16 8 -13 18.0198 -0.2307
16 8 -10 7.4946 0.2445
16 8 -7 11.6639 0.7759
16 8 -4 23.1437 -0.4852
16 8 -1 10.5806 -0.6692
16 8 2 15.3757 0.7442
16 8 5 12.2330 0.0025
16 8 8 -38.2096 -0.4491
16 8 11 13.5086 -0.5880
16 8 14 -24.4692 0.1888
16 8 17 -0.3898 0.4998
16 8 20 2.9629 0.1045
16 8 23 3.8310 0.1188
16 8 26 7.4391 0.0700
16 8 29 -5.9072 -0.0139
16 8 32 -12.0937 -0.0172
16 8 35 -3.3029 -0.2187
16 8 38 7.3829 -0.1966
16 8 41 -7.6666 0.0022
16 8 44 17.9591 0.0752
16 9 -44 11.6590 -0.1368
16 9 -41 -2.2261 -0.0583
16 9 -38 -9.9814 -0.1341
16 9 -35 8.3009 -0.0062
16 9 -32 23.5552 -0.1341
16 9 -29 11.0420 0.3948
16 9 -26 7.3851 0.2178
16 9 -23 -2.0404 0.1687
16 9 -20 5.9258 0.1750
16 9 -17 -1.2240 -0.2519
16 9 -14 -1.7567 -0.0954
16 9 -11 -4.3792 -0.7367
16 9 -8 -22.0467 0.3266
16 9 -5 11.9143 0.1292
16 9 -2 -4.2704 -0.4526
16 9 1 -4.9450 0.5370
16 9 4 13.0294 0.3466
16 9 7 -8.2861 -0.3971
16 9 10 -3.8654 -0.8434
16 9 13 -7.3456 0.2119
16 9 16 -2.3776 0.4663
16 9 19 2.3199 -0.1929
16 9 22 -3.1510 0.2069
16 9 25 -8.3345 -0.0857
16 9 28 -12.6048 0.3120
16 9 31 -9.5647 -0.1914
16 9 34 -5.9327 -0.0156
16 9 37 4.0753 -0.0003
16 9 40 3.8857 -0.2644
16 9 43 0.6125 0.0433
16 10 -45 -12.4189 -0.0382
16 10 -42 2.3127 0.0293
16 10 -39 -16.3808 0.0375
16 10 -36 -12.5525 0.2375
16 10 -33 8.8011 -0.3769
16 10 -30 -1.2922 -0.2504
16 10 -27 -2.8750 -0.0393
16 10 -24 2.6920 -0.5090
16 10 -21 2.6260 0.3374
16 10 -18 -3.6631 0.1988
16 10 -15 1.8689 0.5615
16 10 -12 -21.4735 -0.0177
16 10 -9 -21.8416 -0.5317
16 10 -6 -3.6762 0.3111
16 10 -3 -0.6770 -0.5339
16 10 0 -18.4789 -0.0835
16 10 3 29.6524 0.3037
16 10 6 19.0448 0.2635
16 10 9 -5.5987 0.4833
16 10 12 -1.1101 0.0653
16 10 15 -4.7977 0.1170
16 10 18 5.6021 -0.6323
16 10 21 4.6349 -0.5413
16 10 24 -4.5657 -0.1215
16 10 27 7.6506 0.1751
16 10 30 13.0191 0.4654
16 10 33 -5.2069 -0.0094
16 10 36 9.0002 0.0438
16 10 39 2.4889 -0.0873
16 10 42 -7.9019 -0.0254
16 10 45 16.3541 -0.1138
16 11 -43 -10.2422 -0.0728
16 11 -40 -13.1398 0.0381
16 11 -37 -5.6740 0.0609
16 11 -34 -0.6932 -0.0223
16 11 -31 -3.1537 0.0900
16 11 -28 -1.2002 0.0344
16 11 -25 7.9214 0.1282
16 11 -22 -4.4386 0.1519
16 11 -19 6.6225 0.0720
16 11 -16 -0.4870 0.1158
16 11 -13 -3.5522 -0.3772
16 11 -10 -14.8301 -0.2877
16 11 -7 -5.2771 0.0532
16 11 -4 -7.5548 -0.3114
16 11 -1 -35.3513 0.6659
16 11 2 10.0619 0.4725
16 11 5 21.0258 0.0996
16 11 8 -3.4810 0.4117
16 11 11 24.6238 -0.7522
16 11 14 -3.8624 0.1385
16 11 17 -3.0691 -0.3570
16 11 20 8.6414 -0.9370
16 11 23 -8.8070 0.3138
16 11 26 9.6466 0.2796
16 11 29 -0.3226 0.5178
16 11 32 -3.2344 -0.1057
16 11 35 6.2859 -0.1429
16 11 38 -4.9282 0.3119
16 11 41 -3.0684 -0.0792
16 11 44 1.3168 -0.0568
16 12 -44 15.4264 -0.2132
16 12 -41 -9.5456 -0.0190
16 12 -38 -1.1232 0.1708
16 12 -35 1.8192 0.1248
16 12 -32 -7.8154 0.1346
16 12 -29 5.8180 -0.0536
16 12 -26 14.2105 0.0275
16 12 -23 2.3753 0.0157
16 12 -20 -0.2458 -0.2397
16 12 -17 8.4174 -0.6917
16 12 -14 6.7084 0.0224
16 12 -11 -0.6318 0.5402
16 12 -8 11.1810 0.3328
16 12 -5 -17.9673 0.2422
16 12 -2 8.6240 -0.1192
16 12 1 -1.1484 0.2518
16 12 4 7.6456 -0.5593
16 12 7 28.3741 -0.0966
16 12 10 -2.6789 -0.1521
16 12 13 19.7709 -0.2306
16 12 16 3.2250 0.3614
16 12 19 -3.9570 -0.3439
16 12 22 1.7866 0.3270
16 12 25 0.6303 0.0933
16 12 28 9.4783 -0.5466
16 12 31 -2.2773 -0.0235
16 12 34 -6.4322 0.1172
16 12 37 -9.4063 0.2630
16 12 40 -5.0850 0.0513
16 12 43 8.4020 -0.0528
16 13 -42 -7.9039 -0.0169
16 13 -39 15.2827 -0.1241
16 13 -36 -3.8195 0.0074
16 13 -33 11.6605 -0.1027
16 13 -30 -3.7145 -0.3354
16 13 -27 1.4758 0.0476
16 13 -24 -8.8978 0.0073
16 13 -21 1.4058 0.5057
16 13 -18 6.2857 0.5496
16 13 -15 8.6605 -0.1656
16 13 -12 -10.5409 0.4629
16 13 -9 -9.1815 -0.2425
16 13 -6 -11.2448 -0.3348
16 13 -3 11.1989 -0.4099
16 13 0 12.1233 -0.4053
16 13 3 14.3411 0.0439
16 13 6 -7.9205 0.3089
16 13 9 -21.2248 0.6274
16 13 12 4.5930 0.1246
16 13 15 -2.7856 -0.2466
16 13 18 2.0216 0.6067
16 13 21 -0.6775 0.0987
16 13 24 1.7626 -0.6047
16 13 27 10.0778 -0.5185
16 13 30 -3.6853 0.0616
16 13 33 -5.6522 0.2872
16 13 36 3.2965 0.1618
16 13 39 -4.5394 0.0123
16 13 42 -0.9190 0.1099
16 14 -43 -17.9888 0.0106
16 14 -40 13.4157 -0.1029
16 14 -37 -0.2873 0.2369
16 14 -34 -5.7508 0.2128
16 14 -31 10.4831 -0.0771
16 14 -28 3.5479 0.2188
16 14 -25 0.8555 -0.0090
16 14 -22 3.3908 -0.2581
16 14 -19 -7.5763 0.0093
16 14 -16 -13.4780 -0.1096
16 14 -13 -12.2008 -0.5444
16 14 -10 3.3050 0.2099
16 14 -7 -13.8979 0.8444
16 14 -4 -12.2107 -0.0666
16 14 -1 7.2536 0.2037
16 14 2 -6.8355 0.5385
16 14 5 4.7255 0.0607
16 14 8 -13.1816 -0.5041
16 14 11 -3.8270 -0.6325
16 14 14 7.7421 0.4189
16 14 17 -3.7910 0.1306
16 14 20 6.6446 -0.2859
16 14 23 -10.4625 -0.0120
16 14 26 -2.7507 0.1430
16 14 29 15.9180 0.2215
16 14 32 -12.3235 -0.1121
16 14 35 -2.4198 -0.1022
16 14 38 14.9143 -0.0399
16 14 41 5.6563 0.0025
16 15 -41 11.0428 -0.0635
16 15 -38 6.4128 0.2458
16 15 -35 5.6503 0.0392
16 15 -32 3.8412 -0.0911
16 15 -29 -10.7355 -0.0501
16 15 -26 4.6325 -0.0469
16 15 -23 2.0682 -0.1429
16 15 -20 -1.4495 -0.3742
16 15 -17 2.1216 0.1477
16 15 -14 31.7562 0.3785
16 15 -11 -10.4797 -0.3855
16 15 -8 3.7880 0.3409
16 15 -5 12.5348 0.2520
16 15 -2 11.8675 -0.2795
16 15 1 4.1877 -0.0004
16 15 4 3.7122 -0.5963
16 15 7 5.9412 0.2615
16 15 10 2.8983 -0.2205
16 15 13 -4.3586 -0.1799
16 15 16 -1.3878 0.5741
16 15 19 -8.4312 -0.4765
16 15 22 14.8981 0.2687
16 15 25 -2.9145 0.2320
16 15 28 7.8480 0.0810
16 15 31 11.0581 0.1788
16 15 34 9.5125 -0.6229
16 15 37 7.9257 -0.0091
16 15 40 -1.2097 0.1535
16 15 43 -1.0472 0.0944
16 16 0 4.9386 0.1233
16 16 3 -13.0015 0.2155
16 16 6 17.2347 -0.0919
16 16 9 -6.1343 0.3126
16 16 12 -3.0448 -0.2871
16 16 15 -22.6244 -0.0356
16 16 18 -13.1342 0.0893
16 16 21 -4.4621 -0.2294
16 16 24 -10.8006 0.5094
16 16 27 4.3345 -0.1684
16 16 30 -3.3487 -0.1639
16 16 33 -1.6433 -0.0755
16 16 36 -7.8841 0.0465
16 16 39 2.3708 0.0621
16 16 42 5.9747 -0.1344
17 0 -46 7.2705 -0.0870
17 0 -40 18.4045 0.2626
17 0 -34 17.4166 0.3945
17 0 -28 -0.1247 -0.2116
17 0 -22 -1.2337 -3.5936
17 0 -16 36.5036 5.0987
17 0 -10 30.8015 1.5263
17 0 -4 24.8452 2.7390
17 0 2 -32.7182 -9.5772
17 0 8 -64.0969 4.4764
17 0 14 14.0568 2.3117
17 0 20 -17.5397 0.9477
17 0 26 4.5007 -1.7502
17 0 32 6.6305 -0.0071
17 0 38 -16.6017 0.2658
17 0 44 4.1819 0.0717
17 1 -44 13.9736 -0.0600
17 1 -41 -17.1551 0.0777
17 1 -38 16.9123 -0.0974
17 1 -35 -4.1516 0.1672
17 1 -32 -10.0345 0.4756
17 1 -29 -3.5188 0.0453
17 1 -26 5.2752 -0.4557
17 1 -23 8.6332 -0.3365
17 1 -20 -4.8945 -0.1707
17 1 -17 23.8488 0.7828
17 1 -14 4.1681 -2.0298
17 1 -11 -74.6519 -1.3111
17 1 -8 -3.2659 2.6295
17 1 -5 -17.6833 -1.9107
17 1 -2 26.1426 -0.9295
17 1 1 28.2685 -0.4192
17 1 4 -17.7526 0.9264
17 1 7 42.2297 2.8826
17 1 10 4.6737 -2.1273
17 1 13 25.7835 -0.1705
17 1 16 5.9728 1.1564
17 1 19 11.3982 -1.2903
17 1 22 -6.4459 -0.2379
17 1 25 -0.4635 -0.6552
17 1 28 -3.7650 0.2136
17 1 31 -8.5190 -0.0001
17 1 34 13.1438 -0.1881
17 1 37 -4.6366 0.5005
17 1 40 0.4427 0.0290
17 1 43 -6.5146 -0.1333
17 1 46 -8.9886 0.0194
17 2 -45 0.7345 0.0160
17 2 -42 -2.5969 -0.2010
17 2 -39 -0.3209 -0.0898
17 2 -36 -14.5631 0.2429
17 2 -33 -1.2879 0.2473
17 2 -30 -12.4285 0.1771
17 2 -27 -4.9885 0.2738
17 2 -24 -5.2098 -0.1155
17 2 -21 -5.3906 -1.3064
17 2 -18 2.4122 -1.1864
17 2 -15 -22.5386 0.1946
17 2 -12 -23.0144 1.0502
17 2 -9 -11.9909 -0.2759
17 2 -6 -38.9804 0.2577
17 2 -3 13.1879 1.7283
17 2 0 47.2643 1.5975
17 2 3 -60.1846 -0.8534
17 2 6 62.9843 -2.1732
17 2 9 46.3658 -0.3239
17 2 12 -26.9162 -0.3300
17 2 15 -10.9388 -0.0923
17 2 18 11.7052 0.2769
17 2 21 -5.5374 0.0477
17 2 24 -2.9398 0.2504
17 2 27 -0.5979 -0.1482
17 2 30 0.2882 -0.0309
17 2 33 -10.0473 -0.0477
17 2 36 11.1898 -0.1130
17 2 39 6.1225 0.0286
17 2 42 0.4486 0.0869
17 2 45 14.3950 0.0231
17 3 -46 -9.3883 0.1854
17 3 -43 -1.9306 -0.1171
17 3 -40 -4.6945 -0.0764
17 3 -37 -9.9585 -0.2097
17 3 -34 -4.4256 0.1144
17 3 -31 7.6648 0.2649
17 3 -28 5.2971 -0.8046
17 3 -25 3.6161 0.1480
17 3 -22 -0.2775 0.4379
17 3 -19 -14.7045 0.4151
17 3 -16 -21.5456 -0.5679
17 3 -13 31.6880 -0.7628
17 3 -10 -19.8933 3.0169
17 3 -7 2.4833 0.4990
17 3 -4 -55.1363 -1.6788
17 3 -1 27.9152 -1.5770
17 3 2 -1.1868 0.7644
17 3 5 30.2969 1.3740
17 3 8 21.7857 -3.4881
17 3 11 -8.8340 -1.2217
17 3 14 2.1462 2.7146
17 3 17 -14.1621 1.0841
17 3 20 14.7275 0.4764
17 3 23 -7.1979 -0.8754
17 3 26 -8.6635 0.3386
17 3 29 -9.8450 0.5205
17 3 32 3.8876 -0.6798
17 3 35 14.4905 -0.2656
17 3 38 -13.6319 -0.1050
17 3 41 21.8551 0.2062
17 3 44 -0.3928 0.2592
17 4 -44 -6.2437 0.0267
17 4 -41 11.5252 0.0223
17 4 -38 -7.6339 -0.1876
17 4 -35 2.0974 0.3776
17 4 -32 -10.6111 0.0617
17 4 -29 -13.8574 -0.2813
17 4 -26 0.7611 -0.0305
17 4 -23 -6.8375 -0.4310
17 4 -20 7.9705 0.2049
17 4 -17 11.7061 -0.9100
17 4 -14 -6.2973 -0.4840
17 4 -11 1.8796 1.3291
17 4 -8 17.8125 -0.3107
17 4 -5 16.6094 0.1318
17 4 -2 28.4153 0.6682
17 4 1 -40.0460 -0.5650
17 4 4 -9.7506 0.5608
17 4 7 -45.1131 -0.9198
17 4 10 -6.2948 -0.7053
17 4 13 22.1035 0.4172
17 4 16 -11.7460 -0.4669
17 4 19 8.5505 0.2466
17 4 22 -28.1027 0.0889
17 4 25 -2.6975 -0.0404
17 4 28 -5.3779 0.2565
17 4 31 3.2136 -0.3196
17 4 34 -2.6081 -0.1081
17 4 37 -10.1605 0.0725
17 4 40 19.9676 -0.0898
17 4 43 1.6831 0.0563
17 4 46 29.5997 0.0434
17 5 -45 -9.4564 -0.0035
17 5 -42 -5.5802 0.0455
17 5 -39 -3.4510 -0.1944
17 5 -36 12.2396 0.1786
17 5 -33 8.7207 0.3685
17 5 -30 7.8387 -0.0933
17 5 -27 -9.1361 -0.1603
17 5 -24 -2.7887 -0.2149
17 5 -21 4.1223 0.2429
17 5 -18 -18.4730 0.4973
17 5 -15 -2.0467 -0.9452
17 5 -12 -42.4897 0.5079
17 5 -9 4.7163 1.4826
17 5 -6 -3.8112 -1.0774
17 5 -3 -1.2933 -0.3779
17 5 0 -1.2481 -0.2266
17 5 3 -12.0407 -0.3579
17 5 6 22.7242 0.5810
17 5 9 -8.1133 -0.3022
17 5 12 29.4653 0.9525
17 5 15 8.1225 0.2905
17 5 18 -8.4221 -1.5751
17 5 21 8.8349 0.7926
17 5 24 -4.6391 0.1039
17 5 27 3.8857 -0.2545
17 5 30 1.0444 -0.0321
17 5 33 -5.7849 -0.1838
17 5 36 -14.8808 0.2719
17 5 39 -17.4606 -0.0390
17 5 42 18.1220 -0.2126
17 5 45 4.4648 0.0588
17 6 -43 4.5189 0.0212
17 6 -40 -10.5445 -0.1925
17 6 -37 5.9419 -0.1772
17 6 -34 0.8736 0.0940
17 6 -31 -6.4880 0.2742
17 6 -28 1.7984 0.2541
17 6 -25 7.3393 0.1671
17 6 -22 -0.0948 0.2963
17 6 -19 -9.0486 0.7195
17 6 -16 -8.2791 -0.6097
17 6 -13 -27.2466 -0.8564
17 6 -10 -13.7113 -0.8499
17 6 -7 -34.9913 0.0074
17 6 -4 -43.4267 -0.0482
17 6 -1 23.1750 -0.2601
17 6 2 24.2287 0.6530
17 6 5 8.6972 1.0441
17 6 8 4.1321 0.9133
17 6 11 -17.4406 -0.2801
17 6 14 16.5873 -1.0058
17 6 17 -14.6147 -0.3435
17 6 20 13.9509 -0.1791
17 6 23 6.1242 0.2758
17 6 26 6.1592 0.1971
17 6 29 0.2606 0.2174
17 6 32 -1.0696 0.1133
17 6 35 -9.4575 0.0217
17 6 38 3.1004 -0.0525
17 6 41 -0.9473 -0.2356
17 6 44 14.1092 -0.0627
17 7 -44 -11.2543 -0.0076
17 7 -41 4.2250 0.0089
17 7 -38 -14.2418 -0.0913
17 7 -35 0.8880 0.0446
17 7 -32 5.5909 0.0496
17 7 -29 1.6591 -0.4118
17 7 -26 3.5610 0.1270
17 7 -23 -1.1814 -0.2837
17 7 -20 10.4851 0.4360
17 7 -17 -11.1649 0.5989
17 7 -14 3.5913 -0.1336
17 7 -11 7.5805 -0.1439
17 7 -8 26.4877 0.2346
17 7 -5 22.8855 0.7287
17 7 -2 76.0382 -0.5449
17 7 1 -6.4548 -0.8520
17 7 4 -40.2718 0.6796
17 7 7 27.0535 0.3799
17 7 10 -29.6077 -0.5339
17 7 13 -0.1574 -0.9116
17 7 16 11.6324 0.6850
17 7 19 4.6145 0.1682
17 7 22 -0.1535 -0.4290
17 7 25 -9.4638 -0.0332
17 7 28 -19.3197 0.2830
17 7 31 -10.2600 0.4653
17 7 34 -1.5541 -0.1123
17 7 37 -1.8038 -0.0094
17 7 40 3.1018 -0.0169
17 7 43 9.0155 -0.0433
17 8 -45 -9.0368 -0.1159
17 8 -42 18.3741 0.0661
17 8 -39 -8.8690 -0.0543
17 8 -36 -7.3832 -0.0996
17 8 -33 4.1770 0.3496
17 8 -30 -2.8686 -0.0900
17 8 -27 0.1454 0.0207
17 8 -24 -9.7188 0.2107
17 8 -21 -18.5403 -0.4823
17 8 -18 -10.4218 -0.2061
17 8 -15 -1.7461 0.1797
17 8 -12 10.6292 0.1946
17 8 -9 22.0566 0.3308
17 8 -6 1.1220 -0.2908
17 8 -3 -5.4537 -0.0665
17 8 0 9.0075 0.3230
17 8 3 -21.8313 -0.2905
17 8 6 3.1290 -0.6265
17 8 9 -9.7552 -0.4007
17 8 12 -5.1164 0.1614
17 8 15 -7.9834 0.6560
17 8 18 -6.6795 0.3186
17 8 21 -4.0868 -0.2244
17 8 24 -1.8529 -0.2700
17 8 27 -5.4756 -0.1169
17 8 30 4.9483 0.2499
17 8 33 5.0918 0.0147
17 8 36 1.3156 0.0011
17 8 39 -6.4087 0.1974
17 8 42 1.8786 -0.0108
17 8 45 0.7361 0.0493
17 9 -43 -11.0889 -0.0953
17 9 -40 -7.1342 -0.1114
17 9 -37 -1.9370 0.1569
17 9 -34 -4.9805 0.2263
17 9 -31 -3.5550 0.1353
17 9 -28 -7.5147 0.0859
17 9 -25 -2.4132 0.1629
17 9 -22 5.6701 -0.2546
17 9 -19 -4.1277 -0.7806
17 9 -16 -9.8365 -0.2876
17 9 -13 13.2503 0.2359
17 9 -10 -12.5717 0.0428
17 9 -7 28.5008 0.0047
17 9 -4 -0.4808 0.6095
17 9 -1 -4.2255 0.6018
17 9 2 -17.8941 -0.4445
17 9 5 38.1876 -0.1102
17 9 8 21.2150 -0.3732
17 9 11 2.1248 0.1698
17 9 14 -1.6369 0.0942
17 9 17 -8.3480 -0.0005
17 9 20 10.9249 0.0020
17 9 23 5.2559 -0.0250
17 9 26 -1.3734 -0.2668
17 9 29 5.1266 -0.0272
17 9 32 -9.7398 0.2104
17 9 35 1.1375 0.1083
17 9 38 -1.8103 0.0884
17 9 41 1.4003 -0.0028
17 9 44 -8.1198 0.0402
17 10 -44 0.9552 0.0559
17 10 -41 -9.3485 -0.1537
17 10 -38 15.4839 -0.0441
17 10 -35 -8.4252 -0.1121
17 10 -32 -8.3454 0.0874
17 10 -29 -7.7079 -0.0294
17 10 -26 -7.1745 0.0931
17 10 -23 -1.0812 0.4667
17 10 -20 -3.9820 0.4568
17 10 -17 12.6155 -0.1086
17 10 -14 -8.9850 -0.3039
17 10 -11 -10.3041 0.2555
17 10 -8 12.8818 -0.2786
17 10 -5 26.7587 -0.0414
17 10 -2 -14.9156 0.6228
17 10 1 10.4430 0.0979
17 10 4 -6.6129 -0.0751
17 10 7 5.8812 -0.0896
17 10 10 -13.2452 0.5326
17 10 13 3.5283 -0.5477
17 10 16 15.6910 -0.2766
17 10 19 -4.0667 0.0006
17 10 22 3.8056 0.2144
17 10 25 0.0707 0.3120
17 10 28 -0.6380 -0.0101
17 10 31 6.0036 -0.0105
17 10 34 2.1991 -0.1697
17 10 37 4.9840 0.0919
17 10 40 8.8287 0.1362
17 10 43 7.2835 -0.0586
17 11 -42 2.3479 -0.1264
17 11 -39 -0.0231 0.0082
17 11 -36 7.4314 -0.0125
17 11 -33 -2.9106 0.2616
17 11 -30 12.9208 -0.0461
17 11 -27 -2.3744 -0.1410
17 11 -24 1.1930 0.0471
17 11 -21 5.1409 -0.2684
17 11 -18 -3.1297 0.1503
17 11 -15 0.9571 -0.4795
17 11 -12 3.3492 0.0384
17 11 -9 -4.9495 0.6482
17 11 -6 7.9603 -0.1193
17 11 -3 2.4517 0.3103
17 11 0 28.1385 -0.2619
17 11 3 2.6174 -0.4445
17 11 6 -19.1975 -0.2351
17 11 9 13.7379 -0.3175
17 11 12 1.2093 0.4227
17 11 15 -1.0825 0.4640
17 11 18 -11.3369 -0.1760
17 11 21 -16.7186 0.3335
17 11 24 2.3543 0.5476
17 11 27 2.7632 -0.3128
17 11 30 -14.5821 -0.4922
17 11 33 5.6323 -0.2765
17 11 36 18.4024 0.1581
17 11 39 9.3447 0.2167
17 11 42 16.3891 -0.0543
17 12 -43 -20.6426 0.0054
17 12 -40 -11.9177 0.0198
17 12 -37 4.6465 -0.0283
17 12 -34 1.4208 0.0791
17 12 -31 -3.9855 -0.0767
17 12 -28 0.8043 -0.1385
17 12 -25 -2.6122 -0.1501
17 12 -22 -2.7237 -0.0775
17 12 -19 15.5258 0.0135
17 12 -16 -0.4664 0.3252
17 12 -13 -3.7771 0.3676
17 12 -10 -0.3816 -0.4245
17 12 -7 -4.3156 0.1972
17 12 -4 14.7060 -0.0360
17 12 -1 13.8145 -0.8722
17 12 2 25.0168 -0.0547
17 12 5 -16.9963 0.0575
17 12 8 -7.6815 0.6801
17 12 11 -28.6847 0.1852
17 12 14 -5.4533 -0.2849
17 12 17 -2.4243 0.6848
17 12 20 -1.8814 -0.0372
17 12 23 -6.8364 -0.1724
17 12 26 -0.9058 -0.4183
17 12 29 -2.9479 -0.1553
17 12 32 2.4038 0.3245
17 12 35 -10.9752 -0.1421
17 12 38 -8.3356 -0.0215
17 12 41 14.0239 -0.0175
17 12 44 -3.6745 0.0416
17 13 -41 -1.1754 -0.1716
17 13 -38 4.4633 -0.1330
17 13 -35 -5.9256 0.2475
17 13 -32 11.9090 -0.0801
17 13 -29 -0.1770 0.1161
17 13 -26 -7.9908 0.1776
17 13 -23 3.5811 0.0621
17 13 -20 -14.8499 0.3257
17 13 -17 -4.0848 -0.0481
17 13 -14 -1.0484 -0.0588
17 13 -11 -9.3553 -0.5017
17 13 -8 -26.1989 -0.1901
17 13 -5 -2.0063 0.9687
17 13 -2 -14.5856 -0.5630
17 13 1 2.6856 -0.3492
17 13 4 13.0709 0.9931
17 13 7 10.8302 0.1077
17 13 10 9.9339 -0.0573
17 13 13 5.7513 -0.7751
17 13 16 19.5361 0.5899
17 13 19 8.4069 0.7058
17 13 22 14.3724 -0.9200
17 13 25 0.9593 0.0891
17 13 28 -4.1956 0.2960
17 13 31 9.0747 0.3055
17 13 34 -0.5012 -0.0290
17 13 37 13.3699 -0.4578
17 13 40 -1.5495 0.0213
17 13 43 8.1780 -0.0992
17 14 -42 -11.1972 -0.0006
17 14 -39 -6.5112 -0.0306
17 14 -36 10.3334 0.1035
17 14 -33 -6.2453 0.1009
17 14 -30 -4.3612 -0.0076
17 14 -27 17.7217 -0.3886
17 14 -24 -2.8432 -0.3518
17 14 -21 0.3135 -0.0807
17 14 -18 5.9471 -0.1030
17 14 -15 4.8498 0.0456
17 14 -12 -2.2787 0.3036
17 14 -9 -16.0928 0.3000
17 14 -6 -3.1133 0.6637
17 14 -3 -18.9318 0.1214
17 14 0 -6.3025 -0.5185
17 14 3 -1.7082 -0.2101
17 14 6 -14.0834 -0.5654
17 14 9 1.0486 -0.2914
17 14 12 9.0121 0.0710
17 14 15 -3.1119 -0.0477
17 14 18 2.1661 0.4779
17 14 21 2.4982 -0.0036
17 14 24 19.8738 0.1220
17 14 27 -6.6429 0.3416
17 14 30 8.8422 -0.0559
17 14 33 9.4179 -0.1191
17 14 36 6.4402 -0.3492
17 14 39 -10.2554 -0.0333
17 14 42 2.6258 0.0879
17 15 -40 -0.6917 -0.0088
17 15 -37 9.0153 -0.2271
17 15 -34 11.2205 -0.0947
17 15 -31 -1.6110 0.4381
17 15 -28 7.2284 -0.0008
17 15 -25 -3.2306 -0.1091
17 15 -22 3.7898 0.0231
17 15 -19 0.4987 0.0172
17 15 -16 5.3776 0.1687
17 15 -13 17.6653 -0.4412
17 15 -10 -0.0755 -0.7151
17 15 -7 2.2577 0.0631
17 15 -4 -0.0333 0.5121
17 15 -1 11.6278 -0.0467
17 15 2 -6.1441 -0.2067
17 15 5 -1.4043 -0.0872
17 15 8 4.7651 0.7052
17 15 11 -2.2145 -0.0210
17 15 14 -0.0879 -0.3582
17 15 17 15.0570 -0.2314
17 15 20 0.7985 0.0331
17 15 23 9.6442 0.1545
17 15 26 4.7594 0.0803
17 15 29 -2.8023 -0.1130
17 15 32 -6.9547 -0.1444
17 15 35 -15.6871 0.0948
17 15 38 5.0206 0.1995
17 15 41 -6.3811 -0.0599
17 16 -41 -10.6379 0.0465
17 16 -38 -6.5181 -0.0994
17 16 -35 2.7176 -0.0496
17 16 -32 -2.6410 0.1426
17 16 -29 4.0002 0.2603
17 16 -26 5.7280 0.0496
17 16 -23 -11.4014 -0.0400
17 16 -20 0.1912 0.1056
17 16 -17 4.5849 -0.4224
17 16 -14 -5.2372 -0.0266
17 16 -11 6.4679 0.0471
17 16 -8 -8.8228 -0.2902
17 16 -5 -0.6606 0.1967
17 16 -2 1.2799 0.3275
17 16 1 -24.7935 0.1219
17 16 4 -2.6868 -0.2921
17 16 7 -3.6987 -0.0273
17 16 10 -7.0749 0.6252
17 16 13 -5.7469 -0.3856
17 16 16 -1.0363 -0.2464
17 16 19 9.2623 0.0957
17 16 22 6.2899 0.1062
17 16 25 -4.5766 -0.0219
17 16 28 8.3643 -0.4611
17 16 31 15.7888 0.1486
17 16 34 2.6813 0.3684
17 16 37 1.0717 0.0044
17 16 40 -10.0617 0.0362
17 17 0 -7.1847 0.1180
17 17 3 3.8492 0.3604
17 17 6 -5.9473 -0.1205
17 17 9 1.0528 0.0442
17 17 12 1.6048 0.0819
17 17 15 -0.0578 -0.1632
17 17 18 14.9486 0.1504
17 17 21 3.0444 -0.4170
17 17 24 3.5539 0.0130
17 17 27 0.2656 0.1982
17 17 30 3.2186 -0.1672
17 17 33 -1.0264 0.2977
17 17 36 5.1021 -0.0762
17 17 39 -3.3363 0.0683
18 0 -42 -3.0934 -0.0666
18 0 -36 5.9492 -0.8622
18 0 -30 5.9077 0.7474
18 0 -24 13.6011 2.0160
18 0 -18 3.5389 4.7920
18 0 -12 1.5853 -9.5104
18 0 -6 -14.9334 -1.0107
18 0 0 76.0884 -2.2895
18 0 6 -77.5898 14.2279
18 0 12 66.3731 -3.6677
18 0 18 8.8130 -2.6943
18 0 24 -0.5896 -2.2831
18 0 30 -15.0990 1.4404
18 0 36 -12.3542 0.3946
18 0 42 -0.6116 -0.0966
18 1 -46 5.0640 0.1017
18 1 -43 0.3535 0.0353
18 1 -40 -0.5296 -0.1354
18 1 -37 9.5980 0.1818
18 1 -34 6.7397 -0.1571
18 1 -31 -9.3734 -0.1007
18 1 -28 -6.8374 -0.3278
18 1 -25 -2.3971 0.9001
18 1 -22 0.3908 1.1351
18 1 -19 7.2223 -2.0372
18 1 -16 39.0669 -0.0470
18 1 -13 -6.6970 1.0207
18 1 -10 37.1150 -1.1437
18 1 -7 -28.0953 -0.8652
18 1 -4 41.1552 -1.7594
18 1 -1 -35.1381 3.4495
18 1 2 -19.6200 0.9403
18 1 5 26.3701 -0.5916
18 1 8 2.5582 1.0720
18 1 11 -17.9242 -2.0326
18 1 14 5.8502 -0.2801
18 1 17 12.8784 -0.0449
18 1 20 8.7204 -0.5679
18 1 23 4.4212 0.8466
18 1 26 5.7768 -0.2432
18 1 29 -2.2278 0.0964
18 1 32 -9.0222 0.0686
18 1 35 -0.3163 -0.0328
18 1 38 -0.9756 0.0808
18 1 41 11.3899 -0.3334
18 1 44 1.1213 0.1485
18 2 -44 -19.7578 0.0405
18 2 -41 14.9395 -0.0723
18 2 -38 12.6747 0.1264
18 2 -35 -2.2850 -0.1672
18 2 -32 1.8635 0.3099
18 2 -29 9.1169 -0.1563
18 2 -26 -4.8988 -0.4174
18 2 -23 -3.7064 0.4004
18 2 -20 -5.1889 -0.2502
18 2 -17 1.7073 0.5697
18 2 -14 6.5450 2.1128
18 2 -11 2.9779 0.4838
18 2 -8 -12.1494 -0.4441
18 2 -5 2.8199 -1.0642
18 2 -2 8.5935 -0.9755
18 2 1 11.2082 0.2032
18 2 4 29.7469 -2.1312
18 2 7 29.7630 0.1133
18 2 10 8.7884 1.9846
18 2 13 -17.1351 0.4785
18 2 16 4.9191 1.5991
18 2 19 -1.1746 -0.1968
18 2 22 -2.3468 -0.1472
18 2 25 16.8624 0.1491
18 2 28 -4.7873 -0.3748
18 2 31 -4.0242 0.3001
18 2 34 14.1499 -0.4353
18 2 37 -1.7564 -0.0649
18 2 40 3.8711 0.1424
18 2 43 -4.8333 -0.0338
18 2 46 5.5263 0.0936
18 3 -45 -13.8110 -0.0414
18 3 -42 -13.3208 0.0276
18 3 -39 -7.1996 -0.2082
18 3 -36 -0.8958 -0.3886
18 3 -33 -2.3439 0.4468
18 3 -30 8.6073 0.2933
18 3 -27 1.1701 0.1232
18 3 -24 -1.1305 0.5162
18 3 -21 6.6435 0.3801
18 3 -18 -0.1336 -0.3359
18 3 -15 21.3867 -1.5394
18 3 -12 6.7449 0.6918
18 3 -9 -29.5415 1.1804
18 3 -6 -1.0758 -1.4932
18 3 -3 -54.3392 -0.4844
18 3 0 -13.3235 1.8250
18 3 3 1.4625 2.0229
18 3 6 -35.5729 -2.1502
18 3 9 -72.4396 -1.8804
18 3 12 20.6865 2.3100
18 3 15 -11.1674 0.6382
18 3 18 1.8474 -0.7676
18 3 21 4.0848 -0.9866
18 3 24 0.7397 0.7203
18 3 27 -5.2319 0.6672
18 3 30 4.4198 -0.2662
18 3 33 -5.5044 -0.2435
18 3 36 -8.5823 0.0080
18 3 39 8.6473 0.1749
18 3 42 -4.9289 0.0028
18 3 45 2.5187 -0.1141
18 4 -46 -14.4392 0.0359
18 4 -43 -20.2556 0.1450
18 4 -40 -15.9465 0.0283
18 4 -37 0.1557 -0.2461
18 4 -34 8.8277 -0.3308
18 4 -31 15.2581 0.2645
18 4 -28 2.5496 0.2079
18 4 -25 -15.2091 -0.4696
18 4 -22 20.5862 -0.1712
18 4 -19 -14.8497 0.7305
18 4 -16 14.8898 0.4790
18 4 -13 -9.3692 -1.3364
18 4 -10 -13.4902 -0.5567
18 4 -7 -29.1983 1.5539
18 4 -4 -22.7658 0.3067
18 4 -1 -17.6085 -1.1908
18 4 2 -0.1227 0.2765
18 4 5 -14.0100 0.9428
18 4 8 13.6646 0.1123
18 4 11 35.5644 -0.9981
18 4 14 -11.7717 -0.6447
18 4 17 7.3706 0.1644
18 4 20 -3.1256 -0.3752
18 4 23 -4.3579 -0.0925
18 4 26 -17.1710 0.1423
18 4 29 -0.4175 0.1393
18 4 32 0.7089 0.3703
18 4 35 -7.8982 0.0621
18 4 38 13.4906 0.0370
18 4 41 11.9296 -0.1596
18 4 44 10.3153 -0.0721
18 5 -44 -12.5630 0.0803
18 5 -41 -5.5943 0.0731
18 5 -38 -0.0544 -0.0005
18 5 -35 -5.0917 -0.4450
18 5 -32 -13.2978 0.1403
18 5 -29 0.5421 0.4988
18 5 -26 -2.4813 -0.0313
18 5 -23 10.2620 0.1023
18 5 -20 -3.3706 0.4053
18 5 -17 -3.1832 0.8380
18 5 -14 -5.8702 -0.9843
18 5 -11 -15.5991 -1.9280
18 5 -8 -27.6079 0.1285
18 5 -5 10.8330 0.2386
18 5 -2 12.8093 -0.2619
18 5 1 21.5779 0.2040
18 5 4 16.6827 1.3040
18 5 7 1.9179 1.9792
18 5 10 24.0318 -0.5939
18 5 13 -0.0828 -0.8731
18 5 16 -13.6506 -0.5211
18 5 19 3.6150 -0.0435
18 5 22 1.7878 0.1903
18 5 25 3.3941 -0.4743
18 5 28 10.8317 -0.0931
18 5 31 -0.9352 0.3698
18 5 34 -5.8424 0.0887
18 5 37 1.8620 0.1147
18 5 40 6.7260 -0.0851
18 5 43 -0.9020 -0.0941
18 6 -45 -8.0469 0.1010
18 6 -42 6.0687 -0.0703
18 6 -39 -14.9756 0.1529
18 6 -36 -8.2433 -0.1366
18 6 -33 0.5029 -0.1565
18 6 -30 -3.3238 0.3171
18 6 -27 4.6775 0.0598
18 6 -24 0.9330 -0.0050
18 6 -21 -5.8951 -0.2156
18 6 -18 4.4297 -0.0184
18 6 -15 6.4593 0.6959
18 6 -12 6.8918 -1.1692
18 6 -9 -19.6904 -0.7385
18 6 -6 -22.3698 1.9170
18 6 -3 -1.8918 0.2263
18 6 0 -39.8073 -0.0022
18 6 3 -12.8235 -0.3510
18 6 6 20.9664 0.9225
18 6 9 1.6840 0.9753
18 6 12 2.2208 -2.2326
18 6 15 -6.4421 0.1316
18 6 18 -3.5161 0.9027
18 6 21 -2.5783 -0.2331
18 6 24 3.8699 0.2173
18 6 27 -3.6132 -0.5525
18 6 30 -11.2104 0.3312
18 6 33 2.6562 0.1567
18 6 36 4.6525 -0.1852
18 6 39 7.6730 0.1382
18 6 42 -4.4312 0.0755
18 6 45 -0.3875 0.0729
18 7 -43 -3.8640 -0.0022
18 7 -40 -1.7270 0.0308
18 7 -37 -3.9477 -0.1300
18 7 -34 1.0159 -0.1870
18 7 -31 -1.8834 -0.1676
18 7 -28 -0.4610 -0.1904
18 7 -25 -5.0546 0.1637
18 7 -22 -2.7062 0.2539
18 7 -19 2.6306 0.2590
18 7 -16 7.6970 0.5600
18 7 -13 18.5748 0.4223
18 7 -10 -14.6445 0.0453
18 7 -7 -0.1415 -0.6049
18 7 -4 2.7506 -0.3242
18 7 -1 10.9940 -0.2497
18 7 2 -7.2439 -0.4824
18 7 5 35.7555 -0.4269
18 7 8 -41.3869 0.4580
18 7 11 20.5390 0.4703
18 7 14 -7.5427 0.3543
18 7 17 -27.5893 0.5163
18 7 20 19.6337 -0.3461
18 7 23 -2.9459 -0.3488
18 7 26 -11.6347 -0.1425
18 7 29 -4.0306 -0.1124
18 7 32 -0.0379 -0.0116
18 7 35 -5.6260 -0.1408
18 7 38 -9.4690 0.2093
18 7 41 8.1434 0.2178
18 7 44 2.0553 -0.0132
18 8 -44 -14.0154 0.1414
18 8 -41 17.6926 -0.0262
18 8 -38 -3.1060 -0.0219
18 8 -35 4.0981 0.2137
18 8 -32 -1.0324 0.1526
18 8 -29 -11.7595 -0.1353
18 8 -26 -10.3838 -0.3057
18 8 -23 3.3170 -0.1683
18 8 -20 -9.6344 -0.5545
18 8 -17 -0.5753 -0.0993
18 8 -14 5.3866 -0.2457
18 8 -11 -14.5163 0.4907
18 8 -8 14.4972 0.1205
18 8 -5 -5.6645 -0.4041
18 8 -2 2.0711 0.9961
18 8 1 12.2974 0.3620
18 8 4 35.1604 -0.9385
18 8 7 -28.0797 -0.4455
18 8 10 -1.4836 0.4283
18 8 13 14.9910 0.8368
18 8 16 -1.8897 -0.4251
18 8 19 -6.5063 -0.1481
18 8 22 -0.3971 -0.1168
18 8 25 0.3813 0.2824
18 8 28 2.6916 -0.2886
18 8 31 8.2607 -0.2061
18 8 34 -15.6069 -0.0632
18 8 37 7.5228 -0.0390
18 8 40 -9.2707 0.1419
18 8 43 -10.4644 -0.0152
18 9 -42 1.1326 -0.0261
18 9 -39 -4.4393 -0.0304
18 9 -36 -1.9595 -0.0844
18 9 -33 2.5873 -0.0148
18 9 -30 -4.6236 0.4195
18 9 -27 5.6358 -0.1126
18 9 -24 -2.4554 -0.1235
18 9 -21 -16.7058 0.0212
18 9 -18 11.0095 0.1728
18 9 -15 5.8531 -0.2103
18 9 -12 9.5720 -0.3356
18 9 -9 8.6880 0.4708
18 9 -6 -16.2864 0.1280
18 9 -3 -8.8866 -0.0371
18 9 0 27.5282 0.4423
18 9 3 -6.8898 0.2475
18 9 6 34.9708 -0.4476
18 9 9 -7.8073 -0.7288
18 9 12 -8.0788 0.1390
18 9 15 3.8349 -0.1567
18 9 18 -3.2351 -0.1517
18 9 21 3.7439 0.3306
18 9 24 14.3151 0.3860
18 9 27 -16.5595 0.2649
18 9 30 2.6149 -0.1015
18 9 33 -3.1983 -0.1663
18 9 36 11.2519 -0.3120
18 9 39 5.3299 -0.1149
18 9 42 13.3381 0.0229
18 10 -43 -2.1671 0.0344
18 10 -40 -3.4464 -0.0631
18 10 -37 3.9302 -0.2294
18 10 -34 2.1661 -0.1474
18 10 -31 2.0677 0.0606
18 10 -28 -6.6705 0.2406
18 10 -25 2.1127 0.2441
18 10 -22 1.8077 0.0749
18 10 -19 -14.6613 0.2912
18 10 -16 3.6684 -0.1103
18 10 -13 -1.0290 -0.2746
18 10 -10 21.2238 -0.1457
18 10 -7 12.1610 -0.2277
18 10 -4 -3.3384 0.2441
18 10 -1 4.1632 -0.2014
18 10 2 -25.0664 -0.0163
18 10 5 -1.4627 0.0981
18 10 8 7.0457 -0.2417
18 10 11 -28.0286 -0.2148
18 10 14 2.8920 0.0233
18 10 17 -1.7472 0.2772
18 10 20 9.1909 0.1878
18 10 23 -6.7968 0.0905
18 10 26 2.9552 0.3412
18 10 29 2.8117 -0.3421
18 10 32 3.7841 -0.1880
18 10 35 -2.9194 -0.0332
18 10 38 -3.5681 -0.1244
18 10 41 -0.0924 -0.0334
18 10 44 -1.7063 -0.1269
18 11 -41 -17.2672 0.2215
18 11 -38 1.4624 -0.1125
18 11 -35 -18.4358 -0.0683
18 11 -32 -4.9085 -0.1170
18 11 -29 -4.8669 -0.3520
18 11 -26 -6.7122 -0.2548
18 11 -23 -0.5068 -0.1483
18 11 -20 11.7218 0.1569
18 11 -17 3.9679 0.4476
18 11 -14 -16.0996 0.1385
18 11 -11 0.0877 0.1131
18 11 -8 44.7134 -0.0481
18 11 -5 -10.0543 -0.3022
18 11 -2 16.6410 -0.3207
18 11 1 -14.1707 -0.5825
18 11 4 21.9122 0.1409
18 11 7 -11.9993 0.5902
18 11 10 9.8593 -0.0540
18 11 13 30.5100 -0.0191
18 11 16 5.2122 -0.4171
18 11 19 -1.4103 0.4418
18 11 22 -0.0648 -0.0577
18 11 25 -6.5746 -0.4612
18 11 28 4.9996 -0.1582
18 11 31 17.2717 0.2644
18 11 34 2.5774 0.3587
18 11 37 5.2120 -0.0925
18 11 40 -5.6946 -0.1747
18 11 43 0.9421 -0.0049
18 12 -42 -22.7910 0.1386
18 12 -39 9.9237 -0.0603
18 12 -36 15.2125 0.0239
18 12 -33 4.0374 0.0116
18 12 -30 3.5139 0.2102
18 12 -27 4.8173 0.0191
18 12 -24 1.8183 -0.0540
18 12 -21 -10.8391 0.1097
18 12 -18 9.0148 -0.0041
18 12 -15 4.6749 0.4211
18 12 -12 -4.1510 -0.6529
18 12 -9 6.7849 -0.5755
18 12 -6 18.3813 0.1500
18 12 -3 2.7688 -0.0651
18 12 0 15.3487 0.1579
18 12 3 -13.3112 0.5841
18 12 6 -17.7292 0.6473
18 12 9 -7.7378 -0.0386
18 12 12 -8.3680 -0.7943
18 12 15 4.3415 -0.3170
18 12 18 2.1107 0.1834
18 12 21 18.1209 -0.4489
18 12 24 17.2950 -0.3211
18 12 27 -5.3629 0.4014
18 12 30 8.0679 0.4372
18 12 33 1.1591 0.1589
18 12 36 -4.9031 -0.1011
18 12 39 5.9325 -0.1055
18 12 42 -10.6518 -0.1235
18 13 -43 -6.4913 0.0128
18 13 -40 8.5360 -0.0919
18 13 -37 1.7167 0.1274
18 13 -34 -11.1117 -0.0189
18 13 -31 7.2332 0.0389
18 13 -28 -0.4513 0.0489
18 13 -25 0.5612 -0.1666
18 13 -22 -5.1469 0.1709
18 13 -19 2.7689 -0.0040
18 13 -16 -9.3499 -0.5378
18 13 -13 -16.7236 0.3428
18 13 -10 10.8462 0.4490
18 13 -7 7.6755 -0.5077
18 13 -4 -6.3985 -0.2238
18 13 -1 10.9428 -0.1638
18 13 2 -14.6802 0.2845
18 13 5 9.5747 -0.0402
18 13 8 21.3740 -0.6444
18 13 11 -25.3860 0.4646
18 13 14 2.1001 -0.1373
18 13 17 9.8640 0.0020
18 13 20 -3.5002 -0.0678
18 13 23 4.3598 -0.3169
18 13 26 20.4144 0.3371
18 13 29 -12.5050 -0.0445
18 13 32 -1.8404 0.0808
18 13 35 -19.8759 -0.0930
18 13 38 10.3410 -0.0222
18 13 41 -14.0656 0.2327
18 14 -41 -7.0692 -0.0565
18 14 -38 -12.1862 -0.1145
18 14 -35 7.4318 -0.2901
18 14 -32 1.7901 -0.0058
18 14 -29 -8.9932 -0.0412
18 14 -26 3.8110 -0.1126
18 14 -23 2.9835 0.0368
18 14 -20 3.0671 0.3331
18 14 -17 8.4955 0.5337
18 14 -14 5.9838 -0.1867
18 14 -11 -2.2506 0.1789
18 14 -8 2.6589 -0.2326
18 14 -5 -2.9878 -0.5254
18 14 -2 -9.6900 0.2315
18 14 1 -9.4499 -0.0802
18 14 4 3.6097 -0.3285
18 14 7 16.2697 -0.0894
18 14 10 -14.9341 0.5461
18 14 13 23.7106 0.5315
18 14 16 -0.3874 -0.7117
18 14 19 -0.9015 0.1355
18 14 22 0.4565 0.0232
18 14 25 -3.2362 0.0093
18 14 28 -3.6889 -0.0865
18 14 31 15.3887 -0.5056
18 14 34 0.4055 0.1221
18 14 37 -17.7221 0.2400
18 14 40 9.7838 0.1962
18 15 -42 -11.3640 0.1078
18 15 -39 3.3510 -0.0371
18 15 -36 3.4120 -0.0458
18 15 -33 6.9327 0.1040
18 15 -30 1.9283 0.0860
18 15 -27 3.7266 0.2073
18 15 -24 -5.1686 -0.3715
18 15 -21 -23.3719 -0.1613
18 15 -18 -3.3526 0.1882
18 15 -15 -3.0372 -0.3149
18 15 -12 0.5741 -0.1447
18 15 -9 1.4756 0.1970
18 15 -6 -2.2016 0.1693
18 15 -3 -10.3670 0.3930
18 15 0 -12.4541 -0.1537
18 15 3 -4.2952 -0.0795
18 15 6 -4.6275 0.3699
18 15 9 -6.1316 0.0318
18 15 12 4.3978 0.2582
18 15 15 3.8910 -0.2230
18 15 18 -6.5711 -0.3229
18 15 21 5.3278 0.5418
18 15 24 11.2942 -0.2392
18 15 27 -6.8706 -0.1150
18 15 30 0.8047 -0.2183
18 15 33 -15.7390 0.0651
18 15 36 -1.3251 0.2951
18 15 39 -3.6807 -0.1240
18 15 42 2.1061 0.0939
18 16 -40 -2.3990 -0.0860
18 16 -37 -5.6929 -0.0677
18 16 -34 -1.1689 0.0961
18 16 -31 -4.0771 -0.2284
18 16 -28 -0.7426 0.1511
18 16 -25 -8.3334 0.0414
18 16 -22 7.1190 -0.3256
18 16 -19 0.3693 0.1727
18 16 -16 0.5551 0.1699
18 16 -13 -8.8964 0.1855
18 16 -10 -24.2094 -0.1820
18 16 -7 -7.1584 -0.3725
18 16 -4 17.2955 0.2442
18 16 -1 -1.8357 -0.0829
18 16 2 2.5565 -0.5815
18 16 5 -2.8799 0.3755
18 16 8 -10.0506 0.0224
18 16 11 -4.3282 -0.0940
18 16 14 4.4796 -0.1359
18 16 17 2.7511 -0.0339
18 16 20 -1.2661 0.2916
18 16 23 -3.5748 -0.2625
18 16 26 0.2135 -0.3648
18 16 29 -6.5999 0.3218
18 16 32 2.9277 0.0888
18 16 35 -4.8022 -0.0703
18 16 38 -10.1867 -0.0959
18 16 41 7.8949 -0.0971
18 17 -41 6.0868 -0.1683
18 17 -38 2.8324 -0.1764
18 17 -35 -5.6952 0.1473
18 17 -32 -10.5866 -0.1486
18 17 -29 0.7052 -0.1045
18 17 -26 -0.0318 0.4724
18 17 -23 -3.3859 0.2373
18 17 -20 12.8066 -0.0152
18 17 -17 9.0279 -0.1104
18 17 -14 7.3274 -0.0376
18 17 -11 -9.0204 0.1652
18 17 -8 7.4386 -0.6052
18 17 -5 -1.7950 -0.1581
18 17 -2 -3.2056 0.4177
18 17 1 4.9245 0.1984
18 17 4 3.1993 0.2471
18 17 7 35.3191 -0.4423
18 17 10 -9.0973 -0.1054
18 17 13 11.9931 0.2377
18 17 16 -8.9498 0.0070
18 17 19 6.6092 0.0871
18 17 22 -1.8386 0.0663
18 17 25 17.8840 0.2099
18 17 28 14.9390 0.1448
18 17 31 -8.8719 -0.0554
18 17 34 -13.5102 -0.1241
18 17 37 -4.0915 -0.2787
18 17 40 16.1008 -0.0639
18 18 0 6.7114 -0.1747
18 18 3 3.3108 -0.1939
18 18 6 -8.5574 -0.2373
18 18 9 8.6812 -0.1639
18 18 12 8.7978 0.4678
18 18 15 -9.8170 -0.0620
18 18 18 8.2409 -0.0413
18 18 21 6.5592 0.2752
18 18 24 -1.3924 -0.1033
18 18 27 -1.0396 0.1576
18 18 30 -2.6201 -0.0893
18 18 33 -2.0742 -0.1429
18 18 36 4.7557 0.0187
18 18 39 6.3775 -0.0530
19 0 -44 14.8299 0.1215
19 0 -38 16.7049 -0.1958
19 0 -32 -12.6621 -0.4472
19 0 -26 -11.0144 -0.5705
19 0 -20 -1.9113 3.8016
19 0 -14 -6.1614 -4.3669
19 0 -8 -4.4633 -0.1429
19 0 -2 54.1863 -0.8602
19 0 4 -22.3566 7.3133
19 0 10 -17.5610 -1.8417
19 0 16 -21.2489 -4.4232
19 0 22 17.1282 0.3841
19 0 28 14.7454 0.6244
19 0 34 20.2791 0.7304
19 0 40 -9.4796 -0.3989
19 0 46 -15.2795 -0.0180
19 1 -45 2.0713 0.0337
19 1 -42 4.6814 0.0710
19 1 -39 5.4613 0.2956
19 1 -36 -12.9726 0.2477
19 1 -33 -3.5829 -0.3945
19 1 -30 5.0637 -0.4534
19 1 -27 2.8448 -0.6058
19 1 -24 -2.6836 -0.8959
19 1 -21 1.5589 0.1582
19 1 -18 9.2049 -0.5036
19 1 -15 5.5170 1.7291
19 1 -12 14.1924 2.7829
19 1 -9 9.2484 0.9200
19 1 -6 27.5779 0.1915
19 1 -3 12.3275 -1.8963
19 1 0 -74.3535 -1.0470
19 1 3 -9.9200 -1.7671
19 1 6 27.8306 -2.5154
19 1 9 55.4557 1.6095
19 1 12 -4.3504 1.3472
19 1 15 -19.8667 1.8656
19 1 18 -5.1357 0.0280
19 1 21 -5.4369 -0.1367
19 1 24 -2.1521 0.5024
19 1 27 2.2401 -0.6298
19 1 30 -1.5537 -0.2208
19 1 33 -5.7322 0.2307
19 1 36 7.9047 0.0259
19 1 39 0.0143 -0.0088
19 1 42 -5.2335 -0.0464
19 1 45 -12.2901 0.1001
19 2 -46 -13.5543 -0.0842
19 2 -43 1.6650 -0.0063
19 2 -40 10.7411 0.1602
19 2 -37 -9.7700 -0.0277
19 2 -34 5.0843 0.0319
19 2 -31 -1.9581 -0.2530
19 2 -28 -5.5417 0.3873
19 2 -25 2.5076 -0.0576
19 2 -22 4.7890 -0.0358
19 2 -19 -3.3909 0.5241
19 2 -16 -14.3266 -0.0311
19 2 -13 -25.9237 0.8921
19 2 -10 30.3524 -1.2624
19 2 -7 7.4024 -0.7477
19 2 -4 -25.5104 -0.3961
19 2 -1 -4.7009 -0.6527
19 2 2 -16.1012 1.1961
19 2 5 -12.0840 -0.7790
19 2 8 9.3057 1.2158
19 2 11 -27.2095 2.2962
19 2 14 40.2415 -0.1033
19 2 17 -21.0436 -0.3409
19 2 20 1.4556 -1.7530
19 2 23 -23.8541 -0.0700
19 2 26 2.8377 0.1359
19 2 29 0.2971 -0.3127
19 2 32 -4.4098 0.1201
19 2 35 9.4652 0.0319
19 2 38 -6.5307 0.3874
19 2 41 -3.5921 0.1168
19 2 44 6.5064 -0.2404
19 3 -44 18.1016 -0.0248
19 3 -41 3.2829 0.0409
19 3 -38 8.0207 0.0239
19 3 -35 4.6606 0.1886
19 3 -32 3.9617 -0.3059
19 3 -29 -4.7295 0.1983
19 3 -26 -4.8607 0.5766
19 3 -23 8.9577 -0.4615
19 3 -20 -7.2500 -1.2027
19 3 -17 2.9126 -0.7056
19 3 -14 7.4568 1.4637
19 3 -11 -11.2503 0.4387
19 3 -8 47.3484 -1.5119
19 3 -5 -9.8814 1.1930
19 3 -2 -23.1113 1.4265
19 3 1 0.3450 0.0994
19 3 4 -21.7518 -2.0854
19 3 7 -9.7312 -1.8284
19 3 10 -3.2297 2.0964
19 3 13 -8.4055 -0.3889
19 3 16 24.5613 -0.8804
19 3 19 -1.2933 0.2555
19 3 22 -0.3073 0.0944
19 3 25 -6.3705 0.5923
19 3 28 2.6618 -0.5755
19 3 31 -1.7596 -0.1515
19 3 34 -20.0454 0.3729
19 3 37 3.2310 -0.0332
19 3 40 -8.8163 0.1655
19 3 43 0.6643 -0.0945
19 4 -45 -14.1764 0.0888
19 4 -42 15.2432 0.0350
19 4 -39 -2.0218 0.0671
19 4 -36 -7.7298 -0.0357
19 4 -33 15.5265 -0.6347
19 4 -30 10.4575 0.0262
19 4 -27 0.5202 0.0688
19 4 -24 -1.0090 0.1538
19 4 -21 -2.1259 0.2016
19 4 -18 3.7004 -0.1916
19 4 -15 -14.3648 0.8525
19 4 -12 8.1591 -0.3057
19 4 -9 -1.1938 -0.7286
19 4 -6 -12.9203 0.3084
19 4 -3 11.5683 -0.4861
19 4 0 34.7160 -0.3575
19 4 3 -10.8705 0.1255
19 4 6 -15.9365 0.3611
19 4 9 29.9384 0.2176
19 4 12 1.1160 -0.8070
19 4 15 0.1821 -0.2429
19 4 18 5.2712 1.0997
19 4 21 11.2673 0.0595
19 4 24 3.5287 -0.1704
19 4 27 -9.0447 -0.0317
19 4 30 -5.6647 -0.0912
19 4 33 4.5563 0.2012
19 4 36 -14.7732 -0.2675
19 4 39 11.1186 -0.0671
19 4 42 -6.4731 0.0716
19 4 45 -1.1626 -0.0000
19 5 -43 -6.8107 0.0207
19 5 -40 4.8691 0.0709
19 5 -37 -0.5407 0.1841
19 5 -34 -0.9518 -0.0242
19 5 -31 0.5882 -0.0529
19 5 -28 1.1271 -0.1151
19 5 -25 5.1335 -0.1276
19 5 -22 11.8226 -0.1559
19 5 -19 7.7457 -0.9601
19 5 -16 -13.4916 -0.0420
19 5 -13 12.2997 0.2387
19 5 -10 11.0579 0.3800
19 5 -7 16.5063 0.3636
19 5 -4 23.3217 0.6386
19 5 -1 -4.4722 0.9325
19 5 2 25.3634 -0.9925
19 5 5 -3.3627 -0.3731
19 5 8 31.3240 -0.3254
19 5 11 -23.0076 -1.0209
19 5 14 -10.3994 -0.2901
19 5 17 11.1713 0.5069
19 5 20 7.0267 1.0940
19 5 23 7.1239 -0.0287
19 5 26 7.2089 -0.3666
19 5 29 -3.4954 -0.0446
19 5 32 -6.8846 -0.1634
19 5 35 -12.9663 -0.1402
19 5 38 11.9144 -0.1660
19 5 41 -21.8980 0.0832
19 5 44 2.8287 0.1514
19 6 -44 -10.2344 -0.0056
19 6 -41 -7.5868 0.1176
19 6 -38 -1.0560 0.1053
19 6 -35 10.5645 -0.0163
19 6 -32 11.1912 -0.0986
19 6 -29 16.2670 0.1496
19 6 -26 4.0316 -0.3482
19 6 -23 8.5680 -0.3344
19 6 -20 7.1094 -0.1875
19 6 -17 -0.8742 0.1443
19 6 -14 1.6115 1.0641
19 6 -11 -5.1306 0.0018
19 6 -8 -10.9407 0.6116
19 6 -5 -7.0902 0.1411
19 6 -2 3.4888 -0.8094
19 6 1 24.4330 -0.4204
19 6 4 -6.0297 -0.9585
19 6 7 17.2474 0.2682
19 6 10 -17.7707 0.1541
19 6 13 3.2115 -0.1367
19 6 16 11.8002 0.9621
19 6 19 -11.6230 -0.0269
19 6 22 5.1283 0.1653
19 6 25 -7.2924 -0.0872
19 6 28 -23.5688 0.0320
19 6 31 -4.6308 0.0727
19 6 34 1.6431 -0.2337
19 6 37 -9.1189 -0.2260
19 6 40 14.4675 0.1132
19 6 43 -2.6902 0.0600
19 7 -42 13.0430 0.0637
19 7 -39 10.6998 -0.1702
19 7 -36 -7.3642 0.0781
19 7 -33 13.2802 -0.1149
19 7 -30 -3.3278 -0.2040
19 7 -27 15.9635 0.4337
19 7 -24 6.1430 0.1473
19 7 -21 -15.8243 -0.0463
19 7 -18 -21.9618 -0.0915
19 7 -15 -4.0505 -0.0233
19 7 -12 -8.1850 0.3539
19 7 -9 -21.1361 -0.8135
19 7 -6 27.7178 -0.9037
19 7 -3 -3.0981 0.1758
19 7 0 37.4004 0.1241
19 7 3 37.9074 0.2850
19 7 6 47.4206 -0.0162
19 7 9 12.5971 0.5419
19 7 12 -4.1266 0.6653
19 7 15 0.8725 -0.3634
19 7 18 12.8726 -0.5058
19 7 21 11.6332 -0.7144
19 7 24 6.7905 0.1305
19 7 27 6.8635 0.4595
19 7 30 9.6785 -0.0893
19 7 33 6.3701 0.1415
19 7 36 9.0936 -0.0089
19 7 39 10.8131 -0.0439
19 7 42 -14.0314 -0.1686
19 8 -43 -22.0400 0.1340
19 8 -40 -27.0942 0.0197
19 8 -37 9.6023 0.1054
19 8 -34 9.9380 -0.0972
19 8 -31 -3.7212 -0.2539
19 8 -28 -18.6028 -0.2015
19 8 -25 -2.6888 -0.2945
19 8 -22 5.8217 -0.2334
19 8 -19 3.9137 -0.0792
19 8 -16 6.9486 0.3846
19 8 -13 -12.9758 0.5589
19 8 -10 5.6284 0.1339
19 8 -7 -23.9325 0.1201
19 8 -4 5.5053 0.3249
19 8 -1 -9.0667 0.0114
19 8 2 18.3236 -0.4340
19 8 5 -9.8403 -0.7765
19 8 8 13.2314 0.2405
19 8 11 8.9500 0.6658
19 8 14 -11.9276 -0.7256
19 8 17 11.2803 -0.3803
19 8 20 -3.0202 0.4219
19 8 23 13.1418 0.2236
19 8 26 7.5445 0.2118
19 8 29 4.8095 -0.1092
19 8 32 8.8039 0.2094
19 8 35 -9.8623 0.1212
19 8 38 10.3981 -0.1903
19 8 41 19.9805 -0.0592
19 8 44 4.9907 -0.1421
19 9 -44 3.4545 -0.0693
19 9 -41 11.4826 0.0223
19 9 -38 7.2489 0.0170
19 9 -35 -3.5630 -0.1613
19 9 -32 -14.3470 0.0308
19 9 -29 1.8388 0.1370
19 9 -26 4.4582 -0.0952
19 9 -23 8.0623 -0.2302
19 9 -20 -4.8030 -0.1134
19 9 -17 -4.2813 0.2273
19 9 -14 -3.4640 0.4618
19 9 -11 -15.9126 -0.3022
19 9 -8 -1.4345 -0.3199
19 9 -5 -14.7647 0.3253
19 9 -2 -3.5562 -0.2251
19 9 1 24.5318 -0.4857
19 9 4 -1.0635 -0.0426
19 9 7 12.5613 0.1505
19 9 10 26.8464 0.2747
19 9 13 1.7892 0.0472
19 9 16 -35.6384 -0.2053
19 9 19 0.8955 0.4573
19 9 22 -0.1709 0.1272
19 9 25 -6.6646 -0.3047
19 9 28 -17.8437 0.0710
19 9 31 -2.5628 -0.2002
19 9 34 -8.7487 0.1891
19 9 37 -6.0525 0.0621
19 9 40 8.9657 0.0354
19 9 43 -3.7449 0.0430
19 10 -42 -7.4360 0.1160
19 10 -39 -10.0728 0.0075
19 10 -36 9.4676 -0.0484
19 10 -33 -2.3293 0.0157
19 10 -30 4.6394 0.0148
19 10 -27 3.9749 0.1515
19 10 -24 4.8083 -0.2912
19 10 -21 6.6152 -0.1687
19 10 -18 -0.8378 -0.3320
19 10 -15 -1.7868 0.0366
19 10 -12 28.2938 0.3066
19 10 -9 -16.8603 -0.1937
19 10 -6 1.7952 0.3852
19 10 -3 -1.7652 0.0684
19 10 0 3.3906 -0.5154
19 10 3 19.9170 -0.1296
19 10 6 -12.7193 0.3695
19 10 9 4.1853 0.4824
19 10 12 1.5610 -0.1713
19 10 15 -6.2460 -0.1967
19 10 18 -8.4562 0.1006
19 10 21 -2.0413 -0.0397
19 10 24 -3.2401 -0.4348
19 10 27 -3.6264 -0.4139
19 10 30 -3.4737 -0.0252
19 10 33 7.8542 0.4179
19 10 36 0.4417 0.2253
19 10 39 1.4451 -0.0205
19 10 42 1.1563 0.0765
19 11 -43 1.3742 0.0713
19 11 -40 -0.2298 -0.0083
19 11 -37 4.3345 -0.1235
19 11 -34 5.7016 -0.1323
19 11 -31 -6.6924 -0.0972
19 11 -28 4.1446 0.0083
19 11 -25 -3.6121 0.1299
19 11 -22 -6.3635 0.0728
19 11 -19 8.2962 -0.0097
19 11 -16 4.0636 0.2153
19 11 -13 14.1845 -0.1989
19 11 -10 14.6507 -0.0371
19 11 -7 -12.2905 0.1106
19 11 -4 -3.7266 -0.1701
19 11 -1 1.6702 0.5081
19 11 2 -3.8155 0.0703
19 11 5 -2.4805 0.2912
19 11 8 -29.3476 0.2479
19 11 11 -23.0679 -0.4948
19 11 14 -0.9425 -0.0280
19 11 17 -7.4041 -0.0181
19 11 20 -6.6883 0.1546
19 11 23 -13.1135 -0.1936
19 11 26 12.5254 -0.1482
19 11 29 -9.2364 0.2906
19 11 32 8.5245 0.0390
19 11 35 14.5730 0.0206
19 11 38 -7.9614 -0.0092
19 11 41 6.8916 0.0658
19 12 -41 -5.1488 0.0031
19 12 -38 -1.1543 0.1514
19 12 -35 0.2841 -0.0606
19 12 -32 7.3323 0.0949
19 12 -29 8.2813 0.0570
19 12 -26 -6.6995 -0.1173
19 12 -23 6.1890 -0.0165
19 12 -20 -4.9153 -0.3114
19 12 -17 -10.9857 -0.0685
19 12 -14 0.8674 -0.1914
19 12 -11 7.2779 -0.1648
19 12 -8 3.6574 0.5880
19 12 -5 1.8339 -0.2730
19 12 -2 6.1324 0.1587
19 12 1 1.1963 0.6175
19 12 4 18.1866 -0.2554
19 12 7 -22.9519 -0.5850
19 12 10 3.6528 -0.2524
19 12 13 3.8276 0.3897
19 12 16 -13.1410 0.2565
19 12 19 1.8670 -0.4715
19 12 22 8.0491 0.2345
19 12 25 6.3445 0.3110
19 12 28 8.8645 0.1631
19 12 31 4.8426 -0.3527
19 12 34 -14.0112 -0.2526
19 12 37 -7.7435 -0.0057
19 12 40 -4.1197 0.0747
19 12 43 -1.2341 0.2137
19 13 -42 7.1890 -0.0338
19 13 -39 4.4424 0.2298
19 13 -36 2.3943 -0.2049
19 13 -33 2.4091 -0.1734
19 13 -30 -23.2818 0.0386
19 13 -27 -6.3702 0.0201
19 13 -24 1.9152 0.0536
19 13 -21 -3.5484 -0.3817
19 13 -18 1.4394 0.3333
19 13 -15 3.2089 0.7063
19 13 -12 -14.7152 -0.1012
19 13 -9 1.9449 -0.2285
19 13 -6 -6.4516 -0.2982
19 13 -3 3.5858 -0.0011
19 13 0 1.7361 -0.0390
19 13 3 10.7179 -0.4544
19 13 6 10.7529 -0.0439
19 13 9 -5.7938 0.4692
19 13 12 -10.3682 0.4516
19 13 15 12.7870 0.0316
19 13 18 1.1802 -0.2632
19 13 21 -0.7526 0.0362
19 13 24 -0.2009 0.0581
19 13 27 2.7789 -0.0218
19 13 30 -8.9657 -0.1556
19 13 33 0.4775 -0.2366
19 13 36 3.6555 0.0342
19 13 39 -9.6583 0.1803
19 13 42 -3.3815 0.0828
19 14 -40 12.2201 0.1515
19 14 -37 6.9639 -0.1306
19 14 -34 13.2484 0.0154
19 14 -31 -2.8527 0.0323
19 14 -28 -4.2980 0.1119
19 14 -25 -1.7610 0.2525
19 14 -22 2.9553 -0.2891
19 14 -19 3.8826 -0.2574
19 14 -16 -1.9540 0.4244
19 14 -13 -7.4739 -0.0730
19 14 -10 -13.6781 -0.0656
19 14 -7 -5.8324 0.3180
19 14 -4 0.8322 0.5285
19 14 -1 9.0327 0.4996
19 14 2 -3.5502 -0.8061
19 14 5 17.2869 0.0124
19 14 8 -20.1043 0.4160
19 14 11 7.6090 -0.0144
19 14 14 -4.6679 0.0444
19 14 17 8.5405 -0.2494
19 14 20 4.9146 0.4161
19 14 23 1.1522 0.3465
19 14 26 -5.2939 -0.1803
19 14 29 -6.0256 -0.1167
19 14 32 1.4056 -0.0353
19 14 35 -4.9841 0.2069
19 14 38 11.2899 -0.1414
19 14 41 -13.9141 -0.1230
19 15 -41 14.7361 0.2121
19 15 -38 -11.0711 0.0668
19 15 -35 -16.5386 0.0297
19 15 -32 -6.7619 0.0643
19 15 -29 -2.6542 -0.0549
19 15 -26 -2.5318 -0.2837
19 15 -23 -9.4952 -0.1942
19 15 -20 21.7156 -0.2769
19 15 -17 -12.3355 -0.0987
19 15 -14 4.0843 0.2032
19 15 -11 -4.4959 0.0987
19 15 -8 -9.7785 0.2802
19 15 -5 -9.6084 0.1116
19 15 -2 -2.0798 0.1331
19 15 1 16.7810 -0.1323
19 15 4 -11.8403 -0.1893
19 15 7 10.8635 0.1285
19 15 10 12.9850 -0.3377
19 15 13 14.0854 -0.1615
19 15 16 2.9386 -0.3457
19 15 19 -4.2801 0.0834
19 15 22 -4.9701 0.3788
19 15 25 11.6470 -0.3438
19 15 28 2.4041 0.2172
19 15 31 -4.1882 0.2683
19 15 34 0.3708 0.1185
19 15 37 12.6791 -0.1138
19 15 40 3.2405 -0.3030
19 16 -39 8.9623 0.0060
19 16 -36 -4.9369 0.0204
19 16 -33 -5.8700 -0.0961
19 16 -30 -1.8256 0.1791
19 16 -27 3.7568 0.2466
19 16 -24 11.1771 0.1902
19 16 -21 -2.6858 -0.0259
19 16 -18 6.6982 -0.2448
19 16 -15 4.0153 -0.0044
19 16 -12 -3.7111 -0.1153
19 16 -9 2.7864 -0.4748
19 16 -6 9.4680 -0.0312
19 16 -3 4.8928 0.1814
19 16 0 2.8502 0.3173
19 16 3 20.4841 0.1305
19 16 6 12.2442 -0.1521
19 16 9 9.7548 -0.3216
19 16 12 5.0818 -0.1550
19 16 15 -1.9658 0.1495
19 16 18 0.6124 -0.1704
19 16 21 12.9269 -0.0820
19 16 24 -6.5183 0.0182
19 16 27 -5.2272 0.0929
19 16 30 -1.1611 0.3480
19 16 33 -6.9864 -0.1332
19 16 36 7.5941 -0.0549
19 16 39 -8.9005 -0.1414
19 17 -40 1.5803 0.1235
19 17 -37 0.4322 -0.0001
19 17 -34 -5.8765 -0.0598
19 17 -31 -5.3369 0.1766
19 17 -28 -8.9531 -0.0069
19 17 -25 8.4117 0.2148
19 17 -22 -2.6971 -0.0268
19 17 -19 -0.2205 -0.4075
19 17 -16 -10.5720 -0.1962
19 17 -13 -6.6414 0.1339
19 17 -10 8.9556 0.5409
19 17 -7 -0.8005 -0.1439
19 17 -4 28.4131 -0.2932
19 17 -1 -5.5182 0.7443
19 17 2 1.0372 0.3922
19 17 5 10.0284 -0.6809
19 17 8 -1.8856 -0.1783
19 17 11 12.7285 0.2748
19 17 14 2.2934 0.5925
19 17 17 -8.8988 -0.0281
19 17 20 -1.6898 -0.4471
19 17 23 -6.0320 0.3771
19 17 26 11.3910 0.0180
19 17 29 4.0383 -0.0534
19 17 32 -8.3727 -0.0486
19 17 35 -11.6139 -0.1132
19 17 38 2.4119 0.2471
19 18 -38 1.3672 0.0866
19 18 -35 -3.4147 -0.3653
19 18 -32 -8.7129 -0.0564
19 18 -29 4.9404 -0.0617
19 18 -26 -10.1393 -0.1882
19 18 -23 4.1145 0.1249
19 18 -20 9.4861 0.1592
19 18 -17 0.0912 0.3922
19 18 -14 -10.0427 0.0593
19 18 -11 -10.9051 -0.1694
19 18 -8 1.6790 0.1693
19 18 -5 -18.3750 -0.4332
19 18 -2 -15.3401 -0.5153
19 18 1 7.7486 0.2871
19 18 4 1.3564 -0.0340
19 18 7 -2.7167 0.3113
19 18 10 -3.7945 -0.0625
19 18 13 -6.2242 0.0649
19 18 16 1.3411 0.0780
19 18 19 -8.0889 -0.4003
19 18 22 0.0292 -0.1714
19 18 25 6.2495 -0.0744
19 18 28 -2.5941 -0.1228
19 18 31 -8.4662 0.0256
19 18 34 7.2044 0.1262
19 18 37 -3.7121 0.2390
19 18 40 13.1515 0.0603
19 19 0 -7.0966 0.0771
19 19 3 -16.3939 0.2473
19 19 6 6.1056 0.1910
19 19 9 0.2599 -0.3842
19 19 12 17.8911 -0.3151
19 19 15 3.3630 0.1512
19 19 18 10.6748 0.1110
19 19 21 9.0461 -0.0135
19 19 24 -10.6138 -0.0436
19 19 27 6.2828 0.0135
19 19 30 -21.8107 0.0442
19 19 33 -7.1640 0.0224
19 19 36 -2.8043 0.0727
19 19 39 -1.3397 -0.1385
20 0 -46 20.9970 -0.0840
20 0 -40 -15.1313 0.0669
20 0 -34 6.5146 0.4048
20 0 -28 -3.6171 1.1738
20 0 -22 -4.8594 -3.2693
20 0 -16 1.3304 -1.4971
20 0 -10 -54.7741 0.5914
20 0 -4 -17.5162 7.9462
20 0 2 31.5489 -2.0408
20 0 8 11.6791 -3.5543
20 0 14 -39.0598 -2.4114
20 0 20 -26.2515 2.8013
20 0 26 22.6882 0.2686
20 0 32 2.8437 0.3100
20 0 38 -19.9633 -0.4661
20 0 44 7.3064 0.0870
20 1 -44 -10.1537 -0.1721
20 1 -41 -18.6147 0.0689
20 1 -38 16.4144 -0.1002
20 1 -35 -0.1666 -0.2535
20 1 -32 9.0708 -0.1979
20 1 -29 4.4161 -0.0040
20 1 -26 4.9723 1.1376
20 1 -23 13.3632 -0.1538
20 1 -20 3.2640 -0.6000
20 1 -17 -0.9978 2.6775
20 1 -14 -10.1020 0.0409
20 1 -11 -8.1370 -2.3835
20 1 -8 2.9775 -1.5203
20 1 -5 -38.3041 0.1303
20 1 -2 -51.1171 1.6849
20 1 1 -21.4355 -1.2888
20 1 4 -5.6555 -0.8295
20 1 7 -20.4921 3.0899
20 1 10 10.3573 0.7645
20 1 13 -3.4520 1.7514
20 1 16 -2.2441 -0.4279
20 1 19 -4.0009 -1.7346
20 1 22 -5.1674 0.1916
20 1 25 1.7215 -0.3541
20 1 28 4.9244 -0.2419
20 1 31 -16.0083 -0.1582
20 1 34 13.0925 0.0193
20 1 37 4.3749 0.1718
20 1 40 -6.1575 0.1702
20 1 43 -5.6082 0.0936
20 2 -45 -9.7676 -0.0673
20 2 -42 15.5543 0.0913
20 2 -39 1.4484 -0.0640
20 2 -36 -10.3823 0.2612
20 2 -33 12.8452 0.1048
20 2 -30 2.5123 -0.4627
20 2 -27 -14.6081 0.3079
20 2 -24 -4.7425 0.2770
20 2 -21 4.6476 -0.6211
20 2 -18 -7.6386 -1.1317
20 2 -15 19.9408 0.3321
20 2 -12 -6.5329 0.3360
20 2 -9 23.6334 -2.1030
20 2 -6 -14.6555 -0.0305
20 2 -3 -23.4344 2.2334
20 2 0 12.2029 1.8091
20 2 3 11.6498 -1.7195
20 2 6 22.2844 -1.5475
20 2 9 -12.7389 2.0959
20 2 12 7.5323 -0.4391
20 2 15 13.5994 -2.0584
20 2 18 15.5866 -0.3945
20 2 21 -10.3671 0.4797
20 2 24 6.7833 0.7264
20 2 27 -6.9497 -0.1893
20 2 30 -0.3176 -0.3768
20 2 33 6.6455 0.1235
20 2 36 6.5090 0.1121
20 2 39 2.5473 -0.0698
20 2 42 -9.2762 -0.1008
20 2 45 -0.5263 -0.0334
20 3 -43 15.2004 0.0448
20 3 -40 0.1958 -0.0279
20 3 -37 -2.1491 0.2554
20 3 -34 1.3522 0.1259
20 3 -31 -3.1071 -0.1865
20 3 -28 3.2461 -0.1345
20 3 -25 11.7929 -0.3185
20 3 -22 0.4328 -0.2436
20 3 -19 -4.4358 -0.2589
20 3 -16 -3.8185 -0.0189
20 3 -13 -14.8902 1.6669
20 3 -10 13.5653 0.5334
20 3 -7 11.0761 -0.1880
20 3 -4 12.1883 0.5706
20 3 -1 17.2017 0.0829
20 3 2 35.4825 -0.7077
20 3 5 45.4389 -1.4202
20 3 8 -22.6091 -0.0432
20 3 11 13.9733 1.3175
20 3 14 1.2674 -0.3068
20 3 17 5.4863 0.4108
20 3 20 13.3737 0.8245
20 3 23 2.7341 0.3266
20 3 26 15.7909 0.1683
20 3 29 -0.6699 -0.4383
20 3 32 12.9470 0.0554
20 3 35 1.8760 0.0012
20 3 38 -5.4655 -0.3161
20 3 41 -11.1107 0.0030
20 3 44 -0.4921 -0.0131
20 4 -44 18.2588 -0.0696
20 4 -41 -4.3665 -0.0906
20 4 -38 11.8736 -0.0721
20 4 -35 7.6920 0.0690
20 4 -32 7.7188 0.3361
20 4 -29 16.3478 -0.0449
20 4 -26 -6.6572 0.1039
20 4 -23 -3.2041 0.5078
20 4 -20 5.1047 0.0121
20 4 -17 -15.2917 -1.4038
20 4 -14 -7.7244 -1.5083
20 4 -11 13.6796 1.5909
20 4 -8 -13.1347 1.1369
20 4 -5 -9.0455 -1.2709
20 4 -2 -10.2387 -0.0089
20 4 1 -2.2478 1.4947
20 4 4 7.3979 1.1931
20 4 7 -8.4572 -2.2885
20 4 10 -16.6016 -1.7446
20 4 13 5.1460 0.9959
20 4 16 -7.1619 0.4824
20 4 19 -6.2333 0.1387
20 4 22 1.7316 -0.4672
20 4 25 5.0863 0.4631
20 4 28 1.1619 0.4368
20 4 31 7.4734 -0.2460
20 4 34 -7.1477 -0.0231
20 4 37 -5.9953 -0.1573
20 4 40 1.8753 -0.0709
20 4 43 -7.8190 0.0139
20 5 -45 3.6222 -0.1155
20 5 -42 2.6959 0.0566
20 5 -39 -5.9236 0.1045
20 5 -36 -9.5817 -0.1005
20 5 -33 0.4292 0.2279
20 5 -30 -5.3134 -0.1733
20 5 -27 10.2758 -0.1827
20 5 -24 -3.9587 -0.1618
20 5 -21 -0.0340 0.2238
20 5 -18 2.4621 0.2321
20 5 -15 18.2268 -0.9921
20 5 -12 -2.4663 0.4586
20 5 -9 20.9911 1.8404
20 5 -6 5.7783 -0.2316
20 5 -3 -6.2964 -0.7548
20 5 0 -15.7575 -1.3297
20 5 3 -20.8468 1.0351
20 5 6 36.0523 0.0381
20 5 9 -17.4734 -2.4806
20 5 12 -6.7012 0.8686
20 5 15 -16.3915 0.9041
20 5 18 7.3271 0.1070
20 5 21 -6.5718 -0.0929
20 5 24 -1.1169 -0.9241
20 5 27 1.8454 0.5898
20 5 30 -1.8020 -0.0575
20 5 33 -1.2133 -0.1311
20 5 36 -11.4223 0.1893
20 5 39 1.1301 -0.0896
20 5 42 -3.2431 0.1656
20 5 45 7.8417 -0.0766
20 6 -43 -10.1930 0.0014
20 6 -40 6.6810 0.1223
20 6 -37 -0.2008 -0.0505
20 6 -34 7.9887 0.1219
20 6 -31 -6.7786 -0.0285
20 6 -28 9.8320 0.0434
20 6 -25 15.2743 0.2540
20 6 -22 2.2974 0.3009
20 6 -19 -0.3727 0.4504
20 6 -16 -4.0518 -0.5029
20 6 -13 5.7446 -0.6881
20 6 -10 5.3901 -0.1033
20 6 -7 14.5469 -0.2064
20 6 -4 -11.0978 -0.8453
20 6 -1 26.9712 -0.1607
20 6 2 -17.7352 1.3943
20 6 5 -10.3645 1.2795
20 6 8 4.7599 -0.0488
20 6 11 -3.9459 -0.2816
20 6 14 7.5153 0.4783
20 6 17 -15.5525 -0.5815
20 6 20 1.0784 -0.5171
20 6 23 -0.5812 -0.2916
20 6 26 7.8701 0.2278
20 6 29 0.3822 0.3730
20 6 32 6.6299 -0.1746
20 6 35 6.7714 0.1824
20 6 38 4.5898 0.0973
20 6 41 9.5390 0.0124
20 6 44 -13.1560 -0.0591
20 7 -44 -4.1805 -0.0963
20 7 -41 30.1070 0.0313
20 7 -38 13.1884 0.1382
20 7 -35 5.7991 0.0810
20 7 -32 10.3310 -0.1356
20 7 -29 -0.7972 0.1550
20 7 -26 -2.7529 0.4375
20 7 -23 5.4118 -0.0785
20 7 -20 -3.2576 0.0888
20 7 -17 2.3970 -0.3247
20 7 -14 -14.2767 -0.1366
20 7 -11 -11.5184 -0.1882
20 7 -8 5.2560 -0.7154
20 7 -5 -17.0071 0.7220
20 7 -2 13.7648 0.4434
20 7 1 -22.4490 -0.1356
20 7 4 -5.2055 0.2231
20 7 7 5.6409 -0.2077
20 7 10 -24.5507 0.4377
20 7 13 -3.0681 -0.4207
20 7 16 4.5123 -0.8708
20 7 19 0.6965 -0.0461
20 7 22 2.9859 0.3187
20 7 25 -6.9072 0.1363
20 7 28 -17.2120 -0.2291
20 7 31 11.2946 -0.0105
20 7 34 -3.1254 0.3089
20 7 37 6.3339 0.1290
20 7 40 0.1032 -0.1604
20 7 43 11.6969 0.0014
20 8 -42 7.4175 -0.0950
20 8 -39 -8.5167 0.1774
20 8 -36 -1.3975 -0.0201
20 8 -33 0.5453 -0.1674
20 8 -30 13.2117 -0.1343
20 8 -27 8.2021 -0.0076
20 8 -24 5.9778 0.2643
20 8 -21 -9.9685 0.1671
20 8 -18 5.2523 0.1479
20 8 -15 0.1070 0.5937
20 8 -12 6.3065 0.4086
20 8 -9 0.2803 -0.7078
20 8 -6 1.7695 -0.2786
20 8 -3 -1.9191 0.3266
20 8 0 9.1046 -0.4581
20 8 3 8.5923 -0.9576
20 8 6 23.7348 -0.2428
20 8 9 1.8603 1.3107
20 8 12 -2.9920 0.3146
20 8 15 8.1909 -0.6716
20 8 18 6.2597 0.5105
20 8 21 3.5142 0.6807
20 8 24 -6.3440 -0.1772
20 8 27 -1.4437 -0.4705
20 8 30 -8.1847 -0.2621
20 8 33 7.8530 0.0596
20 8 36 -9.3770 0.1312
20 8 39 0.2877 0.0571
20 8 42 15.3207 0.1498
20 9 -43 -7.8063 -0.1033
20 9 -40 -1.6602 0.1045
20 9 -37 11.9544 0.0881
20 9 -34 -5.5640 0.2774
20 9 -31 -3.6912 0.2246
20 9 -28 -6.8190 -0.0197
20 9 -25 7.4770 -0.2082
20 9 -22 6.3075 0.2063
20 9 -19 6.9099 0.0014
20 9 -16 -11.5835 -0.7056
20 9 -13 12.2956 -0.2449
20 9 -10 -13.4483 0.1171
20 9 -7 0.1586 -0.0731
20 9 -4 2.6206 0.1372
20 9 -1 5.6081 -0.1437
20 9 2 -3.2299 0.5368
20 9 5 -1.5689 0.1897
20 9 8 -10.7159 -0.4038
20 9 11 4.3556 0.4148
20 9 14 -4.9858 -0.0738
20 9 17 -1.6036 -0.5253
20 9 20 0.0993 0.1935
20 9 23 -2.0340 -0.2167
20 9 26 -0.9848 -0.0076
20 9 29 13.6494 0.0086
20 9 32 6.5081 -0.2250
20 9 35 -7.5195 0.2026
20 9 38 19.9980 -0.0487
20 9 41 6.5219 0.1105
20 10 -41 -6.3662 0.0127
20 10 -38 -2.8974 -0.0037
20 10 -35 -3.2670 0.1505
20 10 -32 4.9323 0.0153
20 10 -29 17.1798 0.3406
20 10 -26 -3.5927 0.1907
20 10 -23 -8.3563 -0.0549
20 10 -20 -18.0884 -0.0564
20 10 -17 -5.9118 -0.5181
20 10 -14 -6.6769 -0.0032
20 10 -11 -3.3289 0.1070
20 10 -8 -7.7334 0.1505
20 10 -5 11.9581 -0.0249
20 10 -2 -10.8830 0.1475
20 10 1 3.0763 0.9328
20 10 4 -10.3596 0.2353
20 10 7 20.1459 -0.6885
20 10 10 -11.9945 -0.5944
20 10 13 3.8555 0.3520
20 10 16 3.0888 0.1883
20 10 19 0.3340 -0.6227
20 10 22 7.0527 0.1763
20 10 25 -1.2354 0.1996
20 10 28 1.1319 0.3545
20 10 31 -1.1315 0.0727
20 10 34 3.0029 -0.3056
20 10 37 11.9523 -0.0627
20 10 40 16.8652 -0.1608
20 10 43 -6.7403 0.0045
20 11 -42 -12.8461 -0.1283
20 11 -39 -10.3042 -0.0701
20 11 -36 6.5093 0.0884
20 11 -33 -5.3468 -0.0857
20 11 -30 -5.4305 -0.0786
20 11 -27 -6.1025 0.3445
20 11 -24 5.5860 0.6025
20 11 -21 -5.1251 0.0599
20 11 -18 -3.0944 -0.5120
20 11 -15 9.5065 -0.4776
20 11 -12 -24.4062 0.2615
20 11 -9 -2.4754 0.0506
20 11 -6 -1.4482 -0.4526
20 11 -3 4.0280 0.1893
20 11 0 -5.0631 0.9303
20 11 3 -3.4453 0.0500
20 11 6 11.8618 -0.6203
20 11 9 4.0533 -0.8264
20 11 12 -22.2983 0.2056
20 11 15 -7.5945 0.7935
20 11 18 11.4682 -0.2906
20 11 21 1.0551 0.0898
20 11 24 4.8443 0.2835
20 11 27 10.9836 0.2009
20 11 30 8.4526 0.0793
20 11 33 -0.3717 -0.3265
20 11 36 -16.2592 -0.0982
20 11 39 8.7099 -0.1291
20 11 42 3.3329 -0.0419
20 12 -40 -5.6983 0.1574
20 12 -37 -0.4376 0.1772
20 12 -34 4.3006 -0.1472
20 12 -31 10.5912 -0.1694
20 12 -28 -2.0221 -0.1799
20 12 -25 2.2404 0.1487
20 12 -22 -1.5845 0.2012
20 12 -19 -0.2340 -0.0974
20 12 -16 -3.4699 0.0488
20 12 -13 -18.0160 0.3666
20 12 -10 11.4237 0.0235
20 12 -7 3.1429 -0.4217
20 12 -4 15.8961 -0.3773
20 12 -1 -4.6559 0.0816
20 12 2 16.8239 0.1857
20 12 5 -5.9847 -0.5520
20 12 8 -2.0151 0.1276
20 12 11 -7.0341 0.3042
20 12 14 9.0225 0.0963
20 12 17 -2.7483 -0.1457
20 12 20 11.5790 -0.3052
20 12 23 2.0600 0.2140
20 12 26 5.2749 -0.0750
20 12 29 7.3686 0.0146
20 12 32 4.5233 -0.0517
20 12 35 6.2538 0.0438
20 12 38 -7.2474 0.0745
20 12 41 -1.5489 -0.1028
20 13 -41 1.2892 0.1090
20 13 -38 -10.3091 0.0946
20 13 -35 1.8883 0.1682
20 13 -32 -4.1624 -0.0478
20 13 -29 3.7959 -0.0231
20 13 -26 -1.1768 0.2771
20 13 -23 -2.0094 0.0078
20 13 -20 6.1391 0.0301
20 13 -17 4.0241 -0.1633
20 13 -14 -3.3717 0.1955
20 13 -11 -0.9435 0.1688
20 13 -8 -9.2682 -0.4545
20 13 -5 3.6154 0.0976
20 13 -2 3.4303 -0.0175
20 13 1 14.3909 -0.2905
20 13 4 -0.4998 0.1970
20 13 7 -1.9508 0.3852
20 13 10 15.2233 0.3354
20 13 13 -1.8287 -0.2697
20 13 16 3.5824 -0.1012
20 13 19 10.0847 -0.1448
20 13 22 2.0885 0.0802
20 13 25 -1.0168 -0.0635
20 13 28 -12.9158 -0.1678
20 13 31 3.0240 0.1566
20 13 34 1.4086 0.2101
20 13 37 -7.2130 0.2092
20 13 40 2.5936 -0.1782
20 14 -39 -0.7746 -0.0152
20 14 -36 0.7542 0.1928
20 14 -33 5.1000 0.1000
20 14 -30 -1.9095 0.0328
20 14 -27 5.2844 -0.0909
20 14 -24 13.1409 0.0221
20 14 -21 -1.7674 -0.0648
20 14 -18 2.5659 -0.3202
20 14 -15 -5.7883 -0.2540
20 14 -12 8.2580 0.2141
20 14 -9 -5.4305 0.4378
20 14 -6 -7.4514 0.1061
20 14 -3 6.7036 -0.1915
20 14 0 -1.5723 -0.2162
20 14 3 -6.1383 -0.1682
20 14 6 -6.8584 0.2438
20 14 9 -0.5815 -0.2437
20 14 12 17.1967 -0.0918
20 14 15 8.3626 0.0017
20 14 18 -6.6208 0.1086
20 14 21 -5.7023 0.2680
20 14 24 1.2392 -0.1034
20 14 27 -5.1944 -0.3052
20 14 30 -4.7603 0.1947
20 14 33 7.2260 0.1385
20 14 36 1.1466 0.0677
20 14 39 -2.7247 -0.0223
20 15 -40 -16.0158 -0.1173
20 15 -37 -1.1094 0.1839
20 15 -34 -4.8055 -0.2343
20 15 -31 -5.8191 -0.1196
20 15 -28 -3.7574 0.0342
20 15 -25 -3.2345 -0.0596
20 15 -22 -1.9168 0.4972
20 15 -19 5.5584 -0.0268
20 15 -16 10.0445 -0.1642
20 15 -13 -7.7580 0.2143
20 15 -10 -0.6501 -0.4035
20 15 -7 5.9367 -0.0418
20 15 -4 15.7451 -0.1845
20 15 -1 3.9499 -0.2031
20 15 2 3.7254 0.3888
20 15 5 -6.2394 -0.2181
20 15 8 2.9421 -0.0893
20 15 11 -7.8029 -0.2308
20 15 14 -10.0518 -0.1075
20 15 17 2.8741 0.2201
20 15 20 -5.2544 0.0391
20 15 23 -0.2374 -0.0743
20 15 26 3.9315 -0.0135
20 15 29 15.4622 0.0898
20 15 32 3.1183 0.0297
20 15 35 -14.4098 -0.1596
20 15 38 -2.4267 -0.0056
20 15 41 29.6721 0.0467
20 16 -38 4.5574 0.1836
20 16 -35 5.1419 0.0783
20 16 -32 -3.0355 -0.0962
20 16 -29 -2.8984 0.1482
20 16 -26 3.4073 0.0362
20 16 -23 3.8652 -0.0109
20 16 -20 -2.1716 -0.0396
20 16 -17 13.2391 -0.3343
20 16 -14 8.0390 0.0240
20 16 -11 2.8139 0.1311
20 16 -8 -0.3523 0.3195
20 16 -5 4.0824 0.1044
20 16 -2 17.1073 -0.1852
20 16 1 -8.6834 0.2988
20 16 4 -1.4859 -0.1416
20 16 7 -8.8318 -0.4066
20 16 10 -2.0070 0.1061
20 16 13 -7.2006 0.3261
20 16 16 4.6884 0.5196
20 16 19 0.0521 -0.3375
20 16 22 7.5524 -0.2185
20 16 25 10.5197 0.1791
20 16 28 0.6052 -0.1453
20 16 31 5.5969 -0.0724
20 16 34 10.4789 -0.2779
20 16 37 12.4233 0.1011
20 16 40 -7.0289 0.3020
20 17 -39 3.4221 0.0357
20 17 -36 2.2299 0.0167
20 17 -33 3.6726 -0.1414
20 17 -30 -2.0661 -0.1035
20 17 -27 11.6280 0.0143
20 17 -24 -6.7238 -0.1187
20 17 -21 5.4187 -0.0892
20 17 -18 3.9440 0.0411
20 17 -15 -7.5064 0.2966
20 17 -12 1.0666 0.1184
20 17 -9 2.8674 -0.1160
20 17 -6 -1.2887 -0.0221
20 17 -3 10.6057 -0.0417
20 17 0 0.4738 -0.0754
20 17 3 10.6063 -0.1248
20 17 6 3.2635 0.1323
20 17 9 -7.5553 0.5008
20 17 12 3.5664 -0.0007
20 17 15 8.2698 0.1180
20 17 18 11.6542 -0.1971
20 17 21 -19.5720 -0.2240
20 17 24 -11.9346 0.2033
20 17 27 7.6379 -0.2540
20 17 30 4.2169 -0.0558
20 17 33 5.7821 -0.0378
20 17 36 3.9105 0.1113
20 17 39 -4.9804 0.2854
20 18 -37 -3.9037 -0.0068
20 18 -34 0.5197 0.0003
20 18 -31 -5.6893 -0.1701
20 18 -28 1.0676 0.2047
20 18 -25 8.4548 0.1238
20 18 -22 -7.2858 0.2989
20 18 -19 -1.3788 0.0172
20 18 -16 -9.0972 -0.2552
20 18 -13 4.5730 -0.2923
20 18 -10 -2.7774 -0.2650
20 18 -7 8.5776 0.0974
20 18 -4 11.5718 -0.0002
20 18 -1 -21.6035 0.1299
20 18 2 -6.1473 0.3237
20 18 5 0.9666 0.2136
20 18 8 -1.1742 0.1057
20 18 11 -10.4925 -0.4453
20 18 14 -0.1848 -0.3197
20 18 17 6.8923 0.0400
20 18 20 2.4244 -0.0764
20 18 23 2.2339 0.2162
20 18 26 -4.1734 0.0115
20 18 29 -17.7609 -0.1535
20 18 32 -4.5240 0.2655
20 18 35 7.0534 -0.0768
20 18 38 -2.1427 -0.1833
20 19 -38 19.2431 0.0176
20 19 -35 10.8568 0.1568
20 19 -32 0.2691 -0.1601
20 19 -29 -8.7151 -0.0580
20 19 -26 1.6360 -0.1388
20 19 -23 1.8850 -0.2514
20 19 -20 -2.2458 0.2589
20 19 -17 -3.4457 -0.0908
20 19 -14 -16.9747 0.1342
20 19 -11 -2.8660 0.2226
20 19 -8 7.4535 0.0667
20 19 -5 0.1077 0.1969
20 19 -2 -1.6429 -0.3722
20 19 1 -0.8420 -0.0767
20 19 4 1.5697 0.0966
20 19 7 -3.5199 -0.2104
20 19 10 20.7785 0.1763
20 19 13 -10.3898 -0.1633
20 19 16 -10.7135 0.3411
20 19 19 -2.1564 0.3568
20 19 22 -2.6387 -0.1460
20 19 25 -0.1731 0.1545
20 19 28 6.8345 -0.1636
20 19 31 -3.9453 -0.0551
20 19 34 7.0064 -0.0465
20 19 37 1.7350 -0.2558
20 20 0 15.1195 -0.4677
20 20 3 -7.3891 -0.0301
20 20 6 17.5958 0.2563
20 20 9 7.9329 0.0876
20 20 12 -8.3636 -0.0845
20 20 15 -0.9926 0.2917
20 20 18 -1.9038 0.0757
20 20 21 -14.2276 -0.0345
20 20 24 -1.8336 0.0105
20 20 27 1.2322 -0.0684
20 20 30 -12.5085 -0.1248
20 20 33 10.1439 0.0026
20 20 36 3.4523 -0.0236
21 0 -42 -6.4110 0.0292
21 0 -36 17.2394 -0.6324
21 0 -30 -12.6100 0.3818
21 0 -24 -4.1330 1.1975
21 0 -18 -6.6854 2.2715
21 0 -12 -17.4159 -4.0094
21 0 -6 9.4583 -1.2709
21 0 0 35.9992 0.0680
21 0 6 15.2197 6.6462
21 0 12 -17.7852 -3.0396
21 0 18 3.3234 -0.0451
21 0 24 0.8274 -1.5415
21 0 30 7.3788 1.4114
21 0 36 -1.3652 -0.4026
21 0 42 7.6344 0.1619
21 1 -43 1.5164 -0.0517
21 1 -40 9.4392 0.0903
21 1 -37 -10.8738 -0.2853
21 1 -34 1.1760 -0.2537
21 1 -31 6.0110 0.2859
21 1 -28 10.8454 -0.1665
21 1 -25 1.1811 0.8751
21 1 -22 1.4372 0.7731
21 1 -19 -6.6611 -0.0703
21 1 -16 4.4365 1.5774
21 1 -13 -0.4181 -2.5782
21 1 -10 -7.0546 -1.3754
21 1 -7 3.8874 -1.8404
21 1 -4 36.7394 -1.7751
21 1 -1 28.4408 3.3361
21 1 2 48.8249 -0.7985
21 1 5 -19.1418 0.6490
21 1 8 16.5188 2.5077
21 1 11 -20.2732 -1.1644
21 1 14 2.9228 -0.1178
21 1 17 -1.7738 -3.4307
21 1 20 19.6860 -0.0064
21 1 23 -2.1716 0.7257
21 1 26 -5.9916 -0.3800
21 1 29 -1.2075 0.7223
21 1 32 15.8696 -0.1013
21 1 35 -9.1500 0.2120
21 1 38 6.1988 0.0598
21 1 41 6.6064 -0.2330
21 1 44 -11.3439 -0.0446
21 2 -44 3.4557 0.0419
21 2 -41 -2.0526 -0.0197
21 2 -38 4.6519 0.3388
21 2 -35 -0.1454 -0.0763
21 2 -32 3.5982 -0.3035
21 2 -29 9.5790 -0.0145
21 2 -26 -2.8258 -0.6654
21 2 -23 -1.8225 -0.3960
21 2 -20 -3.2520 -0.0741
21 2 -17 -18.6354 1.2376
21 2 -14 24.8002 1.8251
21 2 -11 7.8268 -1.3286
21 2 -8 -15.2510 0.9440
21 2 -5 29.4028 1.0311
21 2 -2 22.9867 -0.6534
21 2 1 41.3960 -1.4565
21 2 4 -12.4619 -2.4050
21 2 7 7.9358 2.3095
21 2 10 16.8930 0.8128
21 2 13 -2.5215 -1.6597
21 2 16 3.8120 0.8188
21 2 19 9.5233 0.5765
21 2 22 12.8527 0.6264
21 2 25 14.0971 -0.4752
21 2 28 -0.0086 -0.2928
21 2 31 -13.6721 0.3456
21 2 34 -17.0214 0.0397
21 2 37 0.6067 -0.0303
21 2 40 -23.0110 -0.2070
21 2 43 8.5725 0.0359
21 3 -45 -8.2330 0.0364
21 3 -42 16.6108 -0.2280
21 3 -39 -0.3136 0.0808
21 3 -36 -2.4421 0.0336
21 3 -33 7.6471 0.1398
21 3 -30 5.6814 0.1566
21 3 -27 -7.7839 -0.1864
21 3 -24 7.9563 0.0381
21 3 -21 -5.1161 0.1955
21 3 -18 2.1058 0.7611
21 3 -15 -23.4816 -0.5567
21 3 -12 26.4559 -0.3664
21 3 -9 -8.4037 0.5072
21 3 -6 7.2686 -0.1165
21 3 -3 -6.1361 -0.7353
21 3 0 -1.8922 -0.4852
21 3 3 6.1594 1.0648
21 3 6 -35.5904 1.1196
21 3 9 21.6310 -0.0915
21 3 12 -0.6656 0.3810
21 3 15 1.5495 0.6586
21 3 18 -7.8471 -0.1336
21 3 21 -2.7844 -0.1846
21 3 24 -2.9111 -0.4206
21 3 27 -3.8364 -0.1071
21 3 30 0.1687 0.2593
21 3 33 3.6130 -0.0094
21 3 36 0.5351 0.1550
21 3 39 11.1977 0.0071
21 3 42 8.2692 0.0299
21 3 45 15.8246 0.0739
21 4 -43 8.5316 -0.2107
21 4 -40 18.6627 -0.0765
21 4 -37 6.4503 -0.0318
21 4 -34 -4.0113 0.1951
21 4 -31 -13.4702 0.1650
21 4 -28 5.8494 -0.0669
21 4 -25 3.2918 0.3733
21 4 -22 -2.1059 -0.1637
21 4 -19 -0.1764 -0.0853
21 4 -16 7.9342 -0.2705
21 4 -13 14.8743 -0.1779
21 4 -10 -7.4502 0.5035
21 4 -7 12.9461 -0.9088
21 4 -4 3.8566 -0.0241
21 4 -1 22.3332 0.1304
21 4 2 -30.8104 0.2433
21 4 5 0.5274 0.1077
21 4 8 -8.6678 -1.0565
21 4 11 7.8491 0.5070
21 4 14 -5.6733 0.8671
21 4 17 -5.2008 -0.5552
21 4 20 -8.0595 -0.4579
21 4 23 -4.2075 -0.1400
21 4 26 6.6386 -0.0195
21 4 29 -1.3496 -0.0187
21 4 32 1.1344 -0.0659
21 4 35 -5.2241 0.1623
21 4 38 0.5911 0.1901
21 4 41 -1.6892 0.0046
21 4 44 -7.7829 0.0609
21 5 -44 16.9491 -0.0032
21 5 -41 -14.9470 -0.0908
21 5 -38 -12.3142 -0.1713
21 5 -35 -1.4199 -0.0282
21 5 -32 12.9216 -0.2393
21 5 -29 7.4992 -0.4665
21 5 -26 -24.5454 0.3257
21 5 -23 9.2040 0.7729
21 5 -20 -5.4913 0.5349
21 5 -17 17.9291 0.4996
21 5 -14 6.3607 -0.3737
21 5 -11 -6.3965 0.1855
21 5 -8 -3.0775 -0.9124
21 5 -5 -23.4694 -1.4215
21 5 -2 -9.6488 -0.1607
21 5 1 -12.4385 0.3525
21 5 4 -7.9900 1.4717
21 5 7 -23.4784 0.5341
21 5 10 -3.1063 -0.5070
21 5 13 -9.8366 1.0410
21 5 16 -1.7934 -0.4078
21 5 19 -0.2004 -0.5587
21 5 22 1.1292 -0.4268
21 5 25 4.8457 -0.0978
21 5 28 -3.7758 0.3813
21 5 31 5.0277 -0.3160
21 5 34 8.3499 -0.1066
21 5 37 -0.6945 0.2903
21 5 40 7.6786 0.0629
21 5 43 -6.9691 0.0427
21 6 -42 -1.0844 0.0157
21 6 -39 3.8775 -0.0511
21 6 -36 5.9991 0.2323
21 6 -33 7.9408 0.0306
21 6 -30 14.6190 -0.0835
21 6 -27 8.2338 -0.2396
21 6 -24 10.7051 0.0569
21 6 -21 -20.3256 -0.0324
21 6 -18 4.8280 -0.3220
21 6 -15 -10.9857 -0.3851
21 6 -12 -10.9025 -0.3697
21 6 -9 7.1778 0.3583
21 6 -6 2.9637 0.3387
21 6 -3 -6.5718 0.7873
21 6 0 -18.4141 1.4394
21 6 3 0.7131 -0.5472
21 6 6 7.0487 0.0030
21 6 9 -8.9413 -0.1610
21 6 12 4.1628 -0.6266
21 6 15 0.3459 0.0197
21 6 18 7.1962 -0.5777
21 6 21 -1.8054 0.6702
21 6 24 4.1638 0.6991
21 6 27 -5.2115 -0.1032
21 6 30 4.3320 -0.0776
21 6 33 -8.3792 -0.4364
21 6 36 8.3170 0.1085
21 6 39 9.0815 -0.0276
21 6 42 8.2281 -0.0583
21 7 -43 -1.2938 -0.0504
21 7 -40 -8.2555 -0.0233
21 7 -37 0.0540 0.0873
21 7 -34 -1.3065 -0.1211
21 7 -31 -7.8886 0.1134
21 7 -28 4.7059 0.0725
21 7 -25 1.8493 -0.1768
21 7 -22 2.5553 -0.3110
21 7 -19 0.6127 0.3313
21 7 -16 3.9692 0.6782
21 7 -13 -10.6962 -0.1347
21 7 -10 -11.9877 -0.4826
21 7 -7 3.5538 0.5846
21 7 -4 2.7939 0.0051
21 7 -1 -6.0012 -0.4195
21 7 2 13.4608 -1.0058
21 7 5 5.5344 0.1163
21 7 8 17.4329 0.9145
21 7 11 6.2600 -0.3009
21 7 14 -32.4120 -0.0682
21 7 17 7.4465 0.4919
21 7 20 4.3642 0.1008
21 7 23 2.5734 0.3418
21 7 26 -4.6407 -0.7154
21 7 29 -0.1636 0.0738
21 7 32 10.3716 0.1569
21 7 35 -0.9127 -0.3173
21 7 38 1.7568 -0.0257
21 7 41 10.5736 -0.1930
21 7 44 -3.4523 0.1405
21 8 -41 19.3754 -0.0658
21 8 -38 3.1733 -0.0909
21 8 -35 1.5405 -0.0948
21 8 -32 -4.3777 0.1675
21 8 -29 9.6341 -0.0205
21 8 -26 7.2217 0.1375
21 8 -23 5.6056 0.2291
21 8 -20 1.7820 0.1393
21 8 -17 8.8036 0.4468
21 8 -14 -2.2665 -0.3510
21 8 -11 7.4077 -0.6583
21 8 -8 -2.2491 -0.0066
21 8 -5 4.0117 0.0887
21 8 -2 2.4277 -0.2498
21 8 1 -25.9972 -0.2453
21 8 4 10.9168 0.2890
21 8 7 10.6243 1.1337
21 8 10 -0.6665 0.0152
21 8 13 5.3358 -0.7333
21 8 16 -17.0756 0.5908
21 8 19 4.3759 0.0979
21 8 22 4.7231 -0.5268
21 8 25 -11.0380 -0.2355
21 8 28 7.5838 -0.0092
21 8 31 2.9768 0.4011
21 8 34 0.4216 -0.1266
21 8 37 18.6079 -0.1043
21 8 40 0.5605 -0.0372
21 8 43 -3.7246 -0.0423
21 9 -42 -11.6886 0.0788
21 9 -39 -7.3458 -0.0077
21 9 -36 -5.3166 0.0228
21 9 -33 -4.8634 -0.0260
21 9 -30 -8.2441 -0.1602
21 9 -27 -0.7749 -0.3094
21 9 -24 -10.9580 -0.2439
21 9 -21 8.4151 0.0991
21 9 -18 10.7822 0.2133
21 9 -15 9.5044 -0.0780
21 9 -12 -10.8354 0.1243
21 9 -9 8.0962 0.6432
21 9 -6 -11.3492 0.1545
21 9 -3 5.9492 -0.1955
21 9 0 -23.9830 0.0178
21 9 3 11.2800 0.4756
21 9 6 -0.7880 -0.0724
21 9 9 -10.7272 -0.6838
21 9 12 14.1216 -0.1422
21 9 15 -2.0926 0.0047
21 9 18 -1.1225 0.0008
21 9 21 -10.9307 -0.1810
21 9 24 3.1530 0.1817
21 9 27 -12.4816 0.3371
21 9 30 5.7263 0.2131
21 9 33 2.6120 -0.0284
21 9 36 -4.0076 -0.1267
21 9 39 -6.4782 -0.0416
21 9 42 14.4089 -0.1022
21 10 -43 -0.2456 -0.0236
21 10 -40 -12.3152 -0.1592
21 10 -37 -2.1894 0.0701
21 10 -34 6.5869 0.0899
21 10 -31 1.8545 -0.0874
21 10 -28 -1.1077 -0.0047
21 10 -25 -3.2042 0.0184
21 10 -22 3.9970 -0.1688
21 10 -19 -4.4389 -0.1201
21 10 -16 15.3286 0.0071
21 10 -13 -0.2835 0.2378
21 10 -10 -9.0470 0.4116
21 10 -7 6.5190 -0.2668
21 10 -4 -6.7467 -0.2263
21 10 -1 1.4116 0.8199
21 10 2 -6.4889 -0.3565
21 10 5 13.3133 -0.5887
21 10 8 -2.5880 -0.5897
21 10 11 -4.9408 0.3294
21 10 14 -7.2329 0.7672
21 10 17 -7.9702 -0.4332
21 10 20 3.3510 -0.2263
21 10 23 -6.6749 0.5647
21 10 26 11.0032 0.0170
21 10 29 20.3693 -0.0831
21 10 32 -7.5210 -0.1582
21 10 35 0.5302 0.0166
21 10 38 -0.2751 0.1697
21 10 41 2.9307 -0.1865
21 11 -41 5.3957 -0.1337
21 11 -38 5.8932 0.0054
21 11 -35 12.8441 0.0118
21 11 -32 16.8630 -0.0324
21 11 -29 -3.4527 -0.0589
21 11 -26 -3.1958 0.0719
21 11 -23 -2.1868 -0.0118
21 11 -20 -1.1677 -0.0188
21 11 -17 8.8838 0.0393
21 11 -14 -3.6948 -0.3217
21 11 -11 -14.1861 0.3083
21 11 -8 8.3150 0.0474
21 11 -5 -2.7414 -0.1709
21 11 -2 8.6621 0.0551
21 11 1 16.6222 -0.0912
21 11 4 12.8871 -0.0758
21 11 7 -2.3003 -0.1652
21 11 10 -15.7532 0.0079
21 11 13 -3.6389 0.5416
21 11 16 -1.0730 0.1086
21 11 19 -9.5597 -0.3414
21 11 22 -2.5476 -0.0737
21 11 25 11.7523 0.0495
21 11 28 7.7998 -0.2669
21 11 31 -2.4327 0.0275
21 11 34 -10.3813 -0.0127
21 11 37 9.0216 0.2741
21 11 40 -3.7093 0.1804
21 12 -42 -1.2570 -0.0046
21 12 -39 19.9867 -0.0903
21 12 -36 -11.7582 -0.0763
21 12 -33 2.5190 -0.0277
21 12 -30 -20.1005 -0.2763
21 12 -27 -3.9537 0.0113
21 12 -24 0.9399 -0.0246
21 12 -21 3.1773 0.4216
21 12 -18 -2.0667 0.2700
21 12 -15 -3.1075 -0.1764
21 12 -12 -24.6880 0.1120
21 12 -9 18.4831 -0.1729
21 12 -6 -20.8296 -0.0940
21 12 -3 7.0873 -0.2209
21 12 0 5.2800 -0.1036
21 12 3 -3.1183 0.4786
21 12 6 0.4599 0.0719
21 12 9 -0.9695 0.3827
21 12 12 -9.0282 -0.4376
21 12 15 5.3280 -0.0470
21 12 18 3.7857 0.0607
21 12 21 -2.3282 -0.5265
21 12 24 1.4281 0.2674
21 12 27 0.8566 -0.1296
21 12 30 -5.3310 -0.0568
21 12 33 1.8668 0.1232
21 12 36 9.6927 0.0349
21 12 39 8.7120 0.1892
21 12 42 -1.2123 -0.0475
21 13 -40 5.9630 -0.0695
21 13 -37 3.8269 -0.0569
21 13 -34 4.3853 0.3123
21 13 -31 14.2667 -0.0197
21 13 -28 2.2821 -0.1097
21 13 -25 -7.5666 -0.2841
21 13 -22 2.8428 -0.1537
21 13 -19 -5.1630 0.5002
21 13 -16 -7.6940 -0.4989
21 13 -13 -1.7491 -0.4498
21 13 -10 -9.5412 0.3808
21 13 -7 -4.0201 0.3845
21 13 -4 -4.5961 -0.1070
21 13 -1 1.4824 -0.7162
21 13 2 3.4693 0.5048
21 13 5 4.3027 0.5488
21 13 8 2.0143 -0.2588
21 13 11 4.8535 -0.2610
21 13 14 -0.8320 -0.2081
21 13 17 4.3123 0.3622
21 13 20 2.4338 -0.1822
21 13 23 -1.2456 -0.2242
21 13 26 16.3304 0.0717
21 13 29 11.5737 -0.1854
21 13 32 3.7454 0.1855
21 13 35 10.8372 -0.0819
21 13 38 -10.4597 -0.0309
21 13 41 14.6544 0.0773
21 14 -41 14.2868 -0.0866
21 14 -38 1.3201 -0.1257
21 14 -35 1.6937 -0.0100
21 14 -32 -1.9584 0.0104
21 14 -29 -8.9568 -0.1447
21 14 -26 12.6600 -0.1633
21 14 -23 -7.5378 0.0414
21 14 -20 7.4132 0.2341
21 14 -17 2.2470 0.3709
21 14 -14 -2.1997 -0.2141
21 14 -11 -4.5321 -0.2141
21 14 -8 6.8237 0.2728
21 14 -5 4.7334 0.0532
21 14 -2 11.0872 -0.4678
21 14 1 -10.7990 -0.2150
21 14 4 4.4034 0.5377
21 14 7 -15.7085 0.0814
21 14 10 -4.6119 -0.4431
21 14 13 -7.3686 -0.0796
21 14 16 -0.9110 0.3990
21 14 19 -19.3921 0.5788
21 14 22 7.3321 -0.3167
21 14 25 14.0770 -0.1078
21 14 28 -3.6400 0.0617
21 14 31 -4.8658 -0.0309
21 14 34 2.4150 -0.2103
21 14 37 -3.4203 -0.2061
21 14 40 0.1273 0.0292
21 15 -39 13.9696 -0.0248
21 15 -36 -1.8065 -0.0723
21 15 -33 4.0886 0.0672
21 15 -30 1.9900 -0.0363
21 15 -27 14.2093 -0.0196
21 15 -24 3.9311 0.2677
21 15 -21 9.6810 0.1600
21 15 -18 -5.9659 -0.0194
21 15 -15 12.2894 0.1546
21 15 -12 -0.6008 -0.2459
21 15 -9 7.1672 -0.0805
21 15 -6 6.1214 0.1365
21 15 -3 -5.2199 -0.0882
21 15 0 8.4613 0.1455
21 15 3 3.8544 -0.0310
21 15 6 10.7400 -0.1890
21 15 9 -12.7436 0.0875
21 15 12 -11.7325 -0.1753
21 15 15 4.8538 0.2274
21 15 18 -8.6621 0.3195
21 15 21 15.2180 -0.1815
21 15 24 3.8873 0.1082
21 15 27 -0.3713 0.1250
21 15 30 4.7701 -0.1092
21 15 33 -2.5129 -0.0886
21 15 36 -2.8740 -0.2670
21 15 39 -3.9730 0.0234
21 16 -40 -4.3832 0.1150
21 16 -37 -13.0458 -0.0056
21 16 -34 7.5552 0.1328
21 16 -31 -3.0053 -0.1342
21 16 -28 4.0974 -0.2199
21 16 -25 -2.0700 -0.0944
21 16 -22 -17.0907 -0.2387
21 16 -19 -4.4021 0.0076
21 16 -16 -11.0502 -0.0159
21 16 -13 -6.5899 0.5360
21 16 -10 -4.3736 0.3469
21 16 -7 -3.9789 -0.4539
21 16 -4 2.7095 -0.2123
21 16 -1 -4.7517 0.0520
21 16 2 8.3424 0.1103
21 16 5 3.4776 -0.5265
21 16 8 0.6011 -0.0312
21 16 11 1.8824 0.6651
21 16 14 1.9857 -0.0342
21 16 17 7.1826 -0.4059
21 16 20 -1.7298 -0.3485
21 16 23 5.6016 0.1736
21 16 26 -4.4378 0.2970
21 16 29 -9.1540 -0.2333
21 16 32 8.3061 -0.0211
21 16 35 -4.4413 0.1544
21 16 38 9.3340 0.1055
21 17 -38 -5.4435 -0.1961
21 17 -35 1.5356 0.1349
21 17 -32 -2.3380 0.1682
21 17 -29 5.8636 -0.1208
21 17 -26 -0.8311 0.2411
21 17 -23 -7.5793 0.1480
21 17 -20 -5.3199 0.0149
21 17 -17 13.5406 -0.0665
21 17 -14 -10.6433 -0.5406
21 17 -11 -1.0054 -0.1141
21 17 -8 10.5565 -0.0939
21 17 -5 0.2195 -0.0376
21 17 -2 1.8137 0.3834
21 17 1 2.3964 0.1518
21 17 4 -16.0095 0.4383
21 17 7 -0.9806 -0.1007
21 17 10 7.1443 -0.2447
21 17 13 3.1067 -0.3316
21 17 16 3.6996 -0.4579
21 17 19 -0.1194 0.0502
21 17 22 0.1457 0.1413
21 17 25 -0.6982 0.2753
21 17 28 5.3899 0.1194
21 17 31 7.4297 0.0054
21 17 34 -0.8555 0.2614
21 17 37 -13.7222 -0.0344
21 18 -39 13.0113 -0.0431
21 18 -36 8.5554 -0.0514
21 18 -33 -1.9273 0.1111
21 18 -30 6.9671 0.1250
21 18 -27 10.3766 0.0317
21 18 -24 10.6074 0.1194
21 18 -21 -7.9503 0.1807
21 18 -18 9.2984 -0.0435
21 18 -15 -27.8274 -0.1979
21 18 -12 -10.9244 -0.1333
21 18 -9 9.0692 0.0017
21 18 -6 -3.8903 -0.0906
21 18 -3 -6.2754 0.0313
21 18 0 -0.5664 0.0447
21 18 3 -8.3850 0.2132
21 18 6 -1.3476 -0.0083
21 18 9 -2.0880 -0.1877
21 18 12 3.6236 0.0504
21 18 15 18.4135 -0.3118
21 18 18 2.7580 0.2245
21 18 21 11.8180 0.0142
21 18 24 1.3269 -0.0890
21 18 27 -0.2397 0.1524
21 18 30 -1.8824 0.0301
21 18 33 1.6672 0.1380
21 18 36 -3.5064 -0.1865
21 18 39 6.3935 -0.2058
21 19 -37 -1.9581 -0.0608
21 19 -34 -2.7074 -0.0536
21 19 -31 2.9048 -0.1685
21 19 -28 19.0357 -0.2247
21 19 -25 -4.3156 0.0344
21 19 -22 9.1518 0.2473
21 19 -19 2.1685 0.3934
21 19 -16 -23.2057 0.0357
21 19 -13 -1.4425 0.1510
21 19 -10 0.4300 0.0134
21 19 -7 2.4583 -0.3505
21 19 -4 4.2745 -0.3156
21 19 -1 3.7698 -0.5974
21 19 2 2.4740 0.1056
21 19 5 12.6773 0.3387
21 19 8 4.1342 -0.0806
21 19 11 1.1169 0.3418
21 19 14 11.5691 0.0333
21 19 17 -9.0854 0.2725
21 19 20 -16.5167 -0.1402
21 19 23 -1.2239 -0.5650
21 19 26 15.7878 0.1746
21 19 29 -1.0489 -0.0178
21 19 32 9.4285 0.0145
21 19 35 -6.9158 0.1224
21 19 38 1.1678 0.0487
21 20 -35 3.3034 0.1420
21 20 -32 -15.2120 0.1338
21 20 -29 -20.7165 -0.0696
21 20 -26 1.4809 -0.0233
21 20 -23 -11.4702 -0.0339
21 20 -20 -3.7472 -0.0347
21 20 -17 6.2012 -0.0672
21 20 -14 7.9392 -0.2890
21 20 -11 -2.2877 0.2382
21 20 -8 15.6395 0.2404
21 20 -5 6.2646 0.1888
21 20 -2 5.4208 -0.0538
21 20 1 -21.4800 -0.2729
21 20 4 6.4984 0.3671
21 20 7 23.4784 -0.1249
21 20 10 5.9367 -0.1038
21 20 13 -17.8547 -0.0302
21 20 16 -7.4559 -0.1810
21 20 19 8.2936 0.2526
21 20 22 -2.6520 -0.1017
21 20 25 -14.5629 -0.1573
21 20 28 3.5551 0.1893
21 20 31 1.8847 -0.0601
21 20 34 5.5462 0.1525
21 20 37 2.6122 0.0806
21 21 0 -7.0494 -0.2257
21 21 3 -15.7051 -0.3155
21 21 6 3.4342 -0.1725
21 21 9 4.3110 0.0131
21 21 12 -17.3076 -0.0693
21 21 15 -10.9468 -0.2705
21 21 18 -10.0223 0.2591
21 21 21 5.4268 0.2371
21 21 24 -3.8851 -0.1144
21 21 27 4.3529 0.1721
21 21 30 13.4395 -0.0982
21 21 33 23.9073 -0.1684
21 21 36 12.2849 0.0922
22 0 -44 -16.4230 0.0513
22 0 -38 4.0636 -0.0412
22 0 -32 -1.4203 0.1060
22 0 -26 -11.6696 -1.2267
22 0 -20 -3.8832 2.2995
22 0 -14 -19.6661 -3.8519
22 0 -8 31.2649 2.7021
22 0 -2 10.0487 -2.7150
22 0 4 30.1056 6.5082
22 0 10 -32.2074 -5.1381
22 0 16 -5.7146 -0.8089
22 0 22 -9.5977 -0.5930
22 0 28 2.5535 1.8643
22 0 34 19.4452 -0.4565
22 0 40 -1.5164 -0.0684
22 1 -45 -6.2033 0.0247
22 1 -42 14.7479 -0.0667
22 1 -39 -2.6476 -0.1314
22 1 -36 -9.4968 0.4333
22 1 -33 -9.3888 -0.0820
22 1 -30 6.4769 0.2299
22 1 -27 -8.4894 0.2028
22 1 -24 3.5801 -0.8349
22 1 -21 -6.7221 -0.8078
22 1 -18 7.7784 -0.4965
22 1 -15 -9.1570 0.7001
22 1 -12 -10.4780 0.4454
22 1 -9 8.1225 0.3392
22 1 -6 -15.2398 1.3349
22 1 -3 -3.3591 1.4136
22 1 0 -0.6705 -0.8157
22 1 3 -12.4905 -2.2439
22 1 6 -17.5383 -0.5613
22 1 9 -6.7433 -0.0274
22 1 12 3.9436 -0.0938
22 1 15 12.5918 -1.0090
22 1 18 -10.3233 0.0498
22 1 21 8.1392 1.3688
22 1 24 -11.7247 -0.0958
22 1 27 -3.3247 -0.6344
22 1 30 6.0728 -0.1535
22 1 33 -10.5614 -0.0657
22 1 36 4.3043 0.1721
22 1 39 2.4014 -0.0688
22 1 42 -3.5702 -0.0461
22 1 45 -0.3361 0.0975
22 2 -43 2.8519 0.0091
22 2 -40 -9.6307 -0.1946
22 2 -37 -8.8677 0.0573
22 2 -34 -1.4262 -0.2185
22 2 -31 2.5475 -0.0748
22 2 -28 -8.2354 -0.0532
22 2 -25 -12.1230 -0.2067
22 2 -22 3.1026 0.6230
22 2 -19 1.9541 0.3358
22 2 -16 3.1168 0.8206
22 2 -13 6.1017 0.2681
22 2 -10 3.9086 -0.5495
22 2 -7 -14.7130 1.1880
22 2 -4 -2.5775 -1.8513
22 2 -1 14.4975 -1.8636
22 2 2 -36.9295 -0.0901
22 2 5 -10.4407 0.7897
22 2 8 8.6008 1.5286
22 2 11 11.2265 -0.5196
22 2 14 -2.9040 0.7851
22 2 17 13.6751 1.3659
22 2 20 7.3939 -0.8940
22 2 23 -8.3548 -0.2030
22 2 26 -0.1851 -0.6565
22 2 29 -0.7359 -0.0325
22 2 32 1.7925 0.1007
22 2 35 -5.0109 -0.2232
22 2 38 -12.2113 0.1698
22 2 41 -15.1992 0.0606
22 2 44 -9.9177 0.1700
22 3 -44 12.5270 0.0466
22 3 -41 -11.1591 0.0049
22 3 -38 -7.4037 -0.1095
22 3 -35 9.2081 0.1539
22 3 -32 10.3811 0.2460
22 3 -29 2.3653 -0.2980
22 3 -26 -1.7463 -0.3073
22 3 -23 -10.4482 0.0971
22 3 -20 18.7220 0.1003
22 3 -17 -7.2815 -0.9276
22 3 -14 -18.3180 0.3441
22 3 -11 -20.9855 1.1127
22 3 -8 13.1598 -1.0516
22 3 -5 -7.1742 -0.3102
22 3 -2 9.3718 0.2761
22 3 1 -20.8730 1.1198
22 3 4 7.7322 0.0625
22 3 7 21.9282 -1.7669
22 3 10 15.1288 1.4999
22 3 13 -6.8909 0.7911
22 3 16 -5.5735 -0.4156
22 3 19 -9.8534 -0.4470
22 3 22 -11.5051 -0.1071
22 3 25 -4.0780 0.2197
22 3 28 -5.4219 -0.2279
22 3 31 7.8246 -0.1434
22 3 34 -20.4646 -0.0159
22 3 37 18.8403 -0.0078
22 3 40 12.6790 0.0539
22 3 43 0.3968 0.0549
22 4 -42 25.1395 0.0952
22 4 -39 8.3530 -0.1351
22 4 -36 10.7519 0.0217
22 4 -33 -2.7668 0.1725
22 4 -30 2.9107 -0.0336
22 4 -27 5.0988 -0.2715
22 4 -24 -13.0461 -0.0888
22 4 -21 -2.5157 0.0685
22 4 -18 -12.2749 -0.0932
22 4 -15 0.0920 0.8698
22 4 -12 15.7210 0.7532
22 4 -9 -10.2454 -0.6584
22 4 -6 9.8018 -0.7785
22 4 -3 -2.6605 -0.4802
22 4 0 6.3588 0.6927
22 4 3 14.2664 -0.2887
22 4 6 33.4747 -1.1961
22 4 9 1.8706 1.0012
22 4 12 -7.1290 0.5357
22 4 15 8.2636 -0.3769
22 4 18 -6.7331 -0.4001
22 4 21 -1.3974 -0.2386
22 4 24 -2.9191 0.6724
22 4 27 -5.0338 -0.0648
22 4 30 -1.4295 0.0361
22 4 33 -9.4229 0.0283
22 4 36 2.3660 -0.2120
22 4 39 -24.2236 0.0306
22 4 42 19.4439 -0.1384
22 5 -43 1.4896 0.0846
22 5 -40 1.7356 -0.1855
22 5 -37 -8.5140 -0.1535
22 5 -34 -2.6257 -0.0102
22 5 -31 -10.9774 0.1796
22 5 -28 -4.7688 0.2529
22 5 -25 -5.2277 -0.1725
22 5 -22 -0.2495 0.1333
22 5 -19 -5.6663 -0.4779
22 5 -16 4.8876 -0.6095
22 5 -13 6.7311 -0.0207
22 5 -10 5.5233 0.2146
22 5 -7 8.4312 0.4411
22 5 -4 -15.8516 0.3555
22 5 -1 -20.9759 0.6113
22 5 2 4.6623 0.7410
22 5 5 -1.2225 -0.7440
22 5 8 0.6823 -1.3595
22 5 11 27.1046 -0.2967
22 5 14 0.0257 -0.0611
22 5 17 3.7466 0.0143
22 5 20 6.1496 -0.1160
22 5 23 2.3562 0.4721
22 5 26 -0.4177 0.7303
22 5 29 -15.0110 -0.1544
22 5 32 -8.0203 -0.1811
22 5 35 -5.9672 -0.0108
22 5 38 0.4918 0.0083
22 5 41 7.8923 -0.1610
22 5 44 -0.6809 -0.1133
22 6 -41 5.2135 -0.0084
22 6 -38 -3.3400 0.1159
22 6 -35 -5.2550 -0.0976
22 6 -32 -2.8489 -0.0947
22 6 -29 -8.5486 0.1038
22 6 -26 -0.0670 -0.4274
22 6 -23 -1.8026 -0.5002
22 6 -20 2.4865 -0.4248
22 6 -17 6.0576 0.0457
22 6 -14 5.9207 0.5565
22 6 -11 4.0937 -0.0352
22 6 -8 6.4278 1.3450
22 6 -5 7.0301 0.7660
22 6 -2 14.1716 -0.3096
22 6 1 22.1283 -1.0147
22 6 4 -2.4685 -1.2905
22 6 7 -1.7403 0.2789
22 6 10 -5.7109 -0.3210
22 6 13 -2.0782 -0.6881
22 6 16 12.6420 0.8531
22 6 19 0.3360 0.4349
22 6 22 -2.9982 0.5285
22 6 25 -27.4623 -0.2009
22 6 28 -5.7586 -0.2192
22 6 31 -2.1217 0.2504
22 6 34 11.4788 -0.0198
22 6 37 11.7291 -0.0644
22 6 40 6.5850 -0.0303
22 6 43 -2.2030 -0.1265
22 7 -42 -7.8035 -0.0807
22 7 -39 4.4230 0.0358
22 7 -36 13.5335 -0.1580
22 7 -33 3.7893 0.1778
22 7 -30 -6.8095 0.1610
22 7 -27 -0.1716 0.0510
22 7 -24 3.3926 0.0284
22 7 -21 4.9824 0.1671
22 7 -18 2.0371 0.3521
22 7 -15 -1.2470 -0.2125
22 7 -12 14.7108 -1.0225
22 7 -9 5.9453 -0.0561
22 7 -6 -8.2902 0.0741
22 7 -3 9.4460 -0.9033
22 7 0 15.3376 -0.2377
22 7 3 -24.3516 0.7583
22 7 6 -21.6964 1.1828
22 7 9 16.6759 0.1790
22 7 12 -15.5056 -0.8469
22 7 15 -0.6553 0.2548
22 7 18 4.4565 0.0581
22 7 21 -1.6231 -0.6590
22 7 24 0.0605 -0.6540
22 7 27 15.6848 -0.0466
22 7 30 8.4993 0.6440
22 7 33 7.4403 0.1851
22 7 36 9.9188 -0.1327
22 7 39 -11.7747 0.0838
22 7 42 4.6242 -0.0397
22 8 -43 -7.7405 -0.0052
22 8 -40 -7.1764 0.0513
22 8 -37 12.9417 -0.0992
22 8 -34 -7.3957 0.0413
22 8 -31 -17.6907 0.0201
22 8 -28 15.8407 -0.1470
22 8 -25 -5.9791 0.0122
22 8 -22 11.4966 -0.2062
22 8 -19 3.7749 -0.0907
22 8 -16 -12.3094 0.3450
22 8 -13 5.1752 -0.2467
22 8 -10 -15.5208 0.1067
22 8 -7 -1.9710 0.5997
22 8 -4 -10.4987 -0.1090
22 8 -1 -20.7169 -0.5818
22 8 2 -12.9068 0.1597
22 8 5 0.0979 0.1018
22 8 8 2.0770 0.0924
22 8 11 -4.9893 -0.6380
22 8 14 3.5193 0.0426
22 8 17 -1.3043 0.7754
22 8 20 -1.9601 -0.5533
22 8 23 -4.8489 -0.2141
22 8 26 4.4303 0.2424
22 8 29 8.5056 -0.0091
22 8 32 -13.3836 0.2485
22 8 35 -6.7611 -0.1493
22 8 38 0.4670 0.1760
22 8 41 17.6059 0.1778
22 9 -41 -3.8925 -0.0600
22 9 -38 -15.0100 0.0113
22 9 -35 5.6970 -0.0292
22 9 -32 -1.6276 -0.1671
22 9 -29 -13.6291 -0.4093
22 9 -26 -4.0086 -0.1892
22 9 -23 3.0679 0.2096
22 9 -20 -12.3303 -0.1772
22 9 -17 5.9625 0.2687
22 9 -14 7.9696 0.7097
22 9 -11 8.1327 0.5576
22 9 -8 -2.7066 -0.2374
22 9 -5 -7.7864 -0.4897
22 9 -2 -11.8322 -0.0375
22 9 1 27.2737 -0.5563
22 9 4 10.0998 -0.6194
22 9 7 -2.1261 -0.3458
22 9 10 6.4480 0.4354
22 9 13 -12.3330 0.3008
22 9 16 9.3335 -0.1360
22 9 19 -1.1248 0.4446
22 9 22 0.8796 0.0110
22 9 25 2.9935 0.1443
22 9 28 9.4236 -0.2676
22 9 31 -1.0865 -0.2968
22 9 34 4.9052 0.0925
22 9 37 6.8065 0.0211
22 9 40 2.0179 0.2577
22 10 -42 0.6026 -0.1041
22 10 -39 15.4222 0.0533
22 10 -36 -11.0987 0.1524
22 10 -33 -5.5242 0.2025
22 10 -30 5.2184 0.1498
22 10 -27 2.5226 -0.1324
22 10 -24 6.7228 -0.0493
22 10 -21 -6.1036 -0.5388
22 10 -18 5.8638 -0.1124
22 10 -15 -3.7043 0.2382
22 10 -12 1.7298 -0.2288
22 10 -9 28.5246 -0.0159
22 10 -6 11.8581 -0.1044
22 10 -3 -3.3544 0.5461
22 10 0 4.3853 -0.0703
22 10 3 2.5038 -0.8376
22 10 6 -19.5075 -0.0692
22 10 9 -0.0415 0.3949
22 10 12 5.0913 0.7884
22 10 15 -8.4719 -0.4260
22 10 18 -4.0353 -0.1893
22 10 21 14.2043 0.3846
22 10 24 3.6502 -0.0946
22 10 27 -11.9902 -0.1580
22 10 30 13.2456 -0.3623
22 10 33 2.9799 0.0612
22 10 36 -9.3394 0.0689
22 10 39 7.1539 0.0406
22 10 42 1.8166 0.1186
22 11 -40 -0.3570 -0.0188
22 11 -37 4.1043 -0.1114
22 11 -34 1.8717 0.0034
22 11 -31 2.1574 0.1641
22 11 -28 22.3806 0.0504
22 11 -25 3.1556 0.0563
22 11 -22 1.9740 0.0101
22 11 -19 12.7339 -0.1813
22 11 -16 4.6341 0.2075
22 11 -13 6.4926 0.0221
22 11 -10 -1.1655 -0.2338
22 11 -7 2.4326 -0.0182
22 11 -4 2.4367 0.1063
22 11 -1 2.6965 -0.0605
22 11 2 -6.3596 0.2459
22 11 5 -8.1927 0.1818
22 11 8 1.3283 0.0379
22 11 11 -8.9593 -0.0768
22 11 14 -0.1975 0.0161
22 11 17 -2.7398 0.0250
22 11 20 -4.5962 0.0410
22 11 23 0.8716 -0.0631
22 11 26 -7.8711 0.2170
22 11 29 -4.4905 0.0413
22 11 32 -1.1579 -0.0142
22 11 35 12.1045 -0.0995
22 11 38 -3.3089 -0.0528
22 11 41 -6.4628 0.0066
22 12 -41 -3.9645 -0.0495
22 12 -38 4.9131 -0.1690
22 12 -35 8.9309 -0.1663
22 12 -32 -7.8498 0.0510
22 12 -29 2.6755 0.1615
22 12 -26 7.5674 -0.0075
22 12 -23 -14.6253 0.1379
22 12 -20 5.3318 0.0558
22 12 -17 1.3210 -0.0810
22 12 -14 -4.1497 0.1202
22 12 -11 -5.7078 -0.6343
22 12 -8 -9.2520 -0.0797
22 12 -5 3.1432 0.3087
22 12 -2 -1.3758 -0.1442
22 12 1 1.3295 0.2235
22 12 4 -3.5906 0.1045
22 12 7 1.2861 0.4621
22 12 10 14.2358 -0.4042
22 12 13 -1.2795 -0.6895
22 12 16 -10.2377 0.3621
22 12 19 -4.7103 0.1402
22 12 22 9.1287 -0.1345
22 12 25 7.7033 0.1684
22 12 28 -2.2800 0.1174
22 12 31 -0.8153 0.1920
22 12 34 4.6179 -0.0248
22 12 37 -4.9896 -0.2966
22 12 40 8.8002 -0.0136
22 13 -39 3.5771 0.0065
22 13 -36 3.7337 0.0593
22 13 -33 -4.3718 -0.0665
22 13 -30 -7.8902 -0.0222
22 13 -27 9.0871 -0.3028
22 13 -24 -1.0976 -0.2653
22 13 -21 10.4615 0.1894
22 13 -18 -9.8146 0.0082
22 13 -15 11.1966 -0.1820
22 13 -12 13.4196 0.2793
22 13 -9 -5.7449 0.3845
22 13 -6 -24.9790 -0.0073
22 13 -3 8.5761 -0.2747
22 13 0 2.3242 -0.2801
22 13 3 3.6304 0.4167
22 13 6 11.3981 0.0309
22 13 9 1.0123 -0.1511
22 13 12 10.9507 -0.1471
22 13 15 -9.8791 -0.1654
22 13 18 8.7163 0.4245
22 13 21 6.4692 -0.1777
22 13 24 -3.5972 -0.2371
22 13 27 -9.1728 0.1998
22 13 30 -4.8919 -0.0180
22 13 33 -1.0257 0.2228
22 13 36 1.9925 -0.1574
22 13 39 5.7285 -0.0624
22 14 -40 3.8388 -0.0226
22 14 -37 -11.1998 -0.0306
22 14 -34 -4.7901 0.0253
22 14 -31 2.5672 0.2350
22 14 -28 -18.7392 -0.1983
22 14 -25 -17.9491 0.0976
22 14 -22 2.6984 0.1778
22 14 -19 2.1284 0.1256
22 14 -16 8.0194 0.3300
22 14 -13 10.7356 -0.7104
22 14 -10 -7.7108 0.2710
22 14 -7 11.0161 0.3709
22 14 -4 7.1701 -0.3197
22 14 -1 6.9797 -0.2093
22 14 2 -0.5633 -0.2073
22 14 5 -1.5314 0.8671
22 14 8 6.2426 -0.0482
22 14 11 -1.5982 -0.2029
22 14 14 -8.9579 0.2924
22 14 17 -6.6928 0.3219
22 14 20 8.7776 0.0906
22 14 23 0.1136 -0.4849
22 14 26 5.7481 0.0820
22 14 29 5.2665 0.1582
22 14 32 -3.0167 -0.1633
22 14 35 -7.8506 0.1108
22 14 38 1.3022 -0.0159
22 15 -38 -17.2440 0.1070
22 15 -35 2.2333 -0.0484
22 15 -32 -2.7534 0.1551
22 15 -29 4.0726 0.0914
22 15 -26 2.1025 -0.0651
22 15 -23 -10.2016 -0.1975
22 15 -20 -7.6982 -0.3369
22 15 -17 4.8821 0.2059
22 15 -14 6.0803 0.1434
22 15 -11 -3.2660 -0.0739
22 15 -8 1.1334 -0.0428
22 15 -5 0.2224 0.0549
22 15 -2 9.3661 0.0168
22 15 1 2.9909 -0.3916
22 15 4 -8.0936 -0.4075
22 15 7 8.7300 0.4371
22 15 10 0.9141 0.3543
22 15 13 4.3292 0.1798
22 15 16 1.8434 -0.2804
22 15 19 3.1281 -0.1953
22 15 22 8.6648 0.0902
22 15 25 5.5176 -0.0525
22 15 28 0.5762 0.0977
22 15 31 1.0534 -0.1352
22 15 34 -13.3371 0.1179
22 15 37 6.1127 0.1916
22 15 40 -20.9324 0.0864
22 16 -39 -4.3609 -0.0296
22 16 -36 7.1957 -0.0371
22 16 -33 4.4301 -0.0824
22 16 -30 10.3205 -0.0538
22 16 -27 -2.5656 0.0023
22 16 -24 -0.4490 -0.0540
22 16 -21 -3.2127 -0.1628
22 16 -18 -5.1231 0.1765
22 16 -15 0.4603 0.1785
22 16 -12 -1.6918 0.0493
22 16 -9 -5.1161 -0.3194
22 16 -6 -5.4944 0.0646
22 16 -3 -2.1848 0.5861
22 16 0 3.6551 -0.1320
22 16 3 -1.7328 -0.6722
22 16 6 0.6724 0.0848
22 16 9 12.9614 0.3760
22 16 12 -0.2276 -0.0324
22 16 15 8.8045 -0.4131
22 16 18 3.5614 -0.1985
22 16 21 -9.0014 0.4649
22 16 24 -0.4291 -0.0176
22 16 27 15.3206 -0.1279
22 16 30 -6.0047 -0.1312
22 16 33 3.9511 0.1499
22 16 36 7.4438 0.1896
22 16 39 -6.1786 -0.0482
22 17 -37 10.6707 0.0777
22 17 -34 6.2635 -0.0025
22 17 -31 8.6438 0.2531
22 17 -28 -0.8431 0.1553
22 17 -25 4.1673 -0.1018
22 17 -22 -0.4916 -0.2299
22 17 -19 3.0547 -0.0661
22 17 -16 -12.5261 0.0256
22 17 -13 2.4578 -0.4421
22 17 -10 5.6623 0.0033
22 17 -7 -3.7550 0.5894
22 17 -4 2.1494 0.5815
22 17 -1 -1.3550 0.0242
22 17 2 9.2737 -0.4687
22 17 5 2.0771 0.1460
22 17 8 -5.5152 -0.1544
22 17 11 -2.5218 -0.2419
22 17 14 3.2017 -0.0563
22 17 17 -2.6420 0.2747
22 17 20 -5.9620 0.5984
22 17 23 1.2808 -0.1381
22 17 26 1.7299 -0.2165
22 17 29 -8.2179 0.0792
22 17 32 1.6587 -0.0829
22 17 35 -9.4996 -0.0544
22 17 38 0.1978 -0.1927
22 18 -38 -0.4908 0.0892
22 18 -35 6.9755 -0.1354
22 18 -32 2.2548 -0.0065
22 18 -29 0.0858 0.0688
22 18 -26 0.4999 -0.2531
22 18 -23 -14.9509 0.1069
22 18 -20 13.0623 -0.0278
22 18 -17 6.8483 0.1738
22 18 -14 -15.2854 0.2325
22 18 -11 2.4767 -0.2745
22 18 -8 3.7133 -0.1470
22 18 -5 0.6528 -0.0625
22 18 -2 -6.0916 0.0171
22 18 1 -15.8875 -0.1731
22 18 4 26.9030 -0.0061
22 18 7 -3.7284 0.3213
22 18 10 -7.8898 0.0511
22 18 13 7.6162 0.2155
22 18 16 -2.7894 -0.1248
22 18 19 -10.6675 -0.0476
22 18 22 -9.2140 -0.1431
22 18 25 -11.2865 -0.2495
22 18 28 2.4743 0.1521
22 18 31 -14.0817 -0.0724
22 18 34 -10.8133 -0.0445
22 18 37 -5.4400 -0.0113
22 19 -36 0.2637 0.0135
22 19 -33 1.0442 -0.0636
22 19 -30 -2.2535 0.0874
22 19 -27 -8.2102 0.0030
22 19 -24 6.7129 -0.0330
22 19 -21 15.8434 0.1412
22 19 -18 -7.4242 -0.0539
22 19 -15 9.1375 0.0186
22 19 -12 -1.3901 0.0557
22 19 -9 14.4675 -0.0681
22 19 -6 -9.6443 0.0004
22 19 -3 5.9034 -0.1462
22 19 0 -4.2027 0.3837
22 19 3 9.8198 0.1459
22 19 6 1.3682 -0.0609
22 19 9 -10.0680 -0.0618
22 19 12 16.2464 0.1834
22 19 15 4.7259 0.0476
22 19 18 -0.1914 -0.4260
22 19 21 4.0441 -0.1266
22 19 24 -15.5740 0.0578
22 19 27 3.8752 0.1280
22 19 30 -5.4496 0.0709
22 19 33 2.0787 -0.0656
22 19 36 4.0388 0.1226
22 20 -37 -0.5182 0.1818
22 20 -34 8.9949 0.0484
22 20 -31 6.1129 -0.0558
22 20 -28 3.7008 -0.0254
22 20 -25 -2.2688 -0.1777
22 20 -22 -12.9810 -0.2415
22 20 -19 -13.4094 -0.1585
22 20 -16 -14.7206 0.0925
22 20 -13 -12.1950 0.1929
22 20 -10 10.6514 0.2900
22 20 -7 -17.0388 0.3087
22 20 -4 -4.9311 -0.0771
22 20 -1 -1.6556 0.1848
22 20 2 0.3027 -0.1164
22 20 5 -8.4584 -0.1992
22 20 8 -13.8348 -0.2077
22 20 11 -7.1918 -0.1527
22 20 14 12.8066 0.2945
22 20 17 -8.2553 -0.1165
22 20 20 -16.5680 0.1511
22 20 23 5.2436 0.1886
22 20 26 10.4404 0.0390
22 20 29 -9.6402 0.1189
22 20 32 2.2748 -0.2459
22 20 35 2.3654 0.0039
22 21 -35 -11.9593 0.0147
22 21 -32 2.2316 0.0376
22 21 -29 -20.5520 0.1207
22 21 -26 17.3820 -0.0334
22 21 -23 21.3217 -0.0293
22 21 -20 4.3940 0.1578
22 21 -17 -2.4239 0.1159
22 21 -14 -3.9314 -0.1662
22 21 -11 31.1338 -0.5336
22 21 -8 -11.0526 0.0607
22 21 -5 -3.4174 0.1328
22 21 -2 -13.0550 -0.0363
22 21 1 -5.4446 -0.1856
22 21 4 9.4883 -0.1167
22 21 7 6.8560 0.3528
22 21 10 4.1778 -0.1910
22 21 13 -8.0010 0.0446
22 21 16 -16.4344 0.1355
22 21 19 -9.4410 0.0143
22 21 22 -3.7541 0.0740
22 21 25 3.1295 -0.1383
22 21 28 -6.1670 0.0065
22 21 31 -23.6791 -0.0457
22 21 34 -14.1098 -0.0171
22 22 0 -15.6427 -0.0616
22 22 3 -2.0119 -0.2988
22 22 6 -3.9529 0.3153
22 22 9 17.4122 0.0731
22 22 12 -7.0454 -0.0478
22 22 15 5.1360 0.1969
22 22 18 16.1921 -0.0448
22 22 21 23.1433 0.0335
22 22 24 -4.4646 -0.1677
22 22 27 -11.1729 -0.2053
22 22 30 -8.3922 0.2841
22 22 33 0.5362 -0.0934
23 0 -40 -16.8173 -0.3861
23 0 -34 -3.7150 1.1750
23 0 -28 -10.6053 0.1620
23 0 -22 3.4974 -0.3528
23 0 -16 -9.1823 -7.4811
23 0 -10 -4.3699 4.4762
23 0 -4 -39.3433 6.0655
23 0 2 -29.8701 2.6643
23 0 8 -14.4443 -9.0391
23 0 14 -2.7634 -1.1101
23 0 20 -10.3530 2.7972
23 0 26 -2.9071 1.8416
23 0 32 4.6556 -1.1051
23 0 38 -25.8278 -0.2249
23 0 44 3.6488 -0.0510
23 1 -44 -3.8941 0.0906
23 1 -41 -5.7125 0.0288
23 1 -38 10.9280 -0.2689
23 1 -35 5.2434 -0.0728
23 1 -32 -14.0161 0.3064
23 1 -29 1.2564 0.0182
23 1 -26 10.6199 0.3086
23 1 -23 -6.2609 0.1061
23 1 -20 0.3458 0.4832
23 1 -17 -8.3653 0.5769
23 1 -14 18.7276 -1.3594
23 1 -11 21.9009 -0.1757
23 1 -8 -23.0437 -0.2246
23 1 -5 -5.6486 -0.5817
23 1 -2 -1.8907 0.5054
23 1 1 -15.8908 -2.2821
23 1 4 -14.0165 0.3128
23 1 7 -34.4628 2.5873
23 1 10 2.6675 -0.2159
23 1 13 -5.4319 -0.8876
23 1 16 4.2278 -0.3643
23 1 19 -5.5332 0.7522
23 1 22 11.9767 0.2931
23 1 25 -5.9208 -0.7789
23 1 28 13.0497 -0.0566
23 1 31 10.4262 0.4747
23 1 34 0.7520 -0.0388
23 1 37 -0.0720 -0.1340
23 1 40 4.4870 -0.0418
23 1 43 10.9591 -0.0251
23 2 -42 8.7943 0.0794
23 2 -39 -5.2497 0.0415
23 2 -36 8.1520 -0.4937
23 2 -33 -3.2783 0.1788
23 2 -30 14.5086 0.3194
23 2 -27 -5.4811 0.0593
23 2 -24 -7.0727 0.0875
23 2 -21 18.0096 0.6228
23 2 -18 -7.9084 -0.0845
23 2 -15 0.4381 -1.1505
23 2 -12 -14.8433 -1.1481
23 2 -9 -5.5913 0.2630
23 2 -6 -3.3391 -0.3703
23 2 -3 -0.0661 -0.9218
23 2 0 3.3355 1.7611
23 2 3 5.7767 1.3993
23 2 6 -2.9745 -0.3955
23 2 9 -5.8517 -0.0970
23 2 12 4.1000 -0.4012
23 2 15 -19.5585 0.3184
23 2 18 2.1977 -1.0575
23 2 21 6.8826 -0.8374
23 2 24 -4.8342 0.5813
23 2 27 -12.6353 0.1846
23 2 30 -1.3599 0.3134
23 2 33 -4.1404 0.0743
23 2 36 8.8405 -0.1896
23 2 39 1.1133 0.1387
23 2 42 2.0325 -0.0957
23 3 -43 3.0951 0.0868
23 3 -40 -0.6417 0.2527
23 3 -37 -3.3849 -0.0092
23 3 -34 13.0854 -0.0974
23 3 -31 -7.1343 -0.2639
23 3 -28 -8.7218 0.2671
23 3 -25 -0.6254 -0.1318
23 3 -22 -0.1927 -0.6652
23 3 -19 11.0731 -0.0005
23 3 -16 21.1720 0.5992
23 3 -13 -15.7666 1.1985
23 3 -10 -15.7105 -1.2811
23 3 -7 -23.8786 -0.3152
23 3 -4 -2.0891 1.7459
23 3 -1 -26.6749 0.0418
23 3 2 27.0242 -0.2426
23 3 5 -0.6736 -1.8335
23 3 8 9.5661 1.0649
23 3 11 0.8901 1.2429
23 3 14 -5.1243 -1.4680
23 3 17 -10.4877 0.0994
23 3 20 -8.1932 0.0474
23 3 23 6.9102 0.1058
23 3 26 -2.9293 0.1885
23 3 29 6.6826 -0.1659
23 3 32 -13.3225 0.4996
23 3 35 -9.9284 -0.0534
23 3 38 -5.1735 -0.1273
23 3 41 -3.3122 0.1036
23 3 44 0.8011 -0.2089
23 4 -44 3.6690 -0.0417
23 4 -41 -4.1708 0.0113
23 4 -38 -9.8300 0.1019
23 4 -35 -1.7427 0.0769
23 4 -32 -8.2277 0.0035
23 4 -29 2.2905 0.5212
23 4 -26 0.8603 0.2794
23 4 -23 -1.3059 -0.4748
23 4 -20 2.9854 -0.5449
23 4 -17 -4.1398 -0.0423
23 4 -14 -2.7154 0.3676
23 4 -11 -4.7871 -0.7573
23 4 -8 8.6653 -0.4249
23 4 -5 -42.1596 1.0209
23 4 -2 -9.0497 1.1669
23 4 1 4.0401 0.2809
23 4 4 -1.6966 -1.0834
23 4 7 -29.5606 -0.2488
23 4 10 -3.4100 0.6957
23 4 13 9.9632 -0.4569
23 4 16 1.1664 -0.5068
23 4 19 -15.4802 0.3396
23 4 22 0.9785 0.3703
23 4 25 4.6940 0.2136
23 4 28 -8.7933 -0.3193
23 4 31 -8.6288 0.1268
23 4 34 1.3505 0.1911
23 4 37 3.8997 -0.0156
23 4 40 -4.0301 0.0513
23 4 43 -10.5749 -0.0931
23 5 -42 10.0023 -0.1213
23 5 -39 -0.6924 0.0057
23 5 -36 -0.0647 0.0915
23 5 -33 -4.8105 -0.2536
23 5 -30 0.0811 0.2537
23 5 -27 3.2336 0.4972
23 5 -24 14.4351 -0.2697
23 5 -21 -12.7884 -0.7338
23 5 -18 1.5272 -0.6145
23 5 -15 -2.4310 0.4480
23 5 -12 -11.3814 0.6347
23 5 -9 3.1002 -0.2917
23 5 -6 -4.6631 0.7557
23 5 -3 4.9019 0.7656
23 5 0 8.6090 -0.9691
23 5 3 -13.1834 -0.7060
23 5 6 -1.6085 -1.0839
23 5 9 -4.6836 -0.2035
23 5 12 3.4014 0.8586
23 5 15 -12.8280 -0.0583
23 5 18 9.1685 0.5556
23 5 21 -6.0807 0.0994
23 5 24 -0.6840 0.0165
23 5 27 14.6686 -0.3402
23 5 30 4.8506 -0.5729
23 5 33 -14.6426 0.3833
23 5 36 -1.4781 0.1666
23 5 39 -6.1796 0.0190
23 5 42 -7.8561 0.0474
23 6 -43 2.9248 -0.0186
23 6 -40 6.1721 -0.0747
23 6 -37 26.1006 -0.0138
23 6 -34 8.3794 -0.2012
23 6 -31 -2.3804 -0.2298
23 6 -28 4.1095 0.1093
23 6 -25 9.0378 0.3263
23 6 -22 7.9872 0.5295
23 6 -19 4.6363 0.0667
23 6 -16 -0.3604 0.0271
23 6 -13 17.1655 0.1252
23 6 -10 15.1350 -0.0679
23 6 -7 -5.5894 -0.7543
23 6 -4 0.9300 -0.4081
23 6 -1 9.0171 -0.0142
23 6 2 -4.2764 0.2193
23 6 5 7.4952 0.9146
23 6 8 2.2580 0.3861
23 6 11 15.6228 -0.3806
23 6 14 -3.0209 0.2857
23 6 17 2.4545 0.0432
23 6 20 3.3572 -0.0314
23 6 23 4.1422 -0.5084
23 6 26 -12.8484 -0.0864
23 6 29 -5.6127 0.0858
23 6 32 -0.6468 -0.0174
23 6 35 10.3336 -0.0062
23 6 38 -4.7091 0.0048
23 6 41 2.4778 0.2073
23 7 -41 -5.2292 0.1428
23 7 -38 13.6808 -0.1208
23 7 -35 14.2653 0.2303
23 7 -32 -8.6848 0.1335
23 7 -29 7.6396 -0.1037
23 7 -26 5.3912 -0.1525
23 7 -23 -9.8132 0.1317
23 7 -20 3.1456 0.3391
23 7 -17 14.5538 -0.6807
23 7 -14 3.8950 -0.8634
23 7 -11 10.4479 0.3795
23 7 -8 -7.4786 0.3011
23 7 -5 -5.9152 -0.1939
23 7 -2 11.9637 0.1906
23 7 1 -7.9218 1.2248
23 7 4 -7.8831 1.0443
23 7 7 -13.6924 -0.6209
23 7 10 10.3766 -0.8522
23 7 13 -5.2260 0.1683
23 7 16 -9.4368 -0.0504
23 7 19 7.7645 -0.3181
23 7 22 -5.7773 -0.3910
23 7 25 -10.4664 0.4441
23 7 28 -0.4595 0.5150
23 7 31 1.5646 -0.2489
23 7 34 6.2656 -0.2394
23 7 37 14.3448 -0.1284
23 7 40 5.2561 0.1525
23 7 43 6.5481 0.1148
23 8 -42 0.7110 0.1447
23 8 -39 10.0132 -0.1693
23 8 -36 4.9121 0.0333
23 8 -33 3.0331 0.0969
23 8 -30 9.5095 0.0239
23 8 -27 1.2608 -0.3201
23 8 -24 -0.0063 -0.1042
23 8 -21 -0.1337 0.4355
23 8 -18 1.6341 0.0346
23 8 -15 9.2656 -0.0844
23 8 -12 -17.1179 0.5045
23 8 -9 -5.0620 0.3497
23 8 -6 -1.8420 -0.0501
23 8 -3 15.2391 -0.9907
23 8 0 14.3664 -0.2668
23 8 3 -13.8515 0.3703
23 8 6 15.2887 -0.5481
23 8 9 -40.4454 -0.0992
23 8 12 13.6173 0.2930
23 8 15 17.1777 0.6213
23 8 18 -7.6514 0.1910
23 8 21 9.8759 -0.3347
23 8 24 0.6463 0.2889
23 8 27 5.2619 0.0222
23 8 30 6.9796 -0.2992
23 8 33 3.3773 -0.1470
23 8 36 -6.7844 -0.0422
23 8 39 7.7040 0.0582
23 8 42 -4.9410 0.0220
23 9 -40 5.8379 -0.0550
23 9 -37 -5.5986 -0.0363
23 9 -34 -9.4714 -0.1473
23 9 -31 -1.3261 0.2196
23 9 -28 3.0491 0.2733
23 9 -25 -10.6118 -0.0122
23 9 -22 -1.2639 0.1647
23 9 -19 5.1209 0.0632
23 9 -16 14.1164 -0.1034
23 9 -13 -11.5607 -0.0024
23 9 -10 19.9580 -0.8377
23 9 -7 18.0897 -0.0653
23 9 -4 6.4126 0.7531
23 9 -1 5.8452 -0.4119
23 9 2 6.4264 -0.0628
23 9 5 -0.3209 0.2862
23 9 8 -8.7878 0.5677
23 9 11 5.9235 0.3279
23 9 14 3.5124 -0.9334
23 9 17 8.3008 0.1957
23 9 20 -4.6278 0.5279
23 9 23 7.4286 -0.4510
23 9 26 -3.1712 -0.1271
23 9 29 -0.7687 -0.1611
23 9 32 8.2665 0.1952
23 9 35 0.1454 0.1387
23 9 38 -1.8053 -0.3086
23 9 41 -16.6869 -0.0139
23 10 -41 9.1705 0.1380
23 10 -38 -6.5433 0.0777
23 10 -35 -3.8949 -0.0279
23 10 -32 -9.8212 -0.0451
23 10 -29 9.2149 0.1386
23 10 -26 -1.0603 -0.0181
23 10 -23 -3.3450 -0.2788
23 10 -20 -11.5719 0.0402
23 10 -17 1.4946 -0.1356
23 10 -14 7.2293 0.1515
23 10 -11 -0.8279 -0.0068
23 10 -8 -23.9714 -0.2467
23 10 -5 -13.6644 0.5911
23 10 -2 5.1116 0.3197
23 10 1 3.2630 -0.2526
23 10 4 2.8487 -0.1926
23 10 7 -4.0759 0.1856
23 10 10 -16.6641 0.6249
23 10 13 16.5207 -0.4933
23 10 16 -0.2923 -0.8064
23 10 19 3.7942 0.5171
23 10 22 11.3497 0.1228
23 10 25 -8.0995 -0.2658
23 10 28 3.6496 0.0560
23 10 31 3.2997 0.0220
23 10 34 2.8673 0.3139
23 10 37 -1.2177 -0.2122
23 10 40 11.0656 -0.2484
23 11 -39 -15.0148 -0.0047
23 11 -36 3.7496 -0.1319
23 11 -33 2.3181 -0.0469
23 11 -30 17.7027 0.2419
23 11 -27 5.0353 0.1233
23 11 -24 -5.3982 -0.0565
23 11 -21 5.1058 0.1474
23 11 -18 -5.3607 0.0491
23 11 -15 11.9313 0.1452
23 11 -12 5.1271 -0.2853
23 11 -9 5.0861 -0.3341
23 11 -6 -29.1115 0.2366
23 11 -3 -17.5965 -0.0753
23 11 0 6.2396 0.3775
23 11 3 -1.8381 -0.0718
23 11 6 7.5424 -0.1254
23 11 9 11.3127 -0.0287
23 11 12 1.5253 -0.0786
23 11 15 -3.8638 -0.1368
23 11 18 -0.1513 -0.1119
23 11 21 -3.0392 0.3811
23 11 24 11.2547 -0.0405
23 11 27 10.2305 0.0988
23 11 30 11.2468 0.0324
23 11 33 1.7370 -0.0394
23 11 36 12.1310 0.1222
23 11 39 -0.4780 -0.2025
23 12 -40 3.9499 -0.0300
23 12 -37 -13.1164 0.0437
23 12 -34 -9.6875 -0.1208
23 12 -31 -6.5719 0.0761
23 12 -28 -7.6763 0.2748
23 12 -25 -0.6590 -0.2317
23 12 -22 0.5314 0.0090
23 12 -19 -12.9360 -0.2015
23 12 -16 -4.0758 -0.2716
23 12 -13 -7.1668 0.0539
23 12 -10 0.8775 0.0182
23 12 -7 6.0603 0.5873
23 12 -4 -5.4197 -0.0649
23 12 -1 1.5504 0.0006
23 12 2 -5.9139 0.1877
23 12 5 16.3313 -0.3250
23 12 8 -8.2238 -0.3716
23 12 11 5.4462 -0.4073
23 12 14 -2.7026 0.2627
23 12 17 -6.3520 0.0646
23 12 20 -0.6944 -0.1210
23 12 23 5.2716 0.1185
23 12 26 6.4738 0.0260
23 12 29 -3.9370 0.1422
23 12 32 6.0656 -0.1537
23 12 35 -2.6698 -0.0208
23 12 38 -1.5387 0.0969
23 12 41 5.0171 0.0350
23 13 -38 4.3530 0.0111
23 13 -35 10.6993 0.0170
23 13 -32 5.0240 -0.0905
23 13 -29 18.9996 -0.0429
23 13 -26 1.3668 0.0135
23 13 -23 1.4548 0.2296
23 13 -20 0.3169 0.2563
23 13 -17 8.0936 -0.2481
23 13 -14 5.6008 -0.0402
23 13 -11 -0.3155 0.2933
23 13 -8 5.1522 -0.0042
23 13 -5 5.2278 -0.3353
23 13 -2 -3.7447 0.0034
23 13 1 -9.4771 0.3095
23 13 4 -2.4298 0.1092
23 13 7 3.9276 -0.5136
23 13 10 -4.6832 0.0884
23 13 13 -14.6031 0.0333
23 13 16 -0.7528 0.0446
23 13 19 5.0042 -0.2204
23 13 22 -7.4053 -0.1953
23 13 25 5.0333 0.0143
23 13 28 15.9799 0.0666
23 13 31 -16.0647 -0.0564
23 13 34 1.1620 -0.0074
23 13 37 -13.5277 0.1144
23 13 40 -4.5817 0.1237
23 14 -39 -0.7427 0.0809
23 14 -36 4.9235 0.0244
23 14 -33 24.8950 0.1083
23 14 -30 -9.0088 -0.0039
23 14 -27 -2.5763 0.1992
23 14 -24 0.8213 0.0372
23 14 -21 -7.1632 -0.2146
23 14 -18 -1.5907 0.0046
23 14 -15 -3.9539 -0.1885
23 14 -12 -6.1327 -0.1789
23 14 -9 -0.0699 -0.0122
23 14 -6 3.9129 -0.2239
23 14 -3 -0.3130 0.0624
23 14 0 -0.6210 0.2187
23 14 3 -3.2428 0.2578
23 14 6 5.9262 0.1220
23 14 9 2.7193 -0.2021
23 14 12 -2.6473 0.3965
23 14 15 2.7122 -0.0838
23 14 18 -6.4214 -0.2857
23 14 21 -4.6669 -0.1141
23 14 24 6.7950 -0.1196
23 14 27 17.9151 0.2704
23 14 30 -1.4671 -0.0435
23 14 33 7.4883 -0.1329
23 14 36 -7.5906 0.1773
23 14 39 4.3637 0.0317
23 15 -37 -5.0644 -0.0219
23 15 -34 -3.5644 0.0067
23 15 -31 -0.4493 -0.1505
23 15 -28 -9.3985 0.1341
23 15 -25 -3.2873 -0.0819
23 15 -22 -8.9505 -0.1230
23 15 -19 -3.2536 -0.0508
23 15 -16 8.0064 0.2099
23 15 -13 -7.5992 0.4566
23 15 -10 -3.7408 -0.5689
23 15 -7 -1.8204 -0.1905
23 15 -4 -9.3130 0.5546
23 15 -1 -7.9568 0.1495
23 15 2 10.4084 -0.5501
23 15 5 7.2408 -0.2838
23 15 8 2.5405 0.5342
23 15 11 9.2662 0.0263
23 15 14 1.9469 -0.5193
23 15 17 -0.7698 -0.3932
23 15 20 3.7458 0.4747
23 15 23 -5.4592 0.2064
23 15 26 -17.1470 -0.1952
23 15 29 -5.2917 0.0617
23 15 32 -12.1356 -0.0535
23 15 35 -6.7865 0.0459
23 15 38 -6.6791 -0.0429
23 16 -38 -4.3949 -0.0931
23 16 -35 -7.1313 0.0474
23 16 -32 2.0289 -0.1525
23 16 -29 2.4593 0.2046
23 16 -26 11.3920 0.1129
23 16 -23 0.7710 -0.2269
23 16 -20 2.7371 0.1518
23 16 -17 12.8128 -0.0289
23 16 -14 15.6325 0.2338
23 16 -11 3.9286 -0.0937
23 16 -8 5.1332 -0.1120
23 16 -5 7.2980 0.5367
23 16 -2 0.9168 0.2096
23 16 1 19.7086 -0.4305
23 16 4 -0.6194 -0.4668
23 16 7 -13.0028 0.0155
23 16 10 16.9164 0.1447
23 16 13 3.5493 -0.1527
23 16 16 6.6132 0.1251
23 16 19 6.1359 0.4243
23 16 22 -0.8952 0.4369
23 16 25 15.4334 -0.4308
23 16 28 -10.4284 -0.2431
23 16 31 -2.9692 0.1744
23 16 34 -7.8279 -0.1445
23 16 37 4.8047 -0.1232
23 17 -36 2.6278 0.0796
23 17 -33 -1.3899 0.0917
23 17 -30 2.2114 -0.1090
23 17 -27 -5.8997 -0.1038
23 17 -24 -2.9143 -0.0453
23 17 -21 3.2411 -0.1010
23 17 -18 -0.1731 -0.1964
23 17 -15 -2.2620 -0.0631
23 17 -12 -2.6294 0.3615
23 17 -9 9.6331 0.2894
23 17 -6 9.2778 -0.2395
23 17 -3 5.0317 -0.2304
23 17 0 9.7590 0.0762
23 17 3 -7.9718 0.2068
23 17 6 -4.5359 -0.3610
23 17 9 9.2023 -0.1375
23 17 12 5.0449 0.1737
23 17 15 1.0569 0.3322
23 17 18 7.3633 0.1223
23 17 21 6.2587 -0.1462
23 17 24 14.7951 -0.0967
23 17 27 -3.8805 -0.0239
23 17 30 0.5526 0.1697
23 17 33 8.3844 -0.1715
23 17 36 0.4662 -0.0640
23 18 -37 0.0290 -0.1528
23 18 -34 6.0237 0.0888
23 18 -31 -13.6254 0.0809
23 18 -28 12.1808 -0.1030
23 18 -25 6.4094 0.1417
23 18 -22 8.6119 0.2161
23 18 -19 -7.5253 -0.0795
23 18 -16 1.9464 -0.1976
23 18 -13 20.4002 -0.0307
23 18 -10 6.4063 -0.0919
23 18 -7 4.9583 -0.2308
23 18 -4 -0.2503 -0.2007
23 18 -1 0.8588 0.1658
23 18 2 5.4070 0.6631
23 18 5 -7.9501 -0.0116
23 18 8 4.6894 -0.2026
23 18 11 0.7509 0.0373
23 18 14 1.8860 -0.0184
23 18 17 0.4579 -0.3212
23 18 20 -3.3849 -0.3842
23 18 23 -3.4637 0.1801
23 18 26 -7.1873 0.1604
23 18 29 -4.9022 0.0949
23 18 32 -14.0926 0.0310
23 18 35 -5.8612 -0.0258
23 19 -35 8.4144 -0.0109
23 19 -32 2.4631 0.0266
23 19 -29 -3.3275 -0.0191
23 19 -26 7.8656 0.1920
23 19 -23 6.9057 -0.0426
23 19 -20 2.1649 -0.2110
23 19 -17 -5.7844 -0.0504
23 19 -14 -9.1233 0.2327
23 19 -11 3.8242 0.2114
23 19 -8 2.1573 -0.1165
23 19 -5 -1.8202 -0.2067
23 19 -2 2.4812 0.0903
23 19 1 -13.5301 0.1819
23 19 4 -4.0590 -0.2533
23 19 7 -3.4559 -0.0311
23 19 10 -1.5087 0.0221
23 19 13 -1.4760 0.0901
23 19 16 -8.4124 0.0533
23 19 19 -10.1357 -0.1920
23 19 22 -3.0891 0.1817
23 19 25 -7.2991 0.0988
23 19 28 -4.3528 -0.0706
23 19 31 0.7110 0.0879
23 19 34 -0.2236 -0.1325
23 19 37 21.0605 0.1411
23 20 -36 -3.0563 -0.1359
23 20 -33 6.7438 -0.1458
23 20 -30 -12.0853 -0.1623
23 20 -27 4.4694 -0.0588
23 20 -24 0.0881 0.1663
23 20 -21 -5.6818 0.0798
23 20 -18 6.2628 0.1058
23 20 -15 4.5545 0.1741
23 20 -12 -1.4481 0.0111
23 20 -9 -10.8894 -0.0432
23 20 -6 -6.0437 -0.2295
23 20 -3 1.3775 -0.0899
23 20 0 5.4571 -0.0683
23 20 3 0.9300 -0.1320
23 20 6 -5.7214 0.1876
23 20 9 -2.1113 0.0881
23 20 12 1.6170 -0.0243
23 20 15 1.6111 0.1461
23 20 18 1.1651 -0.0388
23 20 21 1.8937 0.1046
23 20 24 -20.6331 -0.0128
23 20 27 -0.3466 -0.2161
23 20 30 11.5263 -0.0194
23 20 33 1.7379 0.0707
23 20 36 5.7083 0.0665
23 21 -34 8.2223 -0.0819
23 21 -31 6.8737 0.1500
23 21 -28 -1.1880 0.0902
23 21 -25 1.1820 -0.0613
23 21 -22 -6.4430 -0.0032
23 21 -19 11.3537 -0.0340
23 21 -16 5.1438 0.0362
23 21 -13 1.4910 -0.1991
23 21 -10 2.3453 -0.1011
23 21 -7 -3.1379 0.1540
23 21 -4 5.8868 0.1472
23 21 -1 -6.9261 -0.1201
23 21 2 -0.1233 -0.1128
23 21 5 2.0060 0.0676
23 21 8 -5.4599 0.2921
23 21 11 -4.3790 -0.1789
23 21 14 -10.3613 -0.1017
23 21 17 3.2696 0.0570
23 21 20 4.3078 -0.1076
23 21 23 13.6315 -0.0267
23 21 26 -11.4260 -0.2531
23 21 29 2.2558 0.0786
23 21 32 2.1520 0.2449
23 21 35 15.6982 -0.0927
23 22 -35 -13.1034 0.0010
23 22 -32 -3.8082 -0.0649
23 22 -29 1.2756 -0.0021
23 22 -26 1.4296 -0.1307
23 22 -23 -0.6511 -0.1367
23 22 -20 -3.2180 0.0506
23 22 -17 -0.2509 0.1356
23 22 -14 -6.6645 0.1207
23 22 -11 -0.6000 0.1700
23 22 -8 -4.4496 -0.0130
23 22 -5 8.6223 0.0329
23 22 -2 -10.5609 -0.0123
23 22 1 -12.2679 -0.0933
23 22 4 -1.5289 -0.0456
23 22 7 -2.0098 0.0189
23 22 10 15.7389 0.0179
23 22 13 21.9459 -0.0138
23 22 16 -2.2502 0.0694
23 22 19 5.8982 -0.0476
23 22 22 0.6662 0.0126
23 22 25 -4.3261 0.0404
23 22 28 -9.9384 -0.0524
23 22 31 -3.5054 0.0301
23 22 34 -11.3542 -0.0746
23 23 0 -44.7046 0.2705
23 23 3 5.2073 -0.1222
23 23 6 -3.7483 -0.1308
23 23 9 -6.5604 -0.0329
23 23 12 16.2238 -0.1864
23 23 15 -9.7462 -0.0233
23 23 18 -1.7794 0.0779
23 23 21 -7.4493 0.2204
23 23 24 -12.1545 0.1737
23 23 27 -9.7449 -0.2209
23 23 30 -2.8950 -0.0766
23 23 33 -14.1415 0.0364
24 0 -42 6.5060 0.0897
24 0 -36 17.6125 -0.2796
24 0 -30 3.8536 -0.2233
24 0 -24 -2.1887 -0.1482
24 0 -18 -4.2769 1.3602
24 0 -12 38.3298 1.3005
24 0 -6 0.8990 0.1019
24 0 0 13.7255 -3.3321
24 0 6 -1.2590 0.2324
24 0 12 5.7902 0.5733
24 0 18 -15.3824 3.3190
24 0 24 -0.7083 -0.9283
24 0 30 17.0407 -0.6434
24 0 36 -3.1239 -0.0074
24 0 42 -11.5642 0.1035
24 1 -43 11.0074 -0.0553
24 1 -40 -24.0938 0.3231
24 1 -37 -14.1967 -0.1458
24 1 -34 -2.2629 -0.4498
24 1 -31 0.3386 0.3589
24 1 -28 -9.6694 -0.1553
24 1 -25 -4.4408 -0.2802
24 1 -22 -1.9452 -0.2815
24 1 -19 -0.6933 1.2045
24 1 -16 0.6018 2.1411
24 1 -13 6.5239 -3.0777
24 1 -10 2.9360 -0.9361
24 1 -7 -2.7989 0.0934
24 1 -4 28.4729 -1.0629
24 1 -1 12.2340 0.0802
24 1 2 9.8701 -1.2225
24 1 5 -6.1806 4.2120
24 1 8 -8.4237 2.2207
24 1 11 -22.2808 -2.4865
24 1 14 -1.7562 -0.4127
24 1 17 -5.0496 -0.4406
24 1 20 -6.0416 -0.0021
24 1 23 -5.2203 -1.0037
24 1 26 -12.4913 -0.3561
24 1 29 3.6774 0.8954
24 1 32 4.0578 0.2383
24 1 35 0.7857 -0.0103
24 1 38 5.1699 -0.0266
24 1 41 -8.2057 0.0581
24 1 44 3.2833 -0.0185
24 2 -44 -7.7434 -0.0712
24 2 -41 -11.2060 0.1049
24 2 -38 -1.7815 0.0393
24 2 -35 -4.6731 -0.0037
24 2 -32 3.2777 -0.1408
24 2 -29 10.7387 0.0048
24 2 -26 8.3576 0.2578
24 2 -23 -1.3361 -0.1179
24 2 -20 -5.4612 -0.8509
24 2 -17 10.2531 0.4026
24 2 -14 5.0367 1.0505
24 2 -11 -14.9928 -0.7758
24 2 -8 5.4679 -0.0361
24 2 -5 16.0475 0.5348
24 2 -2 4.0174 0.9597
24 2 1 9.2992 0.5709
24 2 4 -1.3500 -2.8560
24 2 7 -10.2617 0.3824
24 2 10 13.8621 0.4460
24 2 13 -8.3248 -0.7907
24 2 16 6.2994 -0.2802
24 2 19 -5.0478 -0.5560
24 2 22 -3.5910 0.6005
24 2 25 4.5067 0.2505
24 2 28 -5.6428 -0.3712
24 2 31 -6.1075 0.0222
24 2 34 -5.2951 -0.0670
24 2 37 -14.1896 0.0447
24 2 40 -0.5350 0.1182
24 2 43 4.1459 0.0056
24 3 -42 21.2780 0.0774
24 3 -39 5.0544 -0.1570
24 3 -36 9.4980 0.0316
24 3 -33 -8.9849 -0.2904
24 3 -30 -6.2702 -0.3686
24 3 -27 0.5219 0.3351
24 3 -24 19.4525 0.3975
24 3 -21 4.1439 0.1281
24 3 -18 -24.6479 0.4054
24 3 -15 5.3579 0.6338
24 3 -12 -4.1145 0.1025
24 3 -9 0.9704 -1.1763
24 3 -6 -2.2700 -0.0925
24 3 -3 -35.0332 0.5467
24 3 0 0.8053 -0.3651
24 3 3 -21.9376 -0.3780
24 3 6 1.5079 0.7187
24 3 9 2.1270 0.9791
24 3 12 0.2895 -0.0618
24 3 15 16.0966 -0.0896
24 3 18 5.0529 0.4519
24 3 21 0.6623 0.1356
24 3 24 6.6225 -0.2550
24 3 27 -7.5883 -0.1457
24 3 30 7.1013 -0.1680
24 3 33 22.0829 -0.0464
24 3 36 9.3351 -0.0467
24 3 39 7.8897 0.0805
24 3 42 -2.9896 0.1354
24 4 -43 3.3160 0.0861
24 4 -40 5.9848 0.0588
24 4 -37 -1.7104 0.1293
24 4 -34 1.9567 0.1729
24 4 -31 1.3630 -0.0978
24 4 -28 -15.6759 -0.5451
24 4 -25 -0.9894 0.1961
24 4 -22 -6.8109 -0.1961
24 4 -19 7.7864 -0.2493
24 4 -16 5.9683 0.0381
24 4 -13 1.3835 0.3931
24 4 -10 10.8806 1.1313
24 4 -7 -4.8304 -0.6537
24 4 -4 -3.9134 -0.5740
24 4 -1 15.3651 0.3899
24 4 2 -21.3481 -1.3441
24 4 5 4.8975 -0.2203
24 4 8 -9.0304 -0.1216
24 4 11 19.7800 1.0093
24 4 14 -2.8739 0.4164
24 4 17 0.5805 -0.1668
24 4 20 6.9846 0.7199
24 4 23 3.6573 -0.3159
24 4 26 1.4296 -0.4036
24 4 29 -1.0740 -0.2983
24 4 32 17.1486 -0.1720
24 4 35 -15.0607 0.1915
24 4 38 4.9054 -0.1705
24 4 41 12.5859 0.0539
24 5 -41 25.6180 0.0240
24 5 -38 3.9758 -0.0070
24 5 -35 8.6604 -0.1864
24 5 -32 1.5297 0.1647
24 5 -29 11.1086 -0.1895
24 5 -26 12.7379 -0.1476
24 5 -23 -7.5129 0.2612
24 5 -20 5.9026 0.5708
24 5 -17 -14.7468 0.5175
24 5 -14 14.5193 -0.3297
24 5 -11 16.8556 0.5025
24 5 -8 -24.7667 -0.1482
24 5 -5 -2.2752 -1.3271
24 5 -2 8.0486 -1.4185
24 5 1 14.7873 -0.3366
24 5 4 10.8432 1.4804
24 5 7 8.7964 0.1793
24 5 10 -6.3785 -0.1160
24 5 13 0.8760 1.0296
24 5 16 -9.7784 0.0137
24 5 19 -2.2598 -0.0481
24 5 22 10.0800 -0.5831
24 5 25 1.0883 -0.3154
24 5 28 -4.3646 0.2022
24 5 31 -12.6758 -0.0841
24 5 34 -8.4771 0.0637
24 5 37 -2.2994 -0.1675
24 5 40 1.8449 -0.1573
24 5 43 -9.7111 0.1753
24 6 -42 -16.0556 0.0790
24 6 -39 -0.7022 -0.0127
24 6 -36 10.0510 -0.2499
24 6 -33 2.0954 0.0875
24 6 -30 4.8519 0.1485
24 6 -27 2.8451 0.1727
24 6 -24 5.3569 0.0823
24 6 -21 16.9155 0.1548
24 6 -18 0.0611 0.1492
24 6 -15 -7.7282 -0.8357
24 6 -12 -8.5672 -0.4126
24 6 -9 6.5417 0.4202
24 6 -6 3.6546 -0.0971
24 6 -3 0.5021 0.5871
24 6 0 -2.6075 0.4785
24 6 3 5.7030 0.8029
24 6 6 -43.8038 0.7366
24 6 9 -0.0961 -1.5843
24 6 12 -12.1699 -0.5587
24 6 15 -6.0382 0.2156
24 6 18 -5.4816 -0.1885
24 6 21 -4.8201 0.3138
24 6 24 1.8461 0.0439
24 6 27 -1.4017 0.7404
24 6 30 -8.5635 0.1228
24 6 33 8.0983 -0.3421
24 6 36 -8.4476 -0.1102
24 6 39 1.8950 -0.1860
24 6 42 -14.6562 0.0219
24 7 -40 3.7033 0.0940
24 7 -37 9.5457 -0.0150
24 7 -34 1.2740 0.0857
24 7 -31 -12.2175 -0.2697
24 7 -28 -2.0567 -0.1474
24 7 -25 9.7591 -0.1356
24 7 -22 2.4937 -0.1096
24 7 -19 -9.6483 0.3413
24 7 -16 5.7267 -0.5613
24 7 -13 -2.6153 0.2146
24 7 -10 0.7128 0.6767
24 7 -7 0.3536 -0.0560
24 7 -4 7.1415 -0.0305
24 7 -1 4.7713 -0.0782
24 7 2 7.6647 -0.1343
24 7 5 -14.1270 -0.0501
24 7 8 9.5735 -0.6203
24 7 11 21.9501 -0.0158
24 7 14 7.2321 0.0444
24 7 17 0.9003 -0.2630
24 7 20 14.0755 0.2551
24 7 23 -5.2320 0.1783
24 7 26 4.8444 0.2567
24 7 29 6.9894 0.0872
24 7 32 -2.3280 -0.3227
24 7 35 8.8331 0.1163
24 7 38 -9.6140 0.0259
24 7 41 -7.9831 -0.1258
24 8 -41 23.3393 -0.0485
24 8 -38 15.2073 0.0598
24 8 -35 4.7056 -0.0403
24 8 -32 7.6616 -0.0217
24 8 -29 -16.4431 0.1667
24 8 -26 5.6719 0.3330
24 8 -23 -3.3698 0.0355
24 8 -20 -1.4093 0.1451
24 8 -17 -1.3419 0.0970
24 8 -14 -6.3551 -0.0882
24 8 -11 -4.8074 -0.6198
24 8 -8 3.2196 -0.6184
24 8 -5 -9.5118 -0.2493
24 8 -2 16.1916 0.1441
24 8 1 -19.4490 0.2301
24 8 4 -0.9735 -0.0449
24 8 7 -8.8262 0.5545
24 8 10 9.9462 0.7552
24 8 13 -7.8852 -0.1826
24 8 16 -1.2613 -0.3482
24 8 19 28.0023 -0.3055
24 8 22 -3.8443 0.3522
24 8 25 -5.5524 -0.3299
24 8 28 7.5117 -0.1886
24 8 31 9.1139 0.1820
24 8 34 8.8063 0.2763
24 8 37 1.2107 0.2550
24 8 40 5.0504 -0.2101
24 9 -39 -4.4653 0.1562
24 9 -36 6.7277 -0.0185
24 9 -33 -5.6338 -0.1417
24 9 -30 10.0026 -0.0875
24 9 -27 1.7553 0.4916
24 9 -24 -12.5228 -0.2238
24 9 -21 -2.5054 -0.3943
24 9 -18 15.8524 0.1994
24 9 -15 0.6942 0.0863
24 9 -12 -8.0247 -0.1906
24 9 -9 6.6396 -0.4324
24 9 -6 14.9416 0.7164
24 9 -3 5.9842 0.7624
24 9 0 5.9110 -0.7015
24 9 3 6.2738 -0.0285
24 9 6 -16.8941 0.4470
24 9 9 -14.5840 0.3431
24 9 12 6.1157 -0.4896
24 9 15 11.2809 -0.6875
24 9 18 -4.2891 0.2812
24 9 21 -6.7196 0.0513
24 9 24 9.3926 -0.2846
24 9 27 3.1636 -0.0540
24 9 30 -6.8298 0.2743
24 9 33 11.0271 0.2049
24 9 36 3.2984 0.0214
24 9 39 -14.8204 -0.0370
24 10 -40 10.4814 0.1101
24 10 -37 -1.2971 -0.0417
24 10 -34 3.9650 -0.0540
24 10 -31 0.2137 -0.3437
24 10 -28 -6.7760 -0.0708
24 10 -25 2.6165 0.1454
24 10 -22 3.3335 -0.3051
24 10 -19 3.6365 0.4006
24 10 -16 -4.5695 0.6424
24 10 -13 5.6004 0.0868
24 10 -10 -0.0761 -0.2794
24 10 -7 -4.1264 -0.4503
24 10 -4 2.6717 0.2908
24 10 -1 -5.2227 -0.0202
24 10 2 -1.4494 -1.0572
24 10 5 -12.1680 0.2378
24 10 8 12.1092 0.5708
24 10 11 7.7804 0.1433
24 10 14 -1.0133 -0.1918
24 10 17 -1.6730 -0.2508
24 10 20 -5.9724 0.3178
24 10 23 23.5093 -0.0457
24 10 26 -0.2124 -0.3034
24 10 29 -4.2288 0.1708
24 10 32 -0.2597 -0.0320
24 10 35 -4.0544 0.0142
24 10 38 12.1539 0.0277
24 10 41 -12.0539 0.1304
24 11 -41 -0.0202 0.0958
24 11 -38 5.1888 0.0355
24 11 -35 5.3503 0.1731
24 11 -32 3.0375 0.1242
24 11 -29 0.8408 -0.0392
24 11 -26 4.2026 0.0256
24 11 -23 -19.9528 -0.2114
24 11 -20 -1.6941 -0.4553
24 11 -17 -6.4718 0.1507
24 11 -14 -5.2809 -0.2127
24 11 -11 -12.8931 0.1864
24 11 -8 -14.0972 0.4029
24 11 -5 -7.0507 0.0049
24 11 -2 -2.9182 0.3700
24 11 1 0.4542 -0.2599
24 11 4 -6.2134 -0.2146
24 11 7 4.6930 -0.2140
24 11 10 -10.2698 -0.2718
24 11 13 -1.1300 0.6262
24 11 16 -14.5180 0.1110
24 11 19 7.0660 -0.0765
24 11 22 -1.2546 0.2098
24 11 25 1.3025 -0.1997
24 11 28 -13.8399 0.0515
24 11 31 -10.0710 -0.2041
24 11 34 12.8285 -0.2011
24 11 37 1.7553 0.1326
24 11 40 2.0115 0.0806
24 12 -39 2.8755 -0.0775
24 12 -36 8.0373 -0.0458
24 12 -33 -1.7347 0.0934
24 12 -30 -5.2988 -0.0250
24 12 -27 -9.0642 -0.1068
24 12 -24 1.8850 0.2112
24 12 -21 -7.1169 -0.0627
24 12 -18 -0.5402 -0.2297
24 12 -15 3.1634 0.0075
24 12 -12 -3.1645 0.3029
24 12 -9 1.1996 0.2783
24 12 -6 -7.9475 -0.2901
24 12 -3 9.8262 -0.0841
24 12 0 -0.8788 0.2507
24 12 3 4.1977 -0.1699
24 12 6 -4.4620 -0.3107
24 12 9 -5.8039 -0.2160
24 12 12 9.2920 0.2903
24 12 15 3.6172 0.6431
24 12 18 6.5513 -0.3926
24 12 21 2.5943 0.1215
24 12 24 -3.2136 0.1661
24 12 27 -4.8331 -0.2322
24 12 30 7.2987 0.0885
24 12 33 -6.6442 -0.3442
24 12 36 15.1283 0.0714
24 12 39 -8.1675 0.0069
24 13 -40 13.3784 0.0487
24 13 -37 -7.8341 -0.1195
24 13 -34 -6.2491 -0.0649
24 13 -31 2.3697 -0.0764
24 13 -28 9.4055 0.1028
24 13 -25 2.7291 0.4084
24 13 -22 4.4594 -0.0151
24 13 -19 8.9042 -0.0013
24 13 -16 11.9376 -0.1150
24 13 -13 -7.2381 0.1278
24 13 -10 15.6856 -0.3417
24 13 -7 -5.7512 -0.8218
24 13 -4 0.2978 0.2159
24 13 -1 0.2142 0.4867
24 13 2 -3.9801 0.2093
24 13 5 8.6204 -0.1532
24 13 8 -2.3729 0.1112
24 13 11 0.2821 0.2908
24 13 14 15.0988 -0.0616
24 13 17 -18.6996 -0.3009
24 13 20 -15.6797 -0.1913
24 13 23 5.1438 0.2883
24 13 26 -7.5947 -0.0879
24 13 29 9.9181 0.0260
24 13 32 -13.2534 0.1648
24 13 35 1.8078 -0.0479
24 13 38 -5.6589 -0.0263
24 14 -38 -8.3083 0.0027
24 14 -35 2.2997 -0.0603
24 14 -32 -8.2906 -0.1247
24 14 -29 -7.1216 -0.2221
24 14 -26 12.1052 0.0028
24 14 -23 12.9301 -0.0509
24 14 -20 -1.1684 -0.0027
24 14 -17 0.7719 0.0407
24 14 -14 -8.4705 0.1876
24 14 -11 -4.5643 0.3454
24 14 -8 2.7164 -0.1830
24 14 -5 -4.5795 -0.2117
24 14 -2 -1.0017 0.1820
24 14 1 1.5822 0.1718
24 14 4 -2.1019 0.1010
24 14 7 9.9327 -0.0208
24 14 10 8.8377 0.0628
24 14 13 -0.0341 -0.0443
24 14 16 -5.8438 -0.3116
24 14 19 -4.8440 -0.0590
24 14 22 -0.8841 0.0595
24 14 25 8.9421 0.2821
24 14 28 -1.4054 -0.0666
24 14 31 -0.1739 0.0119
24 14 34 -15.1177 0.0990
24 14 37 -1.5456 -0.0209
24 15 -39 -5.0874 -0.0131
24 15 -36 -4.9789 -0.0075
24 15 -33 -5.3184 -0.0821
24 15 -30 -4.4136 0.1732
24 15 -27 -5.8546 -0.0706
24 15 -24 16.7607 -0.2801
24 15 -21 -3.0341 0.2287
24 15 -18 -0.1450 0.2387
24 15 -15 -0.8538 0.0381
24 15 -12 9.1283 -0.2590
24 15 -9 -7.1004 0.0946
24 15 -6 3.3037 0.5649
24 15 -3 2.1228 -0.3199
24 15 0 0.5553 -0.6310
24 15 3 -4.5332 -0.0054
24 15 6 9.0090 0.3529
24 15 9 -3.3915 -0.0215
24 15 12 7.1860 -0.3584
24 15 15 -8.6744 0.0987
24 15 18 -10.4873 0.3065
24 15 21 5.7884 0.1022
24 15 24 7.6781 -0.0275
24 15 27 -3.0659 -0.1862
24 15 30 6.4988 0.0982
24 15 33 -5.7569 -0.0158
24 15 36 6.0930 -0.0445
24 15 39 -3.8964 -0.2104
24 16 -37 -2.4330 0.0221
24 16 -34 12.1634 -0.0159
24 16 -31 0.2484 0.1478
24 16 -28 -1.1457 0.0241
24 16 -25 -0.1691 -0.1542
24 16 -22 2.7544 -0.0427
24 16 -19 6.5455 0.1114
24 16 -16 4.7430 -0.0612
24 16 -13 6.9061 -0.2647
24 16 -10 14.7558 0.2486
24 16 -7 -4.2155 0.2928
24 16 -4 1.8375 -0.3119
24 16 -1 10.1900 -0.3809
24 16 2 0.4706 -0.0461
24 16 5 11.2959 0.2746
24 16 8 -3.6624 0.1602
24 16 11 -7.2063 -0.1171
24 16 14 0.3557 0.3816
24 16 17 13.9006 0.1259
24 16 20 -16.2225 -0.2441
24 16 23 -4.1110 -0.1614
24 16 26 -3.4893 -0.2565
24 16 29 -0.2996 0.2126
24 16 32 -4.5837 0.1347
24 16 35 -4.4399 -0.0987
24 16 38 1.5311 0.1429
24 17 -35 -7.6118 -0.1733
24 17 -32 -4.4095 0.1248
24 17 -29 1.7725 -0.0993
24 17 -26 15.1841 -0.0331
24 17 -23 -1.6001 0.1424
24 17 -20 -12.9122 0.0663
24 17 -17 13.5638 0.0654
24 17 -14 9.2859 -0.1254
24 17 -11 -1.2485 -0.0250
24 17 -8 -0.0585 0.0195
24 17 -5 -7.9689 -0.1226
24 17 -2 -2.6788 0.0054
24 17 1 -13.6002 0.4142
24 17 4 3.0111 -0.1006
24 17 7 -7.0309 -0.2423
24 17 10 12.7175 -0.0490
24 17 13 -9.7556 -0.0450
24 17 16 10.5654 0.1238
24 17 19 -8.3847 -0.3333
24 17 22 12.9700 -0.1305
24 17 25 -3.3323 0.3364
24 17 28 5.9148 -0.0069
24 17 31 8.3261 0.0710
24 17 34 11.5531 -0.0598
24 17 37 4.7580 0.1404
24 18 -36 5.8859 -0.0745
24 18 -33 12.4890 -0.0021
24 18 -30 10.3472 0.1088
24 18 -27 2.9121 0.1327
24 18 -24 -7.6507 0.0473
24 18 -21 -3.6750 -0.1851
24 18 -18 -5.3844 -0.1691
24 18 -15 -24.7726 0.0452
24 18 -12 2.5406 -0.0327
24 18 -9 6.6058 -0.0936
24 18 -6 -5.9186 0.0357
24 18 -3 -10.1333 0.2234
24 18 0 -6.3014 0.3218
24 18 3 5.7777 -0.1929
24 18 6 4.0424 -0.3432
24 18 9 -0.5596 0.1738
24 18 12 4.0923 -0.0268
24 18 15 -6.9845 -0.1302
24 18 18 17.7437 0.0225
24 18 21 5.9186 0.0194
24 18 24 17.2298 0.3557
24 18 27 5.5020 -0.2369
24 18 30 12.0695 -0.1980
24 18 33 8.5549 0.1071
24 18 36 -5.4338 -0.1362
24 19 -34 0.1006 -0.0914
24 19 -31 -0.5643 -0.1424
24 19 -28 4.3947 0.0694
24 19 -25 10.5005 0.0611
24 19 -22 7.6224 0.0049
24 19 -19 8.6641 0.0462
24 19 -16 12.1226 0.0334
24 19 -13 4.6666 0.1460
24 19 -10 -18.4869 -0.0429
24 19 -7 11.6370 -0.5114
24 19 -4 -7.0079 -0.1116
24 19 -1 -7.5330 0.2424
24 19 2 -10.0957 -0.0752
24 19 5 2.8363 -0.0949
24 19 8 -2.2827 0.0871
24 19 11 -1.3935 0.2576
24 19 14 -2.8926 0.0586
24 19 17 -9.9831 -0.0766
24 19 20 3.5658 -0.0259
24 19 23 -18.8304 0.0695
24 19 26 -2.5543 -0.0355
24 19 29 2.2714 -0.3669
24 19 32 0.1125 0.0564
24 19 35 -0.6250 0.1709
24 20 -35 -2.6340 -0.1331
24 20 -32 -11.7571 -0.0525
24 20 -29 -4.9455 0.1054
24 20 -26 17.3904 0.1389
24 20 -23 13.6628 0.1732
24 20 -20 3.3972 -0.0191
24 20 -17 -9.9275 0.0069
24 20 -14 -6.2059 -0.1881
24 20 -11 -0.1499 -0.0430
24 20 -8 -9.9814 -0.0233
24 20 -5 0.7500 -0.2184
24 20 -2 -11.1344 0.0892
24 20 1 5.6070 0.3186
24 20 4 6.4582 0.2069
24 20 7 -5.5270 -0.2373
24 20 10 5.3705 -0.0353
24 20 13 -15.8229 0.0333
24 20 16 -8.0628 -0.1447
24 20 19 4.6970 -0.1528
24 20 22 5.7533 -0.0067
24 20 25 -4.1610 0.0889
24 20 28 6.7895 0.0105
24 20 31 3.9548 0.0153
24 20 34 5.3841 0.0774
24 21 -33 -2.2372 0.0052
24 21 -30 -13.6174 -0.0509
24 21 -27 2.4348 -0.1684
24 21 -24 -5.2424 -0.0953
24 21 -21 -1.8502 0.0716
24 21 -18 17.4655 -0.2052
24 21 -15 1.9380 0.0179
24 21 -12 -1.5688 0.2251
24 21 -9 10.4774 0.0250
24 21 -6 -13.3758 0.1598
24 21 -3 -5.0326 -0.2940
24 21 0 -7.7182 0.0011
24 21 3 -5.2015 0.3561
24 21 6 6.5555 -0.2236
24 21 9 4.7810 0.0225
24 21 12 3.0836 -0.1393
24 21 15 2.4719 -0.0037
24 21 18 -0.5410 -0.0038
24 21 21 0.6407 -0.3032
24 21 24 5.1876 0.2231
24 21 27 -9.4154 0.3068
24 21 30 15.6263 0.0301
24 21 33 -8.2603 -0.0861
24 22 -34 3.9219 0.0594
24 22 -31 -16.3646 0.0230
24 22 -28 -5.3083 0.0031
24 22 -25 -8.6209 0.0149
24 22 -22 1.8043 0.2055
24 22 -19 -5.0089 0.0604
24 22 -16 13.7209 -0.3280
24 22 -13 -4.7559 0.0400
24 22 -10 10.3136 -0.0685
24 22 -7 8.8305 0.0938
24 22 -4 0.1016 -0.0936
24 22 -1 -8.2014 -0.2241
24 22 2 -1.9861 0.3330
24 22 5 4.0750 0.0447
24 22 8 14.3341 -0.2565
24 22 11 -3.9555 -0.0162
24 22 14 7.8781 -0.0990
24 22 17 -3.8261 0.3702
24 22 20 10.3360 -0.0614
24 22 23 3.0379 -0.1039
24 22 26 -5.4560 0.2761
24 22 29 -18.1038 -0.0793
24 22 32 5.6916 -0.0246
24 23 -32 -2.8631 0.0363
24 23 -29 -2.3750 0.1702
24 23 -26 2.0454 0.0503
24 23 -23 8.0122 -0.0116
24 23 -20 -11.1622 -0.1233
24 23 -17 2.9251 -0.1975
24 23 -14 -19.7960 0.0798
24 23 -11 6.7161 -0.0526
24 23 -8 16.4580 0.0671
24 23 -5 4.0088 0.2284
24 23 -2 -18.3675 -0.0055
24 23 1 -16.8726 -0.0717
24 23 4 -2.8190 -0.0622
24 23 7 0.8230 -0.0544
24 23 10 12.6414 0.0317
24 23 13 -4.8447 -0.1745
24 23 16 0.1015 0.1684
24 23 19 4.1874 0.2928
24 23 22 7.9749 -0.0994
24 23 25 6.2473 -0.0675
24 23 28 -3.9141 -0.0562
24 23 31 4.4941 0.0505
24 24 0 11.8047 0.0731
24 24 3 -1.9910 -0.0371
24 24 6 -4.3463 -0.0805
24 24 9 -4.7381 0.3285
24 24 12 -14.9437 0.0357
24 24 15 -13.9961 -0.2934
24 24 18 -0.9497 -0.0417
24 24 21 6.2921 -0.1023
24 24 24 -1.5181 -0.0573
24 24 27 15.1131 0.0759
24 24 30 2.8492 -0.0300
25 0 -44 12.2701 -0.0713
25 0 -38 -3.7618 0.6545
25 0 -32 7.4637 -0.6541
25 0 -26 -3.8483 0.0682
25 0 -20 -0.0120 -1.8010
25 0 -14 -7.8727 3.0477
25 0 -8 23.0415 -0.1113
25 0 -2 -0.1433 -1.9333
25 0 4 15.7846 1.3016
25 0 10 -14.6392 -0.6730
25 0 16 2.1375 2.7250
25 0 22 -0.5847 -1.3232
25 0 28 12.6195 0.2690
25 0 34 27.6637 0.0170
25 0 40 17.6369 0.0275
25 1 -42 -11.1835 0.0455
25 1 -39 -3.0342 0.1237
25 1 -36 9.2270 0.3262
25 1 -33 -25.9960 0.2294
25 1 -30 1.4122 -0.0654
25 1 -27 -1.5844 0.0706
25 1 -24 -8.7286 0.3322
25 1 -21 -6.4829 -1.0345
25 1 -18 -2.1994 -1.4878
25 1 -15 8.0862 -0.7633
25 1 -12 2.5217 -0.0155
25 1 -9 0.5587 0.8238
25 1 -6 -13.7969 0.4261
25 1 -3 11.2982 1.8589
25 1 0 3.1707 1.4882
25 1 3 -2.5287 -0.5927
25 1 6 -2.0261 -0.2020
25 1 9 -8.7935 -2.4864
25 1 12 -8.7197 -1.1274
25 1 15 -6.2155 -0.1915
25 1 18 -6.7670 -0.2914
25 1 21 -5.8455 0.8165
25 1 24 -5.7705 0.1864
25 1 27 -3.7269 0.7689
25 1 30 0.3517 -0.0329
25 1 33 6.4878 -0.4766
25 1 36 -16.9474 -0.0034
25 1 39 -1.4207 -0.2309
25 1 42 -1.6102 0.1094
25 2 -43 7.8591 -0.0209
25 2 -40 -7.8712 -0.1338
25 2 -37 9.2042 0.0808
25 2 -34 -0.8488 0.1151
25 2 -31 1.8057 -0.0201
25 2 -28 -8.5337 -0.0424
25 2 -25 -8.6348 -0.0407
25 2 -22 -4.7575 0.5965
25 2 -19 8.5898 -0.3255
25 2 -16 -5.0739 0.0552
25 2 -13 0.9520 0.0306
25 2 -10 17.5471 -0.4492
25 2 -7 11.2405 0.9093
25 2 -4 17.2881 -0.4768
25 2 -1 -9.3720 0.4079
25 2 2 -11.1134 -0.8644
25 2 5 9.5326 -0.9231
25 2 8 1.3555 1.7775
25 2 11 1.0031 -0.9466
25 2 14 17.9107 0.2213
25 2 17 -0.3640 -0.0071
25 2 20 5.9925 0.2360
25 2 23 8.3126 0.8928
25 2 26 -0.2807 -0.6323
25 2 29 5.2713 0.1286
25 2 32 3.5494 -0.1713
25 2 35 -2.7858 -0.1614
25 2 38 13.9596 0.1058
25 2 41 5.2376 -0.1683
25 3 -41 20.3437 -0.0615
25 3 -38 -8.9292 0.0092
25 3 -35 0.4922 -0.1267
25 3 -32 11.8227 0.0056
25 3 -29 -9.7145 0.0945
25 3 -26 4.3140 -0.2382
25 3 -23 0.0525 0.0732
25 3 -20 0.3210 0.4880
25 3 -17 -5.3784 0.0942
25 3 -14 -8.7152 -0.5227
25 3 -11 5.8851 -0.2974
25 3 -8 0.9272 0.4517
25 3 -5 -1.7792 -0.0074
25 3 -2 -24.6647 -0.6613
25 3 1 -0.8517 -0.1691
25 3 4 0.0307 1.0406
25 3 7 18.2390 0.2305
25 3 10 10.1792 -0.0476
25 3 13 13.5591 -0.2770
25 3 16 -3.9388 0.0582
25 3 19 7.7921 -0.0465
25 3 22 -3.8310 -0.2249
25 3 25 2.4757 -0.1787
25 3 28 0.4411 0.3144
25 3 31 -2.7833 0.0962
25 3 34 -0.9912 0.0619
25 3 37 7.2272 0.0103
25 3 40 -11.5022 -0.1677
25 3 43 -3.7175 -0.0588
25 4 -42 2.3272 -0.0316
25 4 -39 4.0268 0.3617
25 4 -36 2.3252 -0.0661
25 4 -33 -6.1169 -0.0752
25 4 -30 2.6770 -0.0769
25 4 -27 2.7327 -0.4198
25 4 -24 -1.9291 -0.2861
25 4 -21 1.1452 -0.2758
25 4 -18 -18.6952 0.8673
25 4 -15 1.5271 0.6504
25 4 -12 1.0967 -0.3264
25 4 -9 -1.5060 0.3095
25 4 -6 -1.3512 -0.1133
25 4 -3 11.9043 -0.5959
25 4 0 8.7536 -1.0553
25 4 3 0.9626 -0.5001
25 4 6 -5.2773 0.8387
25 4 9 -9.4809 1.0699
25 4 12 13.2439 -0.1132
25 4 15 -7.4282 -0.4694
25 4 18 -3.9331 0.0206
25 4 21 15.3573 -0.2819
25 4 24 4.9147 -0.5169
25 4 27 -5.6575 -0.0224
25 4 30 2.2099 0.3424
25 4 33 -10.3841 0.2662
25 4 36 -5.7446 0.0821
25 4 39 -9.3931 -0.1390
25 4 42 -6.7782 -0.0420
25 5 -40 -8.6877 0.1607
25 5 -37 6.8966 0.0254
25 5 -34 13.5152 -0.0423
25 5 -31 -8.1894 0.4129
25 5 -28 -6.1535 0.1941
25 5 -25 13.8815 -0.0128
25 5 -22 -2.2275 -0.0833
25 5 -19 -0.2304 -0.2970
25 5 -16 -0.1356 -0.0002
25 5 -13 2.1784 -0.5263
25 5 -10 -1.2998 -0.4631
25 5 -7 7.7227 0.3140
25 5 -4 7.2371 0.0247
25 5 -1 22.7806 0.6496
25 5 2 7.6318 1.3040
25 5 5 1.3703 -0.3729
25 5 8 -2.0325 -0.5434
25 5 11 -4.6298 0.2551
25 5 14 -1.0736 -0.1567
25 5 17 -12.3498 -0.6138
25 5 20 -2.0817 -0.2856
25 5 23 -18.0286 0.3762
25 5 26 7.4073 0.1209
25 5 29 -2.2382 0.1657
25 5 32 1.4450 0.0929
25 5 35 5.5171 0.1075
25 5 38 15.3554 0.0266
25 5 41 -5.3516 -0.0244
25 6 -41 10.4574 -0.1314
25 6 -38 1.8286 0.0016
25 6 -35 -3.4187 0.1472
25 6 -32 9.1778 -0.0803
25 6 -29 -11.2518 0.0897
25 6 -26 7.2283 0.1536
25 6 -23 -5.1001 -0.1151
25 6 -20 -12.5000 -0.6384
25 6 -17 -9.5194 -0.3696
25 6 -14 0.4512 0.4229
25 6 -11 -8.5447 0.4137
25 6 -8 -1.6251 0.3019
25 6 -5 -1.9488 0.5616
25 6 -2 -5.5913 0.4933
25 6 1 -11.6009 -0.1468
25 6 4 -0.6962 -1.1598
25 6 7 11.3215 -1.1023
25 6 10 -8.0022 -0.2584
25 6 13 10.1960 0.6457
25 6 16 -5.7798 0.0616
25 6 19 11.1883 -0.0916
25 6 22 -7.4366 0.4673
25 6 25 5.9063 0.1607
25 6 28 8.1371 -0.2178
25 6 31 -1.5978 -0.3145
25 6 34 -9.5570 -0.0647
25 6 37 -7.6557 0.3497
25 6 40 -0.0968 0.1055
25 7 -42 -14.0636 -0.0410
25 7 -39 12.1430 -0.0801
25 7 -36 4.5529 0.0952
25 7 -33 -5.9326 -0.2843
25 7 -30 12.7039 -0.3305
25 7 -27 -1.5643 -0.0287
25 7 -24 8.9548 0.6419
25 7 -21 1.0917 0.1300
25 7 -18 4.1597 -0.4606
25 7 -15 -16.8747 0.4954
25 7 -12 10.1069 0.4244
25 7 -9 -12.2714 -0.4447
25 7 -6 -9.0928 -0.8919
25 7 -3 -11.5690 -0.1801
25 7 0 -12.6530 0.7909
25 7 3 5.8605 -0.2901
25 7 6 -13.1304 -0.3207
25 7 9 -7.6937 0.6275
25 7 12 1.9892 0.3296
25 7 15 8.7138 0.0915
25 7 18 -1.8493 -0.4777
25 7 21 0.4709 0.0192
25 7 24 -5.7006 0.0689
25 7 27 -5.9461 -0.3696
25 7 30 13.2776 -0.1445
25 7 33 -1.2699 -0.0080
25 7 36 -0.9018 0.2836
25 7 39 0.5872 0.1004
25 7 42 3.9741 -0.0447
25 8 -40 9.0179 0.0479
25 8 -37 0.9789 0.1671
25 8 -34 8.4373 0.1243
25 8 -31 1.3991 0.0443
25 8 -28 -7.6766 -0.2141
25 8 -25 10.0456 0.1816
25 8 -22 -14.5889 0.0483
25 8 -19 12.2139 -0.7531
25 8 -16 -8.6123 0.0045
25 8 -13 6.9205 -0.1450
25 8 -10 -1.9166 0.3178
25 8 -7 6.2197 0.2928
25 8 -4 -12.1144 -0.1949
25 8 -1 21.9771 0.8519
25 8 2 -4.7115 0.0764
25 8 5 15.8107 -0.4658
25 8 8 11.9864 0.2126
25 8 11 0.9528 -0.4743
25 8 14 -0.6426 0.0306
25 8 17 -4.4284 0.0965
25 8 20 -5.5041 -0.1875
25 8 23 -1.8265 0.2857
25 8 26 -6.1072 -0.2667
25 8 29 -8.4037 0.1232
25 8 32 -1.1451 0.1243
25 8 35 11.2895 -0.1537
25 8 38 -15.8311 0.0287
25 8 41 -4.8032 -0.0579
25 9 -41 20.4586 0.0100
25 9 -38 -12.2396 0.0157
25 9 -35 4.6781 -0.0876
25 9 -32 -23.6817 0.1216
25 9 -29 -7.6549 -0.0574
25 9 -26 -1.7312 -0.4507
25 9 -23 0.0595 0.0502
25 9 -20 -1.4006 0.3163
25 9 -17 -15.3505 0.2919
25 9 -14 3.5622 -0.0243
25 9 -11 -2.6417 -0.0293
25 9 -8 1.0901 0.6327
25 9 -5 6.1016 -0.0682
25 9 -2 -0.8640 -0.9080
25 9 1 -5.8393 -0.2495
25 9 4 4.1999 0.2799
25 9 7 6.7603 0.1531
25 9 10 -4.8045 -0.4674
25 9 13 -7.7974 -0.1946
25 9 16 10.9512 0.6058
25 9 19 -9.4079 0.0588
25 9 22 23.0790 -0.1233
25 9 25 -14.0740 0.1777
25 9 28 -7.7044 0.0884
25 9 31 3.8317 0.1827
25 9 34 20.4155 -0.3911
25 9 37 13.0388 -0.1433
25 9 40 7.5806 0.0549
25 10 -39 1.2775 -0.0356
25 10 -36 -5.6442 -0.0313
25 10 -33 -3.8259 0.0173
25 10 -30 1.7366 0.1730
25 10 -27 -17.0580 -0.0549
25 10 -24 4.9910 0.0817
25 10 -21 8.0849 -0.0023
25 10 -18 6.2012 0.1958
25 10 -15 4.0458 -0.0795
25 10 -12 5.6242 -0.3946
25 10 -9 9.6732 0.1234
25 10 -6 -4.3877 -0.1487
25 10 -3 1.5173 0.1529
25 10 0 -0.2055 -0.2163
25 10 3 -2.0632 -0.1101
25 10 6 -3.4973 0.5865
25 10 9 -5.5572 -0.1807
25 10 12 -4.3516 -0.0960
25 10 15 -0.3939 0.1989
25 10 18 -6.1616 0.0537
25 10 21 3.0933 -0.0957
25 10 24 11.1401 -0.0754
25 10 27 -12.5864 0.1230
25 10 30 -4.7916 0.1011
25 10 33 -3.8402 -0.0976
25 10 36 4.5508 -0.1546
25 10 39 1.4142 0.1161
25 11 -40 3.5882 0.0096
25 11 -37 -5.0511 0.1002
25 11 -34 12.9802 0.0341
25 11 -31 -6.7152 0.0923
25 11 -28 7.7591 -0.2796
25 11 -25 4.0765 -0.2103
25 11 -22 -6.1043 0.0300
25 11 -19 -2.2794 -0.2639
25 11 -16 -6.6988 -0.1451
25 11 -13 -12.3730 0.3302
25 11 -10 -10.1074 0.8776
25 11 -7 -10.0363 -0.0749
25 11 -4 2.2582 -0.4118
25 11 -1 -1.0540 0.2319
25 11 2 1.7897 -0.0426
25 11 5 0.7062 -0.7114
25 11 8 -4.8780 -0.2465
25 11 11 4.5461 0.5284
25 11 14 -0.2282 0.3863
25 11 17 22.5173 -0.1646
25 11 20 4.5139 -0.1429
25 11 23 5.4962 0.2309
25 11 26 -4.8549 0.0409
25 11 29 13.2963 -0.2905
25 11 32 2.0319 0.0221
25 11 35 -1.8598 0.0717
25 11 38 18.4316 0.0991
25 12 -38 -2.7516 0.0856
25 12 -35 11.1470 -0.0720
25 12 -32 -5.9622 -0.0319
25 12 -29 14.7447 0.0404
25 12 -26 6.0148 0.2326
25 12 -23 8.2638 0.1340
25 12 -20 -7.5125 -0.0813
25 12 -17 1.1082 -0.0689
25 12 -14 5.3286 -0.0253
25 12 -11 11.3418 -0.1031
25 12 -8 -4.4436 -0.6127
25 12 -5 -3.1089 -0.2563
25 12 -2 -0.7341 0.2508
25 12 1 -5.9938 0.4495
25 12 4 10.3401 -0.2538
25 12 7 6.8826 -0.0633
25 12 10 11.6141 0.2893
25 12 13 6.5041 0.3217
25 12 16 4.3111 -0.3135
25 12 19 -0.9517 -0.2311
25 12 22 -4.8137 0.3836
25 12 25 3.4429 0.0589
25 12 28 17.5862 -0.1496
25 12 31 14.6776 0.1032
25 12 34 2.1839 0.1264
25 12 37 -11.2827 0.0656
25 13 -39 11.3475 0.0336
25 13 -36 7.6138 0.0932
25 13 -33 -8.6721 -0.0801
25 13 -30 5.3049 -0.0977
25 13 -27 -11.3356 0.1971
25 13 -24 2.2261 0.0964
25 13 -21 8.9205 -0.1467
25 13 -18 19.5526 -0.0626
25 13 -15 -4.4192 0.0197
25 13 -12 0.6560 0.0625
25 13 -9 13.2831 -0.1688
25 13 -6 5.9804 0.0464
25 13 -3 -2.5562 0.2319
25 13 0 -2.5348 0.0880
25 13 3 0.1135 0.0935
25 13 6 1.1243 -0.2147
25 13 9 0.4231 -0.0431
25 13 12 -2.9620 -0.1696
25 13 15 4.1184 -0.2271
25 13 18 -7.9518 0.0535
25 13 21 6.2541 -0.1240
25 13 24 0.0813 0.1719
25 13 27 -8.2657 -0.0551
25 13 30 2.5875 0.0661
25 13 33 -7.3527 0.1951
25 13 36 6.0764 -0.1280
25 13 39 -2.2778 0.1901
25 14 -37 -2.6951 0.0377
25 14 -34 -8.6314 -0.1633
25 14 -31 7.1508 -0.1020
25 14 -28 8.4938 -0.0365
25 14 -25 4.4117 -0.0323
25 14 -22 -12.8105 0.0742
25 14 -19 17.7948 0.0429
25 14 -16 -2.5757 0.2492
25 14 -13 -2.7453 0.0689
25 14 -10 -9.9175 -0.0090
25 14 -7 2.3342 0.0938
25 14 -4 1.7847 -0.2010
25 14 -1 9.1358 -0.3463
25 14 2 7.3591 0.1393
25 14 5 -8.3969 0.0798
25 14 8 1.7630 -0.1184
25 14 11 0.8284 -0.0915
25 14 14 25.6241 0.0430
25 14 17 7.6479 0.5370
25 14 20 8.9728 -0.2030
25 14 23 -4.0335 -0.0907
25 14 26 3.4732 0.1017
25 14 29 -4.7505 -0.3237
25 14 32 -4.9087 0.0913
25 14 35 5.9412 -0.0565
25 14 38 3.4856 0.0413
25 15 -38 -0.0441 0.1897
25 15 -35 0.7465 0.0475
25 15 -32 -8.7761 0.0429
25 15 -29 -3.3953 0.1416
25 15 -26 -2.0450 -0.1050
25 15 -23 5.4442 0.1275
25 15 -20 -18.8819 -0.1495
25 15 -17 -1.8841 -0.1469
25 15 -14 -6.2956 -0.2458
25 15 -11 -0.4201 -0.2195
25 15 -8 5.4428 0.2857
25 15 -5 5.1594 -0.0656
25 15 -2 -5.2170 -0.4045
25 15 1 -0.0997 0.0845
25 15 4 -3.0777 0.4527
25 15 7 -4.1316 0.3216
25 15 10 3.9767 -0.2535
25 15 13 2.1254 -0.0380
25 15 16 20.4597 0.2507
25 15 19 7.2188 0.0150
25 15 22 8.0879 -0.3714
25 15 25 0.8753 -0.1158
25 15 28 -8.7876 0.1183
25 15 31 -8.4072 0.0509
25 15 34 12.8637 0.0043
25 15 37 -5.1035 -0.1400
25 16 -36 -5.1053 0.0527
25 16 -33 -4.0162 -0.0056
25 16 -30 4.3908 -0.0818
25 16 -27 -11.8608 -0.0477
25 16 -24 8.5205 0.1524
25 16 -21 -1.4914 0.1513
25 16 -18 -0.4480 0.0035
25 16 -15 7.6904 -0.1241
25 16 -12 -4.7561 0.0879
25 16 -9 3.0610 -0.0414
25 16 -6 -3.5711 -0.3487
25 16 -3 6.1888 0.0544
25 16 0 -4.8697 0.2694
25 16 3 -9.0365 0.1190
25 16 6 -1.5360 0.1639
25 16 9 6.0064 -0.1126
25 16 12 -2.4832 0.0137
25 16 15 -3.1968 -0.1792
25 16 18 8.1606 -0.2249
25 16 21 -8.6124 -0.0351
25 16 24 -12.2342 -0.0384
25 16 27 -4.2627 0.3392
25 16 30 3.5653 0.0068
25 16 33 0.3710 -0.0125
25 16 36 6.5858 0.0052
25 17 -37 -7.1507 0.0106
25 17 -34 9.0172 0.0284
25 17 -31 -10.1212 -0.1360
25 17 -28 8.2463 0.0685
25 17 -25 16.9563 0.1768
25 17 -22 -2.1418 -0.0356
25 17 -19 2.3622 -0.0657
25 17 -16 7.6981 0.1150
25 17 -13 4.1955 0.0859
25 17 -10 8.5854 -0.0036
25 17 -7 2.1573 0.0337
25 17 -4 -2.9253 0.0565
25 17 -1 2.8565 0.2629
25 17 2 -9.1512 -0.1656
25 17 5 3.1877 -0.4473
25 17 8 2.7784 -0.0767
25 17 11 -13.7279 0.0904
25 17 14 6.6022 0.0501
25 17 17 -3.2037 0.0719
25 17 20 -11.1827 0.0928
25 17 23 -10.6425 0.2826
25 17 26 -2.1628 0.1130
25 17 29 3.8389 -0.2229
25 17 32 -0.5622 -0.1051
25 17 35 -11.8693 -0.0509
25 18 -35 -3.9401 0.2313
25 18 -32 9.6676 -0.2108
25 18 -29 -2.6106 -0.0284
25 18 -26 -2.1003 0.0230
25 18 -23 -4.3957 -0.2711
25 18 -20 -7.5546 -0.1354
25 18 -17 -8.4814 -0.1433
25 18 -14 7.1432 0.2666
25 18 -11 -6.6460 0.2501
25 18 -8 -17.4547 -0.1079
25 18 -5 -10.3333 0.1000
25 18 -2 -0.5054 0.1006
25 18 1 5.0990 -0.1335
25 18 4 8.9058 0.0261
25 18 7 4.8143 -0.0447
25 18 10 -10.3593 0.1949
25 18 13 -7.4197 0.0516
25 18 16 -2.5594 0.0676
25 18 19 -6.5765 0.0960
25 18 22 -8.9468 -0.0389
25 18 25 4.9770 -0.0226
25 18 28 7.2976 -0.1811
25 18 31 -8.4554 -0.0552
25 18 34 1.0267 0.1342
25 19 -33 8.5257 0.0177
25 19 -30 0.3743 -0.0548
25 19 -27 6.9436 0.2483
25 19 -24 11.9867 0.0895
25 19 -21 -4.3831 -0.0122
25 19 -18 -8.1113 0.0545
25 19 -15 -2.8463 -0.3735
25 19 -12 11.3693 -0.1197
25 19 -9 8.0145 -0.0292
25 19 -6 3.2580 -0.0380
25 19 -3 -8.0617 0.1937
25 19 0 12.6951 -0.2190
25 19 3 -12.8265 0.3168
25 19 6 -6.9866 0.2718
25 19 9 -4.5647 -0.1998
25 19 12 1.3094 0.0864
25 19 15 -1.8564 -0.1609
25 19 18 4.5225 0.0888
25 19 21 9.2109 -0.0443
25 19 24 -10.6659 -0.2498
25 19 27 -7.7948 0.1053
25 19 30 3.0151 0.0165
25 19 33 -3.3993 0.2859
25 20 -34 -0.0957 0.1046
25 20 -31 -3.4029 0.0722
25 20 -28 -9.9492 -0.0982
25 20 -25 -6.2843 0.0087
25 20 -22 1.3352 -0.0691
25 20 -19 -1.2429 0.1504
25 20 -16 -8.9093 0.0049
25 20 -13 3.3840 -0.2506
25 20 -10 5.0481 0.2369
25 20 -7 -7.0321 0.2442
25 20 -4 -4.3653 0.0740
25 20 -1 -5.9901 -0.3009
25 20 2 12.8193 -0.1277
25 20 5 10.9132 0.4498
25 20 8 -2.9257 -0.1751
25 20 11 -2.9751 -0.1066
25 20 14 -2.4576 0.0390
25 20 17 -3.1366 0.0182
25 20 20 -11.5586 0.1898
25 20 23 3.1567 -0.2805
25 20 26 -6.5481 0.2156
25 20 29 -8.7193 0.1983
25 20 32 4.3572 -0.1971
25 20 35 -3.8467 0.0204
25 21 -32 -17.8880 -0.0375
25 21 -29 -3.1591 -0.2429
25 21 -26 -9.6159 -0.1339
25 21 -23 0.8709 0.0453
25 21 -20 -0.7225 0.2291
25 21 -17 -3.7503 0.1460
25 21 -14 -1.5074 0.1472
25 21 -11 8.6493 -0.0418
25 21 -8 3.3545 0.1097
25 21 -5 -2.1860 0.0178
25 21 -2 -4.1373 -0.2918
25 21 1 9.7084 -0.2120
25 21 4 -2.8597 0.0025
25 21 7 1.8850 0.2609
25 21 10 -7.3913 0.0667
25 21 13 -8.0519 -0.0984
25 21 16 13.1688 0.0822
25 21 19 7.2632 0.0450
25 21 22 -1.7819 0.0194
25 21 25 -8.4727 0.0149
25 21 28 15.4878 -0.0391
25 21 31 4.1006 -0.1252
25 21 34 -6.7676 -0.0206
25 22 -33 -5.9594 0.0884
25 22 -30 3.0950 0.0143
25 22 -27 -4.6851 0.0439
25 22 -24 10.7546 -0.0217
25 22 -21 18.1231 -0.0121
25 22 -18 -2.6644 -0.1148
25 22 -15 5.2537 -0.2501
25 22 -12 -2.6617 0.2338
25 22 -9 0.7537 0.2438
25 22 -6 2.4994 0.0270
25 22 -3 22.6969 0.0091
25 22 0 7.2381 -0.1120
25 22 3 -0.6478 -0.0052
25 22 6 -3.4288 -0.2288
25 22 9 3.5336 -0.1431
25 22 12 -6.2214 0.2561
25 22 15 -8.6506 0.1514
25 22 18 -1.8981 0.0989
25 22 21 -12.6381 -0.0848
25 22 24 -2.5242 -0.0728
25 22 27 3.0128 -0.0247
25 22 30 9.6161 -0.1329
25 22 33 -0.5014 -0.0083
25 23 -31 0.1605 -0.0768
25 23 -28 -0.8671 -0.0249
25 23 -25 -16.9815 -0.0355
25 23 -22 -8.2487 -0.1693
25 23 -19 -2.1036 0.1213
25 23 -16 -5.0787 0.2274
25 23 -13 -12.4620 -0.1338
25 23 -10 0.0653 0.1415
25 23 -7 8.8427 -0.0302
25 23 -4 -3.1921 0.0617
25 23 -1 -0.6425 0.0512
25 23 2 3.8147 -0.2148
25 23 5 -0.1338 0.0968
25 23 8 3.1003 -0.0608
25 23 11 3.5997 -0.0290
25 23 14 -10.2274 0.0891
25 23 17 -11.7649 -0.1728
25 23 20 -7.2185 0.0592
25 23 23 3.7017 -0.1329
25 23 26 2.8473 -0.0129
25 23 29 -5.8766 0.1064
25 23 32 23.2517 -0.0741
25 24 -29 -10.0787 0.0121
25 24 -26 -3.9207 0.1714
25 24 -23 1.0220 -0.1156
25 24 -20 -4.4095 -0.0625
25 24 -17 20.5197 0.1880
25 24 -14 -2.7424 -0.0541
25 24 -11 -2.8444 -0.2150
25 24 -8 -5.1215 -0.0414
25 24 -5 10.8851 0.0980
25 24 -2 1.8098 0.1664
25 24 1 -6.9222 -0.0408
25 24 4 -1.0489 -0.0188
25 24 7 18.1774 0.0968
25 24 10 -14.6806 -0.1284
25 24 13 -1.5692 -0.0160
25 24 16 -2.9466 -0.2073
25 24 19 4.0009 -0.0180
25 24 22 2.2208 0.0654
25 24 25 5.5488 0.0156
25 24 28 6.3525 0.1750
25 24 31 0.1502 -0.0506
25 25 0 -14.1135 -0.0055
25 25 3 8.3749 -0.0592
25 25 6 -12.3254 0.1129
25 25 9 9.9133 -0.1518
25 25 12 -2.7316 0.0860
25 25 15 19.7836 0.1200
25 25 18 -7.4451 -0.0494
25 25 21 12.4611 0.1741
25 25 24 13.3848 -0.0080
25 25 27 -0.4709 -0.0633
25 25 30 -3.4250 -0.0080
26 0 -40 -11.0151 -0.3209
26 0 -34 -0.2381 0.6851
26 0 -28 -3.0843 0.0702
26 0 -22 -19.0144 1.6150
26 0 -16 6.2274 -5.6376
26 0 -10 3.9080 4.1117
26 0 -4 12.4205 -0.7791
26 0 2 17.9154 5.9700
26 0 8 3.3794 -8.7271
26 0 14 -11.3596 2.7600
26 0 20 4.3222 -0.7523
26 0 26 1.2590 1.9212
26 0 32 -8.8735 -0.8725
26 0 38 8.9845 -0.0413
26 1 -41 -9.8631 -0.1591
26 1 -38 1.5865 -0.2410
26 1 -35 -8.5465 0.4038
26 1 -32 -3.1478 -0.1032
26 1 -29 -4.8439 -0.5329
26 1 -26 -7.9252 -0.0039
26 1 -23 9.3704 0.5897
26 1 -20 -0.8319 0.9618
26 1 -17 3.0999 -1.1933
26 1 -14 -5.6235 -1.6081
26 1 -11 1.7931 1.9008
26 1 -8 -6.1022 0.5781
26 1 -5 -7.9393 -0.2471
26 1 -2 3.4596 0.2999
26 1 1 0.0485 -1.0824
26 1 4 -1.7780 1.4021
26 1 7 28.9165 -0.5497
26 1 10 0.9536 -1.6992
26 1 13 -6.6249 1.1805
26 1 16 -3.6437 -0.0750
26 1 19 -3.8828 0.8249
26 1 22 4.0279 0.1224
26 1 25 -9.0000 -0.1143
26 1 28 9.8978 0.4377
26 1 31 3.7834 -0.2395
26 1 34 33.4166 -0.0868
26 1 37 -4.9266 0.1391
26 1 40 1.3302 -0.0068
26 1 43 3.9864 -0.0527
26 2 -42 2.3238 -0.1900
26 2 -39 -8.6975 -0.0633
26 2 -36 -0.9110 0.2192
26 2 -33 11.7386 0.0127
26 2 -30 3.9420 0.1236
26 2 -27 -6.5507 -0.1552
26 2 -24 -6.7326 0.0731
26 2 -21 -3.2714 0.7784
26 2 -18 7.5026 0.1132
26 2 -15 1.5033 -0.4747
26 2 -12 -6.1250 -1.2708
26 2 -9 11.4262 0.2956
26 2 -6 12.6391 0.1814
26 2 -3 13.1066 -0.7391
26 2 0 -16.2008 -0.2565
26 2 3 7.4048 0.3501
26 2 6 -6.5541 2.2590
26 2 9 7.3082 -0.0286
26 2 12 -7.8873 -1.3542
26 2 15 0.7418 0.1165
26 2 18 -5.2239 -0.3258
26 2 21 4.6523 0.3825
26 2 24 9.2762 -0.6682
26 2 27 7.6721 -0.3572
26 2 30 -12.4933 0.6807
26 2 33 -12.3121 -0.1160
26 2 36 -2.2996 0.2260
26 2 39 2.6214 0.0803
26 2 42 3.8589 -0.1282
26 3 -40 29.0480 -0.1810
26 3 -37 14.2822 0.0782
26 3 -34 3.6202 0.0256
26 3 -31 3.2974 -0.0713
26 3 -28 -2.1224 0.3186
26 3 -25 1.2742 -0.3098
26 3 -22 4.7710 -0.2235
26 3 -19 -7.7915 0.3182
26 3 -16 -1.4403 -0.2153
26 3 -13 4.2855 0.0152
26 3 -10 -12.2264 -0.8389
26 3 -7 -0.0962 0.2407
26 3 -4 -5.5847 1.2501
26 3 -1 -15.7394 -1.0567
26 3 2 7.4197 0.5875
26 3 5 -8.9012 0.1348
26 3 8 -19.8284 0.1548
26 3 11 -19.8593 -0.0651
26 3 14 9.5805 -1.1065
26 3 17 5.7444 0.4032
26 3 20 11.6300 -0.3627
26 3 23 0.4837 -0.1290
26 3 26 -24.5975 0.2433
26 3 29 -4.7741 0.0507
26 3 32 2.3133 0.1847
26 3 35 -10.6780 -0.1123
26 3 38 6.9253 0.1014
26 3 41 8.7075 0.0090
26 4 -41 6.8527 0.0447
26 4 -38 8.2355 -0.1201
26 4 -35 5.0430 -0.0411
26 4 -32 0.2400 -0.0932
26 4 -29 -10.8983 0.0301
26 4 -26 1.9145 0.2722
26 4 -23 13.6977 0.0312
26 4 -20 -20.6193 0.0267
26 4 -17 -1.6410 -0.0966
26 4 -14 -3.5065 0.1904
26 4 -11 -6.6306 -0.4719
26 4 -8 4.6727 -0.7305
26 4 -5 -5.4160 0.3932
26 4 -2 9.8924 0.5654
26 4 1 -8.2106 0.6372
26 4 4 4.3010 -0.0088
26 4 7 -17.8416 0.1296
26 4 10 9.5524 0.4642
26 4 13 -7.9072 -0.6729
26 4 16 18.1390 -0.1052
26 4 19 -6.6626 -0.2690
26 4 22 0.6211 0.2185
26 4 25 -8.7197 0.3608
26 4 28 1.7407 -0.2391
26 4 31 0.5861 0.1336
26 4 34 2.7087 -0.1177
26 4 37 9.1699 -0.0277
26 4 40 0.5218 0.1537
26 5 -42 9.4556 0.1020
26 5 -39 1.3054 -0.1007
26 5 -36 10.2738 0.2297
26 5 -33 0.3553 0.2422
26 5 -30 1.2335 -0.1243
26 5 -27 -12.9572 -0.0696
26 5 -24 -13.0783 -0.0193
26 5 -21 7.7766 -0.0585
26 5 -18 8.4106 -0.9076
26 5 -15 5.7019 -0.1089
26 5 -12 -9.1007 0.9662
26 5 -9 -2.2239 -0.2359
26 5 -6 -5.3079 0.1176
26 5 -3 4.6306 0.5645
26 5 0 -9.7551 0.8217
26 5 3 -31.1014 -0.6850
26 5 6 -3.3284 -1.9309
26 5 9 14.2390 0.3194
26 5 12 13.1480 0.9323
26 5 15 0.9475 -0.2816
26 5 18 -6.8151 0.1518
26 5 21 -7.3606 0.2250
26 5 24 -3.8515 0.4474
26 5 27 0.1147 -0.3002
26 5 30 3.8680 -0.2387
26 5 33 -1.7629 -0.1614
26 5 36 -15.5993 -0.1198
26 5 39 -5.2074 0.2174
26 5 42 -6.9127 0.0403
26 6 -40 -16.7195 -0.2285
26 6 -37 3.2373 0.0161
26 6 -34 -0.4773 0.0296
26 6 -31 4.0596 -0.0076
26 6 -28 11.3721 -0.0589
26 6 -25 2.6773 -0.3202
26 6 -22 9.3693 0.3784
26 6 -19 -4.4358 0.2619
26 6 -16 -2.5099 -0.0049
26 6 -13 8.5351 0.4288
26 6 -10 -8.1588 0.0848
26 6 -7 -14.8959 -0.1676
26 6 -4 4.1220 -0.5659
26 6 -1 13.3114 -0.6247
26 6 2 -1.9180 -0.2284
26 6 5 7.1071 -0.1763
26 6 8 -4.9242 0.1853
26 6 11 8.8961 0.5775
26 6 14 -8.0493 0.7192
26 6 17 -11.6813 -0.0298
26 6 20 18.8176 -0.1960
26 6 23 -3.3599 0.0661
26 6 26 -2.8786 -0.1502
26 6 29 2.6247 -0.2501
26 6 32 -5.8516 -0.0547
26 6 35 12.6519 -0.0407
26 6 38 2.6391 0.0505
26 6 41 2.2251 -0.0710
26 7 -41 4.9039 -0.0188
26 7 -38 -10.4983 -0.0090
26 7 -35 3.6257 -0.1369
26 7 -32 5.6696 -0.0276
26 7 -29 -8.8691 0.1456
26 7 -26 6.0825 0.1589
26 7 -23 -4.7596 -0.0185
26 7 -20 0.4774 -0.2250
26 7 -17 -3.9093 0.0525
26 7 -14 -3.3800 -0.1061
26 7 -11 -4.2067 -0.3850
26 7 -8 15.1982 0.1018
26 7 -5 2.7068 0.4348
26 7 -2 -5.6156 0.4949
26 7 1 3.4694 0.0238
26 7 4 0.6085 0.1534
26 7 7 28.0533 0.5432
26 7 10 1.0193 -0.6618
26 7 13 -9.0261 -0.5415
26 7 16 -10.3709 0.2841
26 7 19 1.9595 0.1163
26 7 22 4.4282 -0.0815
26 7 25 13.5006 -0.0405
26 7 28 10.1795 0.1199
26 7 31 -10.4888 0.3294
26 7 34 0.7140 -0.0366
26 7 37 1.7483 -0.2667
26 7 40 1.4619 -0.1728
26 8 -39 15.1762 0.1462
26 8 -36 -11.8935 -0.0377
26 8 -33 9.1588 -0.0358
26 8 -30 -13.3450 0.0648
26 8 -27 -1.3020 -0.2132
26 8 -24 -11.5936 -0.4022
26 8 -21 -2.3281 0.0960
26 8 -18 -3.4460 0.2248
26 8 -15 -1.5686 -0.0528
26 8 -12 -7.5131 -0.2716
26 8 -9 -1.0722 0.4486
26 8 -6 1.7567 0.5692
26 8 -3 4.4778 -0.4861
26 8 0 -2.2035 -0.2570
26 8 3 -0.6246 -0.2013
26 8 6 -1.6406 0.2059
26 8 9 5.8526 -0.1306
26 8 12 -5.4468 -0.7002
26 8 15 -1.6594 0.4793
26 8 18 9.0950 0.3701
26 8 21 -0.4675 -0.0930
26 8 24 4.7498 0.1756
26 8 27 0.2560 -0.1292
26 8 30 8.6733 0.2493
26 8 33 2.4118 0.0331
26 8 36 12.7765 -0.2608
26 8 39 4.1890 -0.0236
26 9 -40 -0.9353 -0.0402
26 9 -37 -3.8585 0.0398
26 9 -34 1.6101 -0.0973
26 9 -31 3.9634 0.0314
26 9 -28 -14.8898 0.2789
26 9 -25 -10.8451 -0.0168
26 9 -22 15.9132 0.2585
26 9 -19 0.4189 0.4060
26 9 -16 -5.9275 -0.1679
26 9 -13 -6.3857 -0.3550
26 9 -10 5.4741 -0.5988
26 9 -7 8.3522 0.0345
26 9 -4 -1.1138 -0.1533
26 9 -1 -4.0049 -0.2712
26 9 2 2.2658 0.8774
26 9 5 -13.2606 0.3816
26 9 8 -7.0592 -0.0697
26 9 11 -14.3000 0.0461
26 9 14 4.7123 -0.1948
26 9 17 22.9882 0.1108
26 9 20 1.7800 -0.2824
26 9 23 -9.4819 -0.0581
26 9 26 8.6480 0.2911
26 9 29 -3.1407 -0.1273
26 9 32 1.1364 -0.0021
26 9 35 -9.5389 -0.0440
26 9 38 1.0098 0.1002
26 10 -38 6.5627 -0.0674
26 10 -35 -10.9007 0.1421
26 10 -32 6.1709 -0.1257
26 10 -29 14.4513 -0.0882
26 10 -26 -0.9374 0.0383
26 10 -23 -4.5131 0.0142
26 10 -20 -9.7970 0.1319
26 10 -17 -3.7325 -0.1336
26 10 -14 -3.5150 0.0913
26 10 -11 -2.2811 0.2300
26 10 -8 8.3108 0.0593
26 10 -5 5.3477 -0.1572
26 10 -2 -2.3677 -0.1601
26 10 1 1.3420 0.0403
26 10 4 9.3614 0.1490
26 10 7 0.7370 -0.2590
26 10 10 3.6988 0.1579
26 10 13 13.8686 0.2687
26 10 16 -1.3138 -0.1429
26 10 19 3.1314 -0.3702
26 10 22 3.3590 -0.3788
26 10 25 7.5147 0.3352
26 10 28 2.6497 -0.0715
26 10 31 0.4825 -0.1713
26 10 34 15.5668 0.1585
26 10 37 -8.5793 0.1998
26 10 40 -15.2580 0.2778
26 11 -39 20.6710 -0.0334
26 11 -36 -10.3448 0.0712
26 11 -33 0.8259 -0.0365
26 11 -30 -2.9061 -0.2908
26 11 -27 -22.3403 -0.1019
26 11 -24 7.5832 0.0599
26 11 -21 12.7892 0.1177
26 11 -18 6.9847 -0.0792
26 11 -15 -10.4043 0.3813
26 11 -12 7.9509 0.3898
26 11 -9 -1.1824 -0.4182
26 11 -6 9.5470 -0.2803
26 11 -3 -5.9347 -0.1055
26 11 0 1.3889 0.2179
26 11 3 4.5792 -0.2243
26 11 6 -3.4200 -0.3081
26 11 9 -2.0455 0.5775
26 11 12 3.3540 0.3421
26 11 15 -11.3728 -0.3539
26 11 18 -3.9959 -0.1437
26 11 21 9.4432 -0.0234
26 11 24 -12.9794 0.1831
26 11 27 -10.1474 -0.1660
26 11 30 -6.2863 -0.2307
26 11 33 3.6661 0.2955
26 11 36 9.4684 0.0780
26 11 39 8.9725 -0.0368
26 12 -37 -3.1496 0.0837
26 12 -34 3.4161 0.2491
26 12 -31 -8.4479 -0.0709
26 12 -28 15.2775 0.0547
26 12 -25 7.1402 0.1080
26 12 -22 -0.3180 -0.0286
26 12 -19 22.2341 -0.2900
26 12 -16 2.0252 -0.1949
26 12 -13 -14.9740 0.0041
26 12 -10 9.3018 -0.1930
26 12 -7 2.0800 0.2941
26 12 -4 -4.0789 0.4271
26 12 -1 20.7909 0.3121
26 12 2 6.7171 0.1195
26 12 5 7.0396 -0.0554
26 12 8 0.3218 -0.1224
26 12 11 -11.0966 -0.3054
26 12 14 13.2045 -0.2636
26 12 17 8.1186 0.0664
26 12 20 -7.6462 0.2821
26 12 23 -5.4905 -0.1340
26 12 26 -3.4682 -0.0057
26 12 29 -1.8865 0.0736
26 12 32 -5.4522 0.0469
26 12 35 -7.7107 -0.0769
26 12 38 -2.0791 -0.1831
26 13 -38 -6.5467 -0.1698
26 13 -35 0.7629 0.0856
26 13 -32 -2.2017 0.0023
26 13 -29 -4.4034 0.0118
26 13 -26 -11.5479 -0.0726
26 13 -23 -0.4233 -0.0181
26 13 -20 -0.5505 0.1207
26 13 -17 -8.0252 -0.0711
26 13 -14 5.4371 0.0750
26 13 -11 -6.1015 0.1243
26 13 -8 4.7896 0.2769
26 13 -5 -9.5515 -0.1065
26 13 -2 6.6015 -0.2443
26 13 1 -6.7882 0.0145
26 13 4 -0.5542 -0.0927
26 13 7 5.1982 -0.3631
26 13 10 -3.0769 -0.0448
26 13 13 2.6719 -0.0788
26 13 16 -5.4811 0.4804
26 13 19 7.6387 0.0796
26 13 22 6.3262 -0.2884
26 13 25 1.1144 0.0253
26 13 28 -3.4094 -0.1341
26 13 31 2.0116 -0.0679
26 13 34 9.5212 -0.0962
26 13 37 7.5404 -0.0382
26 14 -36 -10.6337 -0.2348
26 14 -33 -0.7795 0.0378
26 14 -30 0.1219 0.0869
26 14 -27 -7.0667 -0.0757
26 14 -24 9.5536 0.1412
26 14 -21 7.9156 0.1416
26 14 -18 -1.0008 0.0398
26 14 -15 7.1021 -0.0526
26 14 -12 6.3884 -0.3949
26 14 -9 -0.4461 0.1421
26 14 -6 -6.8355 -0.0356
26 14 -3 2.2410 -0.3212
26 14 0 4.0207 0.2439
26 14 3 2.9881 0.2723
26 14 6 -3.9629 0.1652
26 14 9 -4.5800 0.1752
26 14 12 2.9440 -0.0184
26 14 15 11.1083 0.2845
26 14 18 -11.2528 -0.0324
26 14 21 -5.6504 -0.2359
26 14 24 -5.5924 -0.0348
26 14 27 -0.6611 -0.0987
26 14 30 3.1032 -0.1323
26 14 33 11.0262 0.1460
26 14 36 2.8968 -0.0218
26 15 -37 -4.5218 -0.0035
26 15 -34 -1.8869 0.0304
26 15 -31 1.1185 0.0259
26 15 -28 -9.2014 -0.2387
26 15 -25 -16.4519 -0.1029
26 15 -22 -4.5907 0.1481
26 15 -19 -2.8201 0.0362
26 15 -16 -10.1726 -0.2240
26 15 -13 0.7707 -0.0302
26 15 -10 0.1888 0.3684
26 15 -7 -2.1668 0.0514
26 15 -4 -20.4340 -0.2604
26 15 -1 5.6359 0.0452
26 15 2 -12.1644 0.4525
26 15 5 9.3552 0.2025
26 15 8 -4.1067 -0.3162
26 15 11 -0.7144 -0.2193
26 15 14 3.7474 -0.1212
26 15 17 0.3229 -0.0798
26 15 20 2.9266 -0.0812
26 15 23 -3.3678 -0.1112
26 15 26 -11.1788 0.4396
26 15 29 -3.6069 0.1094
26 15 32 18.2003 -0.1742
26 15 35 -11.5299 0.0322
26 16 -35 2.1774 0.0803
26 16 -32 -11.7197 0.0089
26 16 -29 0.5200 -0.2340
26 16 -26 5.2977 0.0629
26 16 -23 -10.8613 0.1671
26 16 -20 -2.6118 0.1312
26 16 -17 12.2175 0.0334
26 16 -14 -2.5777 -0.1203
26 16 -11 2.2333 0.1243
26 16 -8 -11.2516 0.0282
26 16 -5 -6.2637 -0.1815
26 16 -2 -9.9196 -0.1076
26 16 1 -1.3265 -0.1442
26 16 4 2.3061 0.0621
26 16 7 0.3522 -0.1623
26 16 10 8.8959 0.0191
26 16 13 5.2639 0.0429
26 16 16 -10.0292 -0.1266
26 16 19 -3.6391 0.1734
26 16 22 0.6081 0.0840
26 16 25 -1.4511 0.1451
26 16 28 13.7268 0.0970
26 16 31 -10.2498 -0.3293
26 16 34 7.0036 0.0659
26 16 37 5.2284 -0.0041
26 17 -36 4.2305 0.1305
26 17 -33 6.7481 0.1298
26 17 -30 12.8209 -0.0033
26 17 -27 -10.9885 -0.1267
26 17 -24 10.8410 -0.1261
26 17 -21 -6.2285 -0.1383
26 17 -18 -6.2867 0.0288
26 17 -15 1.6779 0.1818
26 17 -12 4.0591 -0.0389
26 17 -9 -15.2077 0.1401
26 17 -6 -2.9109 0.2866
26 17 -3 -12.7498 0.0025
26 17 0 7.8128 -0.3311
26 17 3 7.5542 -0.4226
26 17 6 3.1926 0.0003
26 17 9 0.0066 0.1887
26 17 12 1.7817 0.0011
26 17 15 4.4583 0.1296
26 17 18 -6.5365 0.0887
26 17 21 0.8356 0.1699
26 17 24 -6.9707 -0.1653
26 17 27 -3.0245 -0.0793
26 17 30 2.3445 0.0083
26 17 33 -3.5077 -0.0819
26 17 36 -1.7153 0.2343
26 18 -34 -7.4688 -0.1872
26 18 -31 2.9663 0.0967
26 18 -28 2.7689 0.0853
26 18 -25 11.1794 -0.1342
26 18 -22 0.2448 -0.0544
26 18 -19 13.5342 -0.0982
26 18 -16 -0.6731 0.1850
26 18 -13 6.9016 0.1212
26 18 -10 -8.1519 -0.4644
26 18 -7 9.5444 0.1726
26 18 -4 -3.7660 0.4533
26 18 -1 -6.9407 -0.0172
26 18 2 -8.3440 -0.1271
26 18 5 0.9828 -0.1479
26 18 8 9.5682 0.2662
26 18 11 -0.2164 -0.0782
26 18 14 11.9146 -0.4187
26 18 17 -2.9009 -0.0016
26 18 20 6.6964 0.0808
26 18 23 -10.0140 -0.0424
26 18 26 -3.7158 -0.1516
26 18 29 19.2364 0.2060
26 18 32 -5.6918 0.2235
26 18 35 0.5753 -0.0244
26 19 -35 -1.1913 -0.0028
26 19 -32 0.8415 0.1018
26 19 -29 -5.2674 0.1202
26 19 -26 -6.6178 0.0208
26 19 -23 0.2334 0.0408
26 19 -20 7.8391 -0.0351
26 19 -17 -3.8081 -0.2135
26 19 -14 14.4013 -0.2243
26 19 -11 -7.7285 -0.0502
26 19 -8 3.4512 -0.0200
26 19 -5 -7.5139 0.1709
26 19 -2 3.5451 0.0247
26 19 1 -6.3554 0.0388
26 19 4 2.9214 -0.0310
26 19 7 -15.4670 -0.1741
26 19 10 -9.6772 -0.1162
26 19 13 -2.8821 -0.0419
26 19 16 23.3973 -0.0980
26 19 19 14.7592 0.2174
26 19 22 -5.0020 -0.1381
26 19 25 1.6714 -0.0221
26 19 28 -5.7468 0.2078
26 19 31 5.5525 0.0388
26 19 34 6.8713 -0.0836
26 20 -33 -6.8783 0.0050
26 20 -30 -9.9355 -0.0709
26 20 -27 8.2655 -0.2745
26 20 -24 -2.5240 0.0959
26 20 -21 -0.0006 0.1892
26 20 -18 -8.8446 0.2015
26 20 -15 9.8253 0.1084
26 20 -12 11.3701 -0.1068
26 20 -9 1.9758 0.0908
26 20 -6 1.1212 -0.3091
26 20 -3 16.8526 -0.3469
26 20 0 0.1364 0.1553
26 20 3 9.3548 -0.0021
26 20 6 -1.8533 0.0396
26 20 9 -8.8005 -0.1349
26 20 12 -0.8635 0.2016
26 20 15 0.7718 0.1055
26 20 18 -7.5414 -0.0534
26 20 21 -18.4482 0.0005
26 20 24 -15.2943 -0.0288
26 20 27 6.6100 0.1264
26 20 30 7.8648 -0.2329
26 20 33 -0.3943 -0.1735
26 21 -31 -0.4385 -0.0786
26 21 -28 -1.5036 -0.1117
26 21 -25 -1.9279 0.1198
26 21 -22 10.6410 0.1912
26 21 -19 -8.3367 -0.1607
26 21 -16 -17.6566 0.0420
26 21 -13 -8.0784 0.1080
26 21 -10 8.3429 -0.0146
26 21 -7 6.0593 -0.0525
26 21 -4 0.5391 -0.4156
26 21 -1 -1.2379 0.2044
26 21 2 10.9997 0.1770
26 21 5 -6.0457 -0.1842
26 21 8 -14.9615 0.1169
26 21 11 1.6023 -0.0670
26 21 14 9.8704 0.2553
26 21 17 -6.0811 -0.0918
26 21 20 -3.5105 -0.1348
26 21 23 14.9582 0.1306
26 21 26 8.0529 -0.2428
26 21 29 -21.6548 0.0322
26 21 32 -1.1804 -0.0705
26 22 -32 0.1133 0.0158
26 22 -29 -1.6827 -0.1108
26 22 -26 -15.6339 -0.0827
26 22 -23 13.4053 -0.0100
26 22 -20 6.7130 -0.2331
26 22 -17 -6.5164 -0.0268
26 22 -14 -12.7840 0.1110
26 22 -11 9.8937 0.1489
26 22 -8 -14.7166 -0.0878
26 22 -5 1.6259 -0.1750
26 22 -2 6.0606 0.0199
26 22 1 0.8629 0.0721
26 22 4 -10.8390 0.0306
26 22 7 12.4970 -0.0388
26 22 10 -15.7490 -0.0442
26 22 13 9.9832 0.1156
26 22 16 4.7980 -0.0032
26 22 19 -2.1015 -0.1334
26 22 22 6.7134 -0.0550
26 22 25 3.8014 -0.1214
26 22 28 3.3736 0.1184
26 22 31 -3.0479 0.0747
26 23 -30 9.0576 0.0075
26 23 -27 0.9379 0.0514
26 23 -24 -0.3314 0.1869
26 23 -21 5.1197 -0.0311
26 23 -18 9.9957 0.0967
26 23 -15 -9.8928 -0.0457
26 23 -12 0.2157 -0.2181
26 23 -9 -5.8595 -0.1096
26 23 -6 -3.9605 -0.0335
26 23 -3 -0.8164 0.1325
26 23 0 25.9752 -0.1322
26 23 3 1.9271 0.0408
26 23 6 -0.5303 0.2643
26 23 9 1.5731 -0.0915
26 23 12 -11.7394 -0.1783
26 23 15 1.6931 -0.1153
26 23 18 -11.6317 0.1445
26 23 21 4.5598 0.0993
26 23 24 -2.4558 -0.0266
26 23 27 2.9295 0.1118
26 23 30 -6.9688 0.1543
26 24 -28 -3.1329 -0.1000
26 24 -25 4.8021 -0.0421
26 24 -22 -11.2392 0.1067
26 24 -19 14.7490 -0.0149
26 24 -16 12.8065 -0.0074
26 24 -13 4.7832 -0.1793
26 24 -10 -8.6474 0.0108
26 24 -7 -14.3790 0.1852
26 24 -4 -7.4080 0.1457
26 24 -1 3.4251 -0.0756
26 24 2 12.3528 -0.1760
26 24 5 3.2024 0.2294
26 24 8 -0.0282 0.0832
26 24 11 -1.2590 -0.1690
26 24 14 -2.1856 -0.0686
26 24 17 0.2616 0.0813
26 24 20 -11.8195 0.2472
26 24 23 4.0409 0.0028
26 24 26 -6.5895 -0.1269
26 24 29 0.4112 0.1268
26 25 -29 -7.3141 0.1224
26 25 -26 -3.8894 -0.1553
26 25 -23 -6.5269 0.0865
26 25 -20 9.0929 0.0638
26 25 -17 2.9563 -0.0177
26 25 -14 9.9951 0.0801
26 25 -11 -7.5641 0.0046
26 25 -8 13.7650 -0.1020
26 25 -5 12.1632 -0.0011
26 25 -2 11.7986 0.0177
26 25 1 15.0331 -0.0497
26 25 4 1.7644 -0.0885
26 25 7 5.9439 0.0988
26 25 10 -18.0557 0.1286
26 25 13 -8.2311 0.0864
26 25 16 -2.2242 -0.1091
26 25 19 11.9279 -0.0775
26 25 22 3.5021 0.1287
26 25 25 -4.8223 -0.1381
26 25 28 9.4619 -0.1546
26 26 0 -19.5338 0.1530
26 26 3 -5.3376 0.0316
26 26 6 5.5294 -0.0821
26 26 9 22.3976 0.0443
26 26 12 1.9909 -0.1141
26 26 15 -5.3266 -0.0864
26 26 18 -2.4778 -0.0501
26 26 21 9.4362 -0.0055
26 26 24 -0.2590 0.0242
26 26 27 2.4900 -0.0099
27 0 -42 6.5102 0.2396
27 0 -36 3.6243 -0.3565
27 0 -30 0.3190 -0.0800
27 0 -24 11.3281 -1.4403
27 0 -18 2.8916 1.9171
27 0 -12 6.3034 2.6434
27 0 -6 5.8215 -0.2541
27 0 0 11.4814 -2.8272
27 0 6 8.0373 -4.5485
27 0 12 15.6903 5.7911
27 0 18 9.2675 0.5333
27 0 24 -13.0636 0.7493
27 0 30 -11.1838 -1.5391
27 0 36 -15.4838 0.1754
27 0 42 0.3770 0.0680
27 1 -40 -1.1959 -0.0019
27 1 -37 6.3164 -0.1463
27 1 -34 -8.3424 -0.2510
27 1 -31 -2.3382 0.0341
27 1 -28 11.2154 -0.1123
27 1 -25 4.3324 0.1108
27 1 -22 -2.1506 -0.6821
27 1 -19 3.5977 0.8494
27 1 -16 -6.0275 1.5925
27 1 -13 9.0892 -0.7049
27 1 -10 0.8852 -0.1346
27 1 -7 6.9148 -0.0440
27 1 -4 -16.2179 -0.0111
27 1 -1 -8.8900 -1.3135
27 1 2 4.2156 -1.7963
27 1 5 15.5633 2.5754
27 1 8 6.2518 0.6403
27 1 11 13.6954 0.0355
27 1 14 -1.4847 0.5035
27 1 17 -0.3851 -0.1142
27 1 20 0.0229 0.0552
27 1 23 3.8214 -0.6495
27 1 26 -4.1214 -0.0974
27 1 29 1.1998 -0.1201
27 1 32 -21.9703 -0.0333
27 1 35 6.6350 0.1164
27 1 38 -9.8001 0.1083
27 1 41 -1.6240 0.0822
27 2 -41 3.4054 0.1402
27 2 -38 8.9138 0.1218
27 2 -35 -12.7145 -0.0189
27 2 -32 -2.8949 0.2343
27 2 -29 -7.1555 -0.0568
27 2 -26 10.6654 -0.0339
27 2 -23 -3.5291 -0.1626
27 2 -20 -12.6859 -0.4008
27 2 -17 2.2906 0.2377
27 2 -14 4.0724 -0.4881
27 2 -11 -1.1739 -0.4240
27 2 -8 6.3010 0.5659
27 2 -5 -7.9280 0.1365
27 2 -2 11.0503 0.5519
27 2 1 -11.8319 0.0508
27 2 4 4.8567 -0.3244
27 2 7 9.0169 0.5567
27 2 10 -0.2079 -1.3888
27 2 13 -6.7573 -0.6023
27 2 16 -7.9517 0.3679
27 2 19 -3.2891 0.1609
27 2 22 -1.6797 -0.1386
27 2 25 -0.8775 -0.1756
27 2 28 -4.3656 0.3287
27 2 31 11.7024 0.0423
27 2 34 11.3728 -0.3328
27 2 37 -0.4590 -0.0705
27 2 40 -2.2273 -0.0136
27 3 -42 14.4465 0.1033
27 3 -39 1.6271 -0.1077
27 3 -36 19.6421 -0.1825
27 3 -33 -0.7940 0.1160
27 3 -30 0.1413 0.0899
27 3 -27 1.0431 0.0154
27 3 -24 -3.6713 -0.2436
27 3 -21 14.2350 0.4256
27 3 -18 -7.6253 0.2827
27 3 -15 0.4368 -0.3629
27 3 -12 5.5303 -0.1057
27 3 -9 -6.1227 -0.2025
27 3 -6 2.6083 0.5267
27 3 -3 -13.6546 -0.5504
27 3 0 9.4196 0.2077
27 3 3 -15.6917 0.7984
27 3 6 21.7525 -0.6556
27 3 9 -2.1541 0.2075
27 3 12 1.8374 -0.5231
27 3 15 -0.2580 0.4101
27 3 18 2.0279 0.3575
27 3 21 -14.9710 -0.3810
27 3 24 11.9514 0.7735
27 3 27 -4.5099 0.0482
27 3 30 -9.0710 -0.1682
27 3 33 4.7783 -0.0357
27 3 36 -4.4506 -0.3807
27 3 39 0.2105 -0.0197
27 3 42 -1.1834 0.0087
27 4 -40 -6.2869 0.0849
27 4 -37 -5.2955 -0.2293
27 4 -34 2.4444 0.0742
27 4 -31 5.1395 -0.0364
27 4 -28 0.1133 -0.0380
27 4 -25 11.5842 0.2012
27 4 -22 8.8085 -0.1621
27 4 -19 -1.6376 0.4085
27 4 -16 5.1736 0.2012
27 4 -13 -6.2363 -0.0696
27 4 -10 -18.3193 0.1837
27 4 -7 15.8326 -0.3630
27 4 -4 -1.1020 0.0664
27 4 -1 5.0194 0.5030
27 4 2 2.4284 -0.5988
27 4 5 5.0984 -0.1179
27 4 8 16.6097 0.1613
27 4 11 -0.0619 0.0361
27 4 14 2.9585 -0.0688
27 4 17 9.8648 0.1541
27 4 20 1.2675 0.2599
27 4 23 -6.9744 0.0755
27 4 26 -15.0831 -0.0741
27 4 29 8.7334 -0.1263
27 4 32 4.1402 0.1773
27 4 35 12.5012 -0.1420
27 4 38 9.1613 -0.0654
27 4 41 -3.6604 -0.0547
27 5 -41 1.4178 0.0931
27 5 -38 13.2728 0.1331
27 5 -35 -8.9443 0.0423
27 5 -32 -3.4207 -0.1072
27 5 -29 -10.2356 -0.2149
27 5 -26 9.1286 -0.3792
27 5 -23 -17.5702 -0.2596
27 5 -20 -7.9875 0.2589
27 5 -17 3.2916 0.6093
27 5 -14 -6.7619 0.6596
27 5 -11 -1.1429 0.2480
27 5 -8 -1.0816 -0.2971
27 5 -5 12.5702 -0.3296
27 5 -2 6.2120 -0.5754
27 5 1 16.9177 -1.1182
27 5 4 -0.2317 -0.4772
27 5 7 35.4674 0.6092
27 5 10 0.7058 1.3310
27 5 13 0.7049 -0.0700
27 5 16 1.6664 -0.2926
27 5 19 4.2309 0.2321
27 5 22 6.3458 -0.3810
27 5 25 19.5933 -0.1325
27 5 28 1.3504 -0.2019
27 5 31 -8.9391 0.0212
27 5 34 -5.8411 0.2489
27 5 37 -11.4789 0.0098
27 5 40 18.2719 0.0162
27 6 -39 -1.4848 0.0488
27 6 -36 -3.7610 0.1119
27 6 -33 -10.6463 0.0890
27 6 -30 -6.2077 0.0856
27 6 -27 -10.9735 0.2553
27 6 -24 4.7008 0.0456
27 6 -21 18.3464 -0.2783
27 6 -18 3.5820 0.2313
27 6 -15 -2.1917 -0.0477
27 6 -12 -2.2818 -0.1224
27 6 -9 -8.7581 -0.0939
27 6 -6 1.1820 -0.6538
27 6 -3 3.1555 0.2737
27 6 0 -24.5681 -0.0069
27 6 3 4.6824 0.3550
27 6 6 4.9392 0.4348
27 6 9 -0.5162 -0.3335
27 6 12 -17.2061 0.4250
27 6 15 -6.7952 -0.4318
27 6 18 6.9909 -0.4479
27 6 21 7.3940 0.0932
27 6 24 -14.5164 -0.1730
27 6 27 3.4100 0.3009
27 6 30 6.1698 -0.0576
27 6 33 -0.6790 0.2826
27 6 36 9.2840 0.1261
27 6 39 -1.7869 -0.1431
27 7 -40 -5.0184 -0.0185
27 7 -37 8.9740 -0.1169
27 7 -34 19.5540 0.1269
27 7 -31 -4.1876 -0.0056
27 7 -28 -18.2683 0.0839
27 7 -25 0.3257 0.1413
27 7 -22 13.1719 -0.4903
27 7 -19 -7.3172 0.0466
27 7 -16 15.1880 0.0609
27 7 -13 2.2643 -0.1461
27 7 -10 -2.9209 0.4060
27 7 -7 -19.4566 0.2116
27 7 -4 -14.0910 0.1651
27 7 -1 1.8889 -0.3071
27 7 2 -9.5276 -0.0027
27 7 5 -4.5453 0.2620
27 7 8 2.1788 -0.9456
27 7 11 -4.1105 -0.3594
27 7 14 -4.2989 0.5233
27 7 17 11.8372 0.3142
27 7 20 0.6010 -0.0977
27 7 23 -11.2002 -0.3399
27 7 26 -0.1695 0.3543
27 7 29 -8.6744 0.1214
27 7 32 2.8712 -0.0324
27 7 35 -15.1604 -0.0373
27 7 38 -6.2453 -0.0739
27 8 -38 -17.2737 -0.1708
27 8 -35 2.8582 0.0032
27 8 -32 11.0800 -0.0454
27 8 -29 -4.3193 -0.1932
27 8 -26 0.4620 0.1717
27 8 -23 5.5554 0.3377
27 8 -20 11.8080 0.2400
27 8 -17 -1.6736 -0.1142
27 8 -14 13.0449 -0.2410
27 8 -11 1.7365 0.0897
27 8 -8 22.3730 -0.3193
27 8 -5 -3.1291 -0.4816
27 8 -2 4.9193 -0.4408
27 8 1 -5.2262 0.5418
27 8 4 3.0585 0.7341
27 8 7 -14.1138 -0.3236
27 8 10 12.3182 -0.2621
27 8 13 -5.2523 0.3361
27 8 16 17.9224 0.3874
27 8 19 0.8513 -0.2216
27 8 22 -2.4348 -0.3825
27 8 25 -4.0823 -0.0523
27 8 28 -5.8933 0.0778
27 8 31 -14.5836 -0.2044
27 8 34 0.0605 -0.0331
27 8 37 10.0607 0.0552
27 8 40 -6.0840 0.2017
27 9 -39 -1.6614 -0.0815
27 9 -36 -8.7426 0.0534
27 9 -33 -5.8895 0.2513
27 9 -30 -5.6667 -0.0752
27 9 -27 -14.2594 -0.2182
27 9 -24 10.4812 0.0442
27 9 -21 8.1867 0.2110
27 9 -18 2.9916 -0.3156
27 9 -15 -4.1855 -0.4753
27 9 -12 5.7574 0.4240
27 9 -9 18.0697 0.0900
27 9 -6 -2.0766 0.0522
27 9 -3 -22.3356 -0.0626
27 9 0 -6.0767 -0.1200
27 9 3 3.6429 0.7375
27 9 6 -3.2597 -0.4363
27 9 9 -5.8329 -0.1746
27 9 12 1.5483 0.0707
27 9 15 11.1412 -0.2813
27 9 18 -14.5560 0.3297
27 9 21 -2.5129 -0.2724
27 9 24 2.4248 -0.1278
27 9 27 -2.4576 0.2133
27 9 30 -8.6729 -0.3957
27 9 33 -0.4280 -0.0148
27 9 36 -2.8675 0.0699
27 9 39 10.5911 0.0687
27 10 -37 -7.8236 -0.1028
27 10 -34 -3.2285 0.1169
27 10 -31 -14.2043 0.0935
27 10 -28 4.9343 -0.3109
27 10 -25 1.6117 -0.1100
27 10 -22 1.7836 0.1904
27 10 -19 -11.1269 0.2564
27 10 -16 -10.6796 -0.1727
27 10 -13 -14.0684 0.1312
27 10 -10 9.6059 0.3338
27 10 -7 -18.4590 -0.3455
27 10 -4 3.2773 -0.3765
27 10 -1 2.1398 -0.4745
27 10 2 -0.6185 0.0041
27 10 5 3.8399 0.4364
27 10 8 -2.5132 0.0697
27 10 11 -5.6049 0.2302
27 10 14 -0.7860 -0.2133
27 10 17 -7.4678 -0.1690
27 10 20 1.4975 0.2355
27 10 23 -4.0736 -0.0738
27 10 26 2.8158 0.0939
27 10 29 -1.1116 -0.1043
27 10 32 5.8826 -0.0460
27 10 35 -14.1303 0.2151
27 10 38 2.4701 -0.1729
27 11 -38 -6.1345 0.0310
27 11 -35 -0.2137 -0.0736
27 11 -32 -3.8813 0.2141
27 11 -29 -5.7688 0.1804
27 11 -26 2.7991 -0.1360
27 11 -23 1.9677 -0.0190
27 11 -20 2.0223 -0.0315
27 11 -17 -6.3185 0.0205
27 11 -14 -0.5205 0.0269
27 11 -11 6.9386 -0.5609
27 11 -8 3.7237 0.2029
27 11 -5 -6.7208 0.7942
27 11 -2 -1.2476 0.1629
27 11 1 9.1223 -0.3111
27 11 4 -9.2422 -0.0823
27 11 7 3.0825 0.5427
27 11 10 -4.4795 -0.1309
27 11 13 -7.1461 -0.7003
27 11 16 1.7634 -0.0796
27 11 19 -1.7136 0.6577
27 11 22 2.2784 0.2669
27 11 25 -1.6719 -0.3269
27 11 28 1.5827 0.1636
27 11 31 13.1436 0.0893
27 11 34 -1.8174 0.0122
27 11 37 -3.0919 -0.3305
27 12 -36 -0.3457 0.0404
27 12 -33 -6.6668 -0.1207
27 12 -30 9.7248 0.2127
27 12 -27 -6.0058 0.0969
27 12 -24 -9.4719 -0.4763
27 12 -21 0.2606 -0.1837
27 12 -18 2.5843 0.0705
27 12 -15 13.6692 0.0440
27 12 -12 1.1000 0.0740
27 12 -9 -7.0243 0.1106
27 12 -6 13.2477 0.3863
27 12 -3 1.9293 0.1105
27 12 0 4.5923 -0.3837
27 12 3 -13.1427 -0.2768
27 12 6 2.6980 -0.0712
27 12 9 3.0989 -0.2316
27 12 12 -4.4553 -0.0896
27 12 15 12.6030 0.2394
27 12 18 12.8187 0.2894
27 12 21 -2.8833 0.0810
27 12 24 9.8385 -0.1927
27 12 27 -6.8557 0.3134
27 12 30 -0.2135 0.0581
27 12 33 3.2276 -0.2730
27 12 36 0.5523 -0.0297
27 13 -37 11.7778 0.0146
27 13 -34 -3.4814 -0.1078
27 13 -31 8.2326 0.0758
27 13 -28 4.3316 0.2244
27 13 -25 -2.2879 -0.0105
27 13 -22 12.9759 -0.1668
27 13 -19 0.1268 0.1581
27 13 -16 1.0466 0.0928
27 13 -13 0.2519 -0.2290
27 13 -10 0.6156 -0.2224
27 13 -7 -3.2539 -0.1113
27 13 -4 9.1396 -0.0725
27 13 -1 6.8418 -0.0826
27 13 2 -1.7881 -0.1163
27 13 5 7.6820 0.1429
27 13 8 3.8155 0.0750
27 13 11 8.2031 0.2195
27 13 14 7.2075 0.2564
27 13 17 -6.3507 -0.2640
27 13 20 5.5309 -0.2093
27 13 23 -10.6731 -0.0413
27 13 26 -2.2189 0.0813
27 13 29 -13.9749 0.1778
27 13 32 -0.7471 -0.0682
27 13 35 -3.9200 0.1729
27 13 38 11.3290 0.0286
27 14 -35 2.5395 -0.0265
27 14 -32 6.7246 0.1510
27 14 -29 -1.6919 -0.0328
27 14 -26 -15.3074 0.0089
27 14 -23 8.0353 -0.1276
27 14 -20 4.8434 0.0033
27 14 -17 0.7223 0.0761
27 14 -14 -11.2460 -0.2751
27 14 -11 0.6889 0.0811
27 14 -8 0.0082 0.2552
27 14 -5 -0.1940 0.2565
27 14 -2 9.3355 0.0895
27 14 1 -3.8974 -0.1462
27 14 4 -2.8421 0.3549
27 14 7 5.0974 -0.0095
27 14 10 -2.1650 -0.3952
27 14 13 1.6869 -0.0071
27 14 16 -0.1452 -0.1767
27 14 19 0.5345 -0.0035
27 14 22 -0.6932 0.0718
27 14 25 2.1330 -0.0503
27 14 28 -9.6449 0.3077
27 14 31 2.8366 0.0544
27 14 34 12.9649 0.0121
27 14 37 -3.3329 0.1357
27 15 -36 -12.0712 0.0170
27 15 -33 7.2187 -0.0728
27 15 -30 9.1221 -0.1616
27 15 -27 -0.5558 -0.0396
27 15 -24 3.9412 0.0599
27 15 -21 -6.8542 0.0483
27 15 -18 -0.8250 -0.0309
27 15 -15 3.8838 0.1214
27 15 -12 -8.7103 0.2919
27 15 -9 -1.3300 -0.2058
27 15 -6 -2.3925 -0.1129
27 15 -3 -1.9357 0.0371
27 15 0 6.8117 -0.2008
27 15 3 -5.3338 0.0367
27 15 6 -0.6227 -0.1131
27 15 9 -0.3934 -0.1845
27 15 12 -3.8023 0.1559
27 15 15 -15.3734 -0.0749
27 15 18 -0.9120 0.1098
27 15 21 4.4456 0.0860
27 15 24 4.0709 0.0358
27 15 27 0.5675 -0.0025
27 15 30 -6.4776 -0.1134
27 15 33 3.2963 -0.1347
27 15 36 5.7859 0.1061
27 16 -34 3.5940 0.1706
27 16 -31 -5.2569 -0.0781
27 16 -28 -2.5017 0.0371
27 16 -25 14.2872 0.0326
27 16 -22 2.3841 -0.0835
27 16 -19 -1.4822 -0.0277
27 16 -16 -0.4721 -0.1327
27 16 -13 -4.1296 0.1066
27 16 -10 3.1829 -0.0553
27 16 -7 -5.1874 -0.2504
27 16 -4 1.7200 0.1944
27 16 -1 2.0122 -0.1659
27 16 2 8.5761 -0.3195
27 16 5 -1.8126 0.3232
27 16 8 -6.2651 0.1850
27 16 11 -11.1238 0.2878
27 16 14 -4.0724 -0.0178
27 16 17 -7.0465 -0.0866
27 16 20 6.4732 0.2134
27 16 23 0.9783 -0.2668
27 16 26 -2.0617 -0.3128
27 16 29 5.0754 -0.0285
27 16 32 -3.0305 -0.0023
27 16 35 -14.7700 0.2031
27 17 -35 -2.0486 -0.0446
27 17 -32 -0.1662 0.0088
27 17 -29 15.5446 0.1275
27 17 -26 -4.6357 -0.1914
27 17 -23 2.2645 -0.0735
27 17 -20 -4.4035 0.0550
27 17 -17 -3.6998 0.2950
27 17 -14 -2.0720 0.1914
27 17 -11 5.8943 -0.1950
27 17 -8 4.8878 0.0367
27 17 -5 1.6481 0.1632
27 17 -2 5.2846 0.0256
27 17 1 3.6720 -0.3189
27 17 4 3.5485 -0.1623
27 17 7 0.7834 0.4348
27 17 10 -6.5201 0.0778
27 17 13 -7.6056 -0.1334
27 17 16 -10.6186 -0.1427
27 17 19 -1.1997 -0.0109
27 17 22 0.8855 0.1315
27 17 25 -2.1607 -0.2928
27 17 28 -3.4514 0.0371
27 17 31 3.7904 0.2133
27 17 34 -8.5172 0.0238
27 18 -33 -5.4464 -0.0808
27 18 -30 -8.8312 0.2403
27 18 -27 2.2056 -0.0167
27 18 -24 -7.8277 -0.1692
27 18 -21 -2.4825 0.1596
27 18 -18 -8.5313 0.0187
27 18 -15 -2.8861 0.0290
27 18 -12 11.6419 -0.1556
27 18 -9 0.0754 0.0019
27 18 -6 10.2204 0.4008
27 18 -3 5.5870 -0.0803
27 18 0 -0.8665 0.0095
27 18 3 11.0895 0.1066
27 18 6 -7.6354 -0.0691
27 18 9 -2.1929 -0.1334
27 18 12 11.7391 -0.3408
27 18 15 -4.4794 0.0506
27 18 18 -4.0737 0.0355
27 18 21 8.8890 0.0855
27 18 24 -5.2515 0.0783
27 18 27 -13.0858 0.0330
27 18 30 -6.5457 0.2850
27 18 33 -3.8215 -0.3268
27 19 -34 0.7440 0.1639
27 19 -31 -2.8014 0.0121
27 19 -28 -13.4900 -0.0086
27 19 -25 -4.9222 -0.2094
27 19 -22 24.0052 -0.0347
27 19 -19 -9.1694 0.1119
27 19 -16 -6.6155 -0.1178
27 19 -13 4.3765 0.0646
27 19 -10 -6.8578 0.1952
27 19 -7 -0.1681 -0.0148
27 19 -4 -18.7723 -0.2044
27 19 -1 12.7854 -0.1134
27 19 2 1.1684 0.2102
27 19 5 8.9478 0.0047
27 19 8 -3.6467 -0.1560
27 19 11 -9.8728 0.0854
27 19 14 4.5438 0.1872
27 19 17 -11.0255 0.0516
27 19 20 0.4079 -0.1742
27 19 23 -8.3026 0.0941
27 19 26 -9.1941 0.0400
27 19 29 -2.3806 -0.0693
27 19 32 -7.5197 -0.1430
27 20 -32 4.9267 0.0502
27 20 -29 0.0416 -0.0331
27 20 -26 -16.5903 0.0555
27 20 -23 5.7730 0.1799
27 20 -20 -3.8238 0.0766
27 20 -17 3.7222 -0.0922
27 20 -14 1.3748 -0.1317
27 20 -11 -0.7462 0.0761
27 20 -8 3.2353 0.0321
27 20 -5 2.4244 -0.1401
27 20 -2 7.8756 0.0643
27 20 1 5.2337 0.1260
27 20 4 5.2432 0.0996
27 20 7 4.8725 0.0583
27 20 10 1.8011 -0.0409
27 20 13 6.7993 0.1446
27 20 16 2.8627 0.0410
27 20 19 18.7015 -0.1679
27 20 22 0.8664 0.0612
27 20 25 -13.6124 0.0062
27 20 28 10.1255 -0.1313
27 20 31 5.4358 0.0273
27 21 -30 2.3440 0.1071
27 21 -27 -1.2282 -0.0155
27 21 -24 -3.8867 -0.1465
27 21 -21 19.9735 0.0715
27 21 -18 6.5176 -0.0227
27 21 -15 9.4079 0.0240
27 21 -12 2.5950 -0.0878
27 21 -9 9.1108 0.0243
27 21 -6 15.9746 0.1049
27 21 -3 6.7531 0.1182
27 21 0 5.2269 0.0847
27 21 3 -8.3504 -0.2017
27 21 6 -13.4669 0.2593
27 21 9 -0.8553 0.1985
27 21 12 19.2894 -0.2223
27 21 15 4.0911 -0.0007
27 21 18 6.4345 -0.2786
27 21 21 0.6836 0.1763
27 21 24 -14.9251 -0.0898
27 21 27 10.5264 -0.2419
27 21 30 -2.4810 0.2807
27 22 -31 2.5879 -0.0881
27 22 -28 -0.9639 0.1591
27 22 -25 5.7009 -0.1636
27 22 -22 5.9734 -0.1474
27 22 -19 0.3570 0.2718
27 22 -16 -2.6005 0.1440
27 22 -13 -3.4178 0.0311
27 22 -10 -9.8378 -0.2297
27 22 -7 10.2860 -0.0337
27 22 -4 -5.2404 0.2345
27 22 -1 0.8237 -0.0995
27 22 2 4.7261 -0.1188
27 22 5 -4.3548 -0.0636
27 22 8 -0.4674 0.1470
27 22 11 15.6467 0.0092
27 22 14 -2.2660 -0.1216
27 22 17 -3.4597 0.0045
27 22 20 -6.4601 -0.0123
27 22 23 3.4400 0.1308
27 22 26 10.8975 -0.0243
27 22 29 1.9528 -0.0184
27 23 -29 -1.4185 0.1385
27 23 -26 5.9390 0.0475
27 23 -23 -0.7084 -0.1123
27 23 -20 2.1218 0.0359
27 23 -17 5.9988 -0.0636
27 23 -14 3.6808 -0.0794
27 23 -11 3.8386 0.0381
27 23 -8 9.0223 0.1487
27 23 -5 -0.0764 0.1729
27 23 -2 17.3430 -0.0109
27 23 1 -4.4348 -0.0350
27 23 4 12.6666 -0.1551
27 23 7 2.3571 -0.1098
27 23 10 -3.3937 0.0693
27 23 13 6.7302 -0.0701
27 23 16 1.8962 0.1936
27 23 19 1.0098 0.0648
27 23 22 3.9089 0.1142
27 23 25 9.7230 0.1656
27 23 28 -9.3965 -0.2015
27 24 -27 -2.0932 -0.0357
27 24 -24 0.3175 -0.1658
27 24 -21 4.9141 0.1046
27 24 -18 5.0019 0.0049
27 24 -15 -13.8223 0.0057
27 24 -12 1.6431 0.0350
27 24 -9 -9.9855 0.0908
27 24 -6 -18.2327 0.0779
27 24 -3 -13.9798 -0.1352
27 24 0 -19.6669 0.0088
27 24 3 2.6710 0.0500
27 24 6 2.6621 -0.1894
27 24 9 -14.4746 0.0551
27 24 12 3.1282 0.0018
27 24 15 -21.1515 0.0355
27 24 18 11.3625 -0.0326
27 24 21 6.0061 -0.1480
27 24 24 14.0924 0.0021
27 24 27 -5.2757 -0.0244
27 25 -28 10.2980 0.0626
27 25 -25 6.6679 0.1356
27 25 -22 -1.4672 -0.0285
27 25 -19 13.5530 -0.1406
27 25 -16 0.6071 -0.0720
27 25 -13 -10.3774 -0.0192
27 25 -10 -4.6566 -0.1066
27 25 -7 -13.6826 0.0217
27 25 -4 3.0900 0.0256
27 25 -1 5.1113 0.2530
27 25 2 1.6563 0.1124
27 25 5 12.1057 -0.2079
27 25 8 -15.4037 0.0077
27 25 11 4.1153 -0.1131
27 25 14 -9.3982 -0.1109
27 25 17 12.2894 -0.0680
27 25 20 11.2468 -0.1602
27 25 23 -3.5028 0.1498
27 25 26 -4.2785 0.0258
27 26 -26 3.8135 0.0594
27 26 -23 8.1155 -0.0106
27 26 -20 -5.3742 -0.0823
27 26 -17 0.4140 -0.0460
27 26 -14 5.6063 0.1466
27 26 -11 -8.1800 0.0235
27 26 -8 -1.0278 -0.0003
27 26 -5 8.7991 0.0004
27 26 -2 -8.6540 0.0513
27 26 1 0.6701 0.1165
27 26 4 -0.4458 -0.0884
27 26 7 -1.0870 -0.0255
27 26 10 -5.7895 -0.0152
27 26 13 -6.1409 -0.2085
27 26 16 16.8976 0.1640
27 26 19 13.2454 0.0448
27 26 22 14.5679 0.0251
27 26 25 -11.1222 0.1500
27 27 0 -21.7335 0.1484
27 27 3 -9.8128 0.0628
27 27 6 -7.6682 -0.1329
27 27 9 10.3724 0.1117
27 27 12 -14.9117 0.0449
27 27 15 -7.2424 0.0348
27 27 18 4.8887 -0.0176
27 27 21 5.1824 -0.1724
27 27 24 -4.9296 0.1033
28 0 -38 4.4212 0.4964
28 0 -32 2.0781 -0.5752
28 0 -26 1.3865 0.2286
28 0 -20 10.3482 -2.4464
28 0 -14 -3.6679 5.7772
28 0 -8 -4.5262 -2.6779
28 0 -2 -5.5164 -0.4231
28 0 4 -15.6420 -4.5641
28 0 10 8.5381 6.9949
28 0 16 5.0019 -0.7843
28 0 22 14.8604 0.0293
28 0 28 11.4543 -1.8586
28 0 34 2.2026 0.7005
28 0 40 -4.0174 0.0755
28 1 -42 -6.2309 -0.2093
28 1 -39 2.2915 0.2029
28 1 -36 -9.5236 -0.0596
28 1 -33 -2.3625 -0.2130
28 1 -30 1.7602 0.2505
28 1 -27 3.6579 0.5187
28 1 -24 -8.0503 0.7103
28 1 -21 -2.3677 -1.0076
28 1 -18 2.8555 -1.0515
28 1 -15 -5.4793 0.2377
28 1 -12 25.8818 -0.2871
28 1 -9 8.0648 -0.0723
28 1 -6 -5.2305 -0.2299
28 1 -3 6.9898 1.1814
28 1 0 8.5808 1.4530
28 1 3 17.8298 0.5113
28 1 6 -3.2802 -0.2244
28 1 9 4.8241 -2.0588
28 1 12 -6.6125 -0.4034
28 1 15 3.7237 -0.1460
28 1 18 -6.0967 -0.3131
28 1 21 -6.3148 0.0540
28 1 24 1.6591 0.2171
28 1 27 -2.9831 0.8044
28 1 30 1.4215 0.0277
28 1 33 4.1391 0.0397
28 1 36 -0.7580 -0.0891
28 1 39 -3.4769 -0.1857
28 1 42 -3.5840 -0.0489
28 2 -40 17.9701 0.1863
28 2 -37 10.2289 0.0049
28 2 -34 3.1829 -0.1399
28 2 -31 3.7257 0.0739
28 2 -28 3.5267 -0.2471
28 2 -25 16.4984 -0.1650
28 2 -22 2.9454 0.0512
28 2 -19 -6.7739 -0.6887
28 2 -16 -12.2771 0.2222
28 2 -13 0.1768 -0.0212
28 2 -10 11.7769 0.7044
28 2 -7 -3.3025 1.0291
28 2 -4 5.8902 -0.4842
28 2 -1 8.5604 0.2977
28 2 2 6.7046 -0.9115
28 2 5 -6.1194 -0.6634
28 2 8 5.2532 -0.1574
28 2 11 10.4112 -1.2522
28 2 14 -0.7353 0.8992
28 2 17 -10.5649 0.5794
28 2 20 6.0108 0.0558
28 2 23 6.6987 -0.1002
28 2 26 -9.9737 0.0769
28 2 29 5.1369 0.2582
28 2 32 16.2296 -0.2074
28 2 35 -15.6374 -0.0206
28 2 38 3.4393 -0.0464
28 2 41 -1.6113 0.0576
28 3 -41 -4.1382 -0.1103
28 3 -38 4.1368 -0.0297
28 3 -35 -1.2088 0.0751
28 3 -32 -9.2262 0.0776
28 3 -29 7.0965 0.0970
28 3 -26 -13.5741 -0.0977
28 3 -23 7.2944 0.1148
28 3 -20 -6.1061 -0.0156
28 3 -17 5.2248 -0.0609
28 3 -14 -8.2780 -0.1305
28 3 -11 -6.6405 -0.3620
28 3 -8 3.5658 0.4621
28 3 -5 -4.9014 -0.0796
28 3 -2 0.7168 -0.1060
28 3 1 -0.4288 0.4833
28 3 4 11.4814 -0.4002
28 3 7 -9.2036 0.4126
28 3 10 6.7376 -0.0203
28 3 13 -1.0520 -0.0901
28 3 16 10.8583 0.2388
28 3 19 -0.0285 -0.0782
28 3 22 3.0972 0.2995
28 3 25 6.1937 -0.1497
28 3 28 10.6652 -0.1532
28 3 31 8.2142 0.1803
28 3 34 11.0893 0.1268
28 3 37 7.9302 -0.0046
28 3 40 3.9672 0.0980
28 4 -39 7.3374 -0.1187
28 4 -36 4.4421 -0.0435
28 4 -33 -16.9344 0.0114
28 4 -30 7.1059 0.1718
28 4 -27 5.2835 -0.1453
28 4 -24 3.2444 -0.0826
28 4 -21 7.3092 -0.2162
28 4 -18 0.6822 0.4091
28 4 -15 1.7926 0.3688
28 4 -12 -18.8219 -0.6852
28 4 -9 -3.5655 0.2396
28 4 -6 -6.9123 0.3021
28 4 -3 2.4128 0.1820
28 4 0 -6.4030 -0.7895
28 4 3 10.5683 -0.5762
28 4 6 -7.5657 1.0938
28 4 9 -30.7363 0.4325
28 4 12 11.6561 -0.3677
28 4 15 5.0916 -0.1148
28 4 18 -4.3161 -0.0407
28 4 21 -9.4606 -0.0192
28 4 24 1.7866 -0.5298
28 4 27 -0.1072 -0.1599
28 4 30 -3.7208 0.0520
28 4 33 -8.7475 0.1746
28 4 36 5.1908 0.1389
28 4 39 -4.2153 0.0523
28 5 -40 6.0295 -0.0626
28 5 -37 9.6049 0.0564
28 5 -34 -3.0797 -0.2146
28 5 -31 -11.8743 -0.0017
28 5 -28 13.3576 -0.0774
28 5 -25 17.6421 0.1724
28 5 -22 -7.5865 0.0914
28 5 -19 1.5202 -0.3751
28 5 -16 -2.6965 0.4045
28 5 -13 -5.9923 0.0320
28 5 -10 -1.4747 -0.6528
28 5 -7 4.7220 -0.0791
28 5 -4 14.7356 0.0609
28 5 -1 10.3417 -0.0359
28 5 2 -0.9745 0.1476
28 5 5 -7.8706 0.5656
28 5 8 1.0926 0.5963
28 5 11 -6.5795 -0.1539
28 5 14 -0.3823 -0.6640
28 5 17 -1.5571 -0.1129
28 5 20 -5.6708 0.0182
28 5 23 -9.3373 -0.1348
28 5 26 -1.8255 -0.0165
28 5 29 12.0332 -0.0329
28 5 32 6.3237 0.0077
28 5 35 -4.0179 0.2225
28 5 38 4.1823 -0.0089
28 5 41 10.0699 0.0285
28 6 -38 -6.5217 0.0327
28 6 -35 3.4655 0.0463
28 6 -32 3.6817 0.1889
28 6 -29 0.5099 0.0916
28 6 -26 2.8074 0.0008
28 6 -23 -1.2533 -0.1225
28 6 -20 -3.0720 -0.4779
28 6 -17 -8.9254 -0.3666
28 6 -14 -0.3590 -0.0968
28 6 -11 1.4238 0.3414
28 6 -8 3.8525 -0.0496
28 6 -5 -0.1373 0.2526
28 6 -2 9.9692 0.8540
28 6 1 -8.1860 -0.0721
28 6 4 12.4011 -0.1993
28 6 7 5.4067 -0.7015
28 6 10 2.6632 -0.1954
28 6 13 -9.1326 0.3710
28 6 16 -8.9488 -0.4549
28 6 19 6.7753 0.5581
28 6 22 -11.1750 0.1976
28 6 25 2.4372 -0.0316
28 6 28 -15.0718 0.1956
28 6 31 -12.1299 -0.2452
28 6 34 -6.6849 -0.0097
28 6 37 4.0766 -0.1837
28 6 40 -2.9450 0.0487
28 7 -39 1.4582 -0.1119
28 7 -36 2.4647 -0.2007
28 7 -33 5.1627 0.0108
28 7 -30 12.6498 0.1780
28 7 -27 -13.5513 0.0177
28 7 -24 24.5676 -0.0055
28 7 -21 -3.0418 0.0845
28 7 -18 -24.7247 0.1979
28 7 -15 4.1083 -0.1763
28 7 -12 3.0295 -0.0244
28 7 -9 2.6958 0.4094
28 7 -6 0.1927 -0.2032
28 7 -3 -2.2199 -0.2730
28 7 0 10.5573 0.2441
28 7 3 -1.1037 0.1595
28 7 6 -1.6060 -0.1762
28 7 9 -0.0063 -0.3862
28 7 12 0.0843 0.6024
28 7 15 9.7741 0.4693
28 7 18 16.4271 -0.3294
28 7 21 -11.6881 -0.0582
28 7 24 6.4245 0.0185
28 7 27 -10.8340 0.2374
28 7 30 3.9777 -0.0428
28 7 33 1.7630 -0.2945
28 7 36 -0.9775 -0.0387
28 7 39 9.8158 -0.0422
28 8 -37 -3.1879 -0.1584
28 8 -34 -9.8622 -0.1285
28 8 -31 -8.6231 0.2266
28 8 -28 -6.4882 0.1416
28 8 -25 8.4939 -0.1745
28 8 -22 -5.7554 0.0786
28 8 -19 5.9595 -0.1158
28 8 -16 8.3169 -0.1905
28 8 -13 -6.2625 -0.2599
28 8 -10 -15.8241 -0.0329
28 8 -7 7.3066 0.4411
28 8 -4 -6.7059 0.2409
28 8 -1 -5.8891 0.3779
28 8 2 13.9524 0.0033
28 8 5 -0.9383 -0.1518
28 8 8 9.5141 0.0322
28 8 11 16.4405 -0.3812
28 8 14 -11.1512 0.1077
28 8 17 -2.1006 -0.1531
28 8 20 -8.3371 0.0046
28 8 23 -5.2958 0.1412
28 8 26 15.8693 -0.1487
28 8 29 3.8467 0.2084
28 8 32 3.9265 -0.1044
28 8 35 6.6610 0.0509
28 8 38 -18.3555 0.0344
28 9 -38 4.4010 0.1483
28 9 -35 14.0089 -0.1255
28 9 -32 11.6336 -0.0594
28 9 -29 -7.6158 0.0886
28 9 -26 -6.9096 -0.1490
28 9 -23 -6.6279 -0.4088
28 9 -20 -13.3294 0.0046
28 9 -17 -2.2373 0.1056
28 9 -14 -4.2496 0.0004
28 9 -11 -10.3904 0.1826
28 9 -8 -7.0936 0.0327
28 9 -5 0.1974 0.2308
28 9 -2 -2.2541 0.0062
28 9 1 10.9713 -0.3465
28 9 4 -3.6378 -0.2240
28 9 7 8.3908 0.2050
28 9 10 7.1907 0.3582
28 9 13 2.7127 -0.5521
28 9 16 -3.5223 -0.1541
28 9 19 -3.3064 0.3075
28 9 22 0.0331 0.1763
28 9 25 8.7084 0.0476
28 9 28 5.2479 -0.1471
28 9 31 -7.4629 0.1097
28 9 34 -5.5118 0.1985
28 9 37 -0.0129 0.0519
28 10 -36 -4.2441 0.0084
28 10 -33 -5.1494 -0.1001
28 10 -30 -5.7643 0.0452
28 10 -27 -0.6726 0.3465
28 10 -24 -2.3768 0.2866
28 10 -21 6.1460 -0.2419
28 10 -18 10.4149 0.1114
28 10 -15 15.1749 0.0747
28 10 -12 -6.8191 -0.5257
28 10 -9 1.1551 -0.2385
28 10 -6 3.0967 -0.1666
28 10 -3 -4.2380 0.5049
28 10 0 7.8183 0.2958
28 10 3 -1.1345 -0.1827
28 10 6 -2.1068 0.4920
28 10 9 4.7334 0.1561
28 10 12 -5.4078 -0.2393
28 10 15 -17.7823 -0.4014
28 10 18 7.2391 -0.0565
28 10 21 -8.1546 0.4732
28 10 24 2.1388 -0.1958
28 10 27 11.5122 -0.1341
28 10 30 2.0046 0.2432
28 10 33 -2.6875 0.1340
28 10 36 2.6242 0.0743
28 11 -37 8.5942 0.0524
28 11 -34 -0.7135 -0.0656
28 11 -31 -1.6119 -0.0432
28 11 -28 1.3503 0.0908
28 11 -25 0.6723 0.0196
28 11 -22 -3.8578 -0.2290
28 11 -19 -7.6249 -0.0810
28 11 -16 8.8305 0.5702
28 11 -13 -4.6744 -0.1932
28 11 -10 -1.3130 -0.0904
28 11 -7 6.5381 0.5545
28 11 -4 -0.4152 0.1004
28 11 -1 2.1755 -0.2552
28 11 2 -6.7965 -0.7385
28 11 5 4.1186 0.0125
28 11 8 0.6639 0.2944
28 11 11 -3.9204 -0.3030
28 11 14 0.3178 0.2719
28 11 17 1.5903 0.3757
28 11 20 0.5466 -0.0051
28 11 23 14.0237 -0.3014
28 11 26 4.2066 -0.2777
28 11 29 -11.9133 0.2949
28 11 32 0.7269 -0.1689
28 11 35 -5.9958 -0.1606
28 11 38 5.1718 0.2310
28 12 -35 5.9459 -0.0345
28 12 -32 12.0486 -0.1840
28 12 -29 -3.2965 -0.0417
28 12 -26 -13.7567 -0.0383
28 12 -23 1.2639 0.0265
28 12 -20 -4.9043 0.0225
28 12 -17 -17.3952 0.2486
28 12 -14 11.2493 0.3151
28 12 -11 -6.6254 0.0153
28 12 -8 3.1308 -0.5090
28 12 -5 7.7072 -0.2958
28 12 -2 26.5677 -0.0145
28 12 1 8.2901 -0.1200
28 12 4 5.3715 -0.1900
28 12 7 0.5915 0.1842
28 12 10 3.1277 0.2877
28 12 13 0.9850 0.4609
28 12 16 -9.5767 -0.1050
28 12 19 -4.8090 -0.5116
28 12 22 1.9197 0.0193
28 12 25 -13.5100 0.0499
28 12 28 -2.6286 0.0805
28 12 31 -3.3406 -0.0548
28 12 34 -15.9333 -0.0947
28 12 37 2.5576 0.1796
28 13 -36 7.6324 0.1309
28 13 -33 5.1581 0.3062
28 13 -30 9.6395 0.0368
28 13 -27 17.2088 -0.0555
28 13 -24 -11.8115 0.0514
28 13 -21 -6.8849 -0.1067
28 13 -18 -1.6535 -0.1968
28 13 -15 2.0996 -0.4367
28 13 -12 -2.2893 0.2359
28 13 -9 -1.7612 0.2573
28 13 -6 5.5361 -0.0590
28 13 -3 -5.7729 0.3885
28 13 0 5.7671 0.2404
28 13 3 1.6194 -0.0108
28 13 6 8.5292 -0.2569
28 13 9 -10.2230 -0.3073
28 13 12 1.1688 0.0253
28 13 15 6.6360 -0.2139
28 13 18 4.5880 -0.2355
28 13 21 -7.6849 0.2221
28 13 24 0.2393 0.1946
28 13 27 -7.0851 0.0123
28 13 30 -4.7722 0.0898
28 13 33 6.8780 -0.0944
28 13 36 9.1298 0.0185
28 14 -34 2.8509 0.1352
28 14 -31 1.6109 0.0163
28 14 -28 0.8718 -0.1401
28 14 -25 -23.6961 0.1050
28 14 -22 -6.1398 0.1905
28 14 -19 -4.4608 -0.0861
28 14 -16 2.8548 -0.2836
28 14 -13 4.8347 0.2201
28 14 -10 3.8508 0.4094
28 14 -7 5.5298 -0.1832
28 14 -4 -0.8283 -0.2204
28 14 -1 -9.7153 0.2526
28 14 2 -0.3708 0.1547
28 14 5 -0.8208 -0.4814
28 14 8 -6.8163 -0.2608
28 14 11 -12.6575 0.0128
28 14 14 4.5106 0.1711
28 14 17 1.6581 0.0576
28 14 20 -2.9095 0.1924
28 14 23 1.9147 0.2557
28 14 26 3.9002 -0.2160
28 14 29 -7.0911 -0.1680
28 14 32 0.6357 -0.0453
28 14 35 0.8775 -0.0976
28 15 -35 -6.3736 -0.0036
28 15 -32 -0.6905 -0.0711
28 15 -29 1.9669 0.0769
28 15 -26 -3.3173 0.1585
28 15 -23 1.5784 0.1138
28 15 -20 -3.0708 0.1628
28 15 -17 0.6348 -0.2141
28 15 -14 -8.0181 -0.0486
28 15 -11 15.9185 -0.1779
28 15 -8 2.5477 -0.2751
28 15 -5 -0.4958 -0.1179
28 15 -2 3.2199 0.0504
28 15 1 4.9610 0.3491
28 15 4 -3.3534 -0.0615
28 15 7 -0.9323 0.1064
28 15 10 1.7828 0.1887
28 15 13 3.3656 0.1160
28 15 16 -12.1813 0.0026
28 15 19 -5.6578 -0.0476
28 15 22 3.8600 0.0155
28 15 25 0.5132 -0.1963
28 15 28 6.3322 -0.2426
28 15 31 -2.6849 0.0989
28 15 34 -9.6453 -0.0302
28 16 -33 -2.9694 -0.0425
28 16 -30 3.4560 -0.0256
28 16 -27 -6.5399 0.1411
28 16 -24 1.9517 -0.2330
28 16 -21 15.5411 -0.1727
28 16 -18 -3.8524 0.2440
28 16 -15 0.7497 0.1125
28 16 -12 6.4117 -0.0846
28 16 -9 6.8023 -0.0781
28 16 -6 0.6804 0.0489
28 16 -3 4.5235 -0.0562
28 16 0 -0.1698 -0.1462
28 16 3 5.7746 0.1008
28 16 6 -11.0361 0.3502
28 16 9 3.6064 0.2149
28 16 12 0.0429 -0.0888
28 16 15 5.6327 -0.0946
28 16 18 8.8791 -0.0134
28 16 21 11.9784 -0.2636
28 16 24 5.3812 -0.0497
28 16 27 -3.6699 -0.0098
28 16 30 -4.2891 0.1538
28 16 33 -19.9859 0.2203
28 17 -34 -2.0733 -0.0671
28 17 -31 0.0788 0.0540
28 17 -28 3.4118 -0.0172
28 17 -25 -0.6459 0.1268
28 17 -22 -7.4172 -0.0401
28 17 -19 5.0051 0.0393
28 17 -16 4.2918 0.2021
28 17 -13 -5.9196 -0.3121
28 17 -10 -8.2283 -0.0521
28 17 -7 6.1718 0.2006
28 17 -4 13.6172 -0.0388
28 17 -1 -4.6466 -0.1169
28 17 2 -1.2448 -0.1154
28 17 5 -1.8328 0.1039
28 17 8 -3.1572 0.1652
28 17 11 8.5724 -0.4481
28 17 14 -2.1572 0.0656
28 17 17 0.5940 0.2140
28 17 20 2.2037 0.0400
28 17 23 14.6210 0.0622
28 17 26 -3.9734 0.0268
28 17 29 7.3234 0.1480
28 17 32 -11.2752 0.0384
28 18 -32 2.8271 0.2046
28 18 -29 5.1085 0.0176
28 18 -26 -12.0062 0.0099
28 18 -23 14.2383 -0.1275
28 18 -20 1.5886 -0.0781
28 18 -17 3.3291 0.0139
28 18 -14 -3.7937 -0.0540
28 18 -11 -8.7551 -0.0486
28 18 -8 11.7276 0.0878
28 18 -5 8.4265 0.0396
28 18 -2 -4.3974 0.0865
28 18 1 -2.8993 0.0595
28 18 4 -4.9924 -0.1842
28 18 7 5.0126 -0.1002
28 18 10 4.3350 0.0989
28 18 13 -1.9968 0.0009
28 18 16 4.6636 0.1186
28 18 19 1.8250 0.0378
28 18 22 2.0443 0.1344
28 18 25 16.1278 0.1096
28 18 28 7.5639 -0.0561
28 18 31 -9.4796 -0.1675
28 18 34 -2.5468 -0.2309
28 19 -33 -1.6184 0.0280
28 19 -30 -10.9618 -0.0972
28 19 -27 -11.2464 0.2349
28 19 -24 6.5399 0.0860
28 19 -21 0.1393 -0.2450
28 19 -18 -3.1794 -0.0618
28 19 -15 4.0524 0.0684
28 19 -12 6.9465 0.2274
28 19 -9 11.3440 -0.2641
28 19 -6 -12.2213 -0.2056
28 19 -3 1.9853 0.4594
28 19 0 -9.2201 0.1122
28 19 3 -5.8246 -0.2067
28 19 6 0.4391 -0.2300
28 19 9 15.3733 0.2923
28 19 12 3.1919 0.2343
28 19 15 17.8687 -0.2619
28 19 18 2.9202 -0.0714
28 19 21 -0.8315 0.0343
28 19 24 -13.7567 0.1997
28 19 27 -6.7708 -0.2245
28 19 30 -7.5408 -0.1102
28 19 33 1.8660 0.2600
28 20 -31 10.3229 0.0653
28 20 -28 -1.9797 0.1466
28 20 -25 5.9045 0.2475
28 20 -22 3.7899 -0.1133
28 20 -19 -10.3875 -0.3400
28 20 -16 -9.8993 -0.1319
28 20 -13 -0.4153 -0.0163
28 20 -10 7.3973 0.0168
28 20 -7 3.7840 -0.2188
28 20 -4 -3.7357 0.3078
28 20 -1 -3.5370 0.3254
28 20 2 14.2533 -0.0870
28 20 5 -4.8317 -0.1211
28 20 8 -11.4757 -0.1114
28 20 11 7.5282 0.1352
28 20 14 -4.3537 -0.1614
28 20 17 2.5785 -0.1522
28 20 20 -5.7940 0.0447
28 20 23 -10.4063 0.0713
28 20 26 8.4453 0.0893
28 20 29 -12.0787 -0.1235
28 20 32 -17.9628 0.2393
28 21 -29 -0.3611 0.0412
28 21 -26 4.8940 0.0978
28 21 -23 -2.8282 -0.0775
28 21 -20 2.1192 0.0742
28 21 -17 -7.8582 0.0889
28 21 -14 4.7302 0.0486
28 21 -11 10.9386 -0.0559
28 21 -8 -6.3569 -0.2328
28 21 -5 12.1460 0.0016
28 21 -2 4.4172 0.1110
28 21 1 -1.8383 0.0434
28 21 4 0.8298 0.0920
28 21 7 -0.5893 -0.1198
28 21 10 6.3101 -0.1073
28 21 13 4.9749 -0.0157
28 21 16 9.2936 -0.0821
28 21 19 -0.1191 0.0010
28 21 22 -6.4935 -0.0644
28 21 25 1.5993 0.0803
28 21 28 -7.0604 0.1275
28 21 31 4.4743 0.0767
28 22 -30 -11.9308 -0.0246
28 22 -27 1.3015 0.0554
28 22 -24 -10.6552 -0.0423
28 22 -21 8.1974 -0.0436
28 22 -18 0.3524 0.1378
28 22 -15 3.4349 0.0347
28 22 -12 4.0557 0.0197
28 22 -9 -3.5661 -0.0764
28 22 -6 -10.4281 0.0806
28 22 -3 -15.2256 -0.1417
28 22 0 11.0950 -0.1684
28 22 3 -2.2488 0.1746
28 22 6 7.0136 -0.0630
28 22 9 9.3176 -0.0582
28 22 12 6.5735 0.0187
28 22 15 -12.1392 0.1826
28 22 18 -1.7717 0.2159
28 22 21 17.9822 -0.1831
28 22 24 4.3692 -0.0225
28 22 27 -7.5856 0.0393
28 22 30 3.4186 -0.0571
28 23 -28 -15.4174 -0.1056
28 23 -25 -13.7847 -0.1172
28 23 -22 0.5710 -0.1783
28 23 -19 23.7297 -0.0601
28 23 -16 -3.1999 0.0354
28 23 -13 -5.8484 0.1781
28 23 -10 -3.6495 0.1048
28 23 -7 -4.2707 0.1250
28 23 -4 2.6779 -0.0749
28 23 -1 0.9827 -0.3514
28 23 2 -4.6646 -0.0195
28 23 5 17.3256 0.0955
28 23 8 -1.6831 0.1205
28 23 11 -14.2354 0.1003
28 23 14 1.1131 -0.0507
28 23 17 -5.4921 0.2492
28 23 20 -5.5629 -0.0436
28 23 23 2.5301 -0.2142
28 23 26 12.4159 0.0004
28 23 29 5.3565 -0.2049
28 24 -26 9.5574 0.0261
28 24 -23 -4.9320 0.1564
28 24 -20 0.1795 -0.0232
28 24 -17 -2.7305 -0.1350
28 24 -14 -1.3725 -0.0707
28 24 -11 3.8001 -0.0670
28 24 -8 12.3205 0.0404
28 24 -5 -3.8515 0.0572
28 24 -2 7.1092 -0.0380
28 24 1 13.4563 0.0171
28 24 4 2.8268 0.1402
28 24 7 -1.4086 0.0659
28 24 10 -1.6980 0.0398
28 24 13 1.7666 -0.2579
28 24 16 -8.7246 -0.1061
28 24 19 -8.2352 0.0831
28 24 22 -11.7116 -0.1447
28 24 25 -6.5773 0.0051
28 24 28 -2.4505 -0.0134
28 25 -27 0.2130 -0.1189
28 25 -24 -1.5967 -0.0007
28 25 -21 1.3127 -0.0301
28 25 -18 -4.5027 0.0821
28 25 -15 6.7976 -0.0999
28 25 -12 -14.6239 0.0511
28 25 -9 -12.1376 0.0751
28 25 -6 11.0153 0.0372
28 25 -3 5.9614 0.0895
28 25 0 -12.5406 -0.0874
28 25 3 7.3837 -0.0895
28 25 6 -13.6075 0.0372
28 25 9 -2.6610 -0.0503
28 25 12 1.0440 0.1682
28 25 15 -11.7162 -0.0632
28 25 18 -5.4003 0.0317
28 25 21 1.0923 0.1692
28 25 24 5.9093 -0.0023
28 25 27 1.0025 0.0497
28 26 -25 -2.0215 0.0178
28 26 -22 12.0843 -0.0777
28 26 -19 2.8934 0.1347
28 26 -16 -2.9285 0.2723
28 26 -13 2.2653 -0.1339
28 26 -10 8.6959 -0.0975
28 26 -7 -5.0376 -0.0328
28 26 -4 -21.1060 0.0040
28 26 -1 4.9589 0.0073
28 26 2 24.9589 -0.0897
28 26 5 14.2330 0.0960
28 26 8 -1.1043 -0.0246
28 26 11 15.9452 0.1059
28 26 14 -4.8958 0.0876
28 26 17 3.7968 -0.0933
28 26 20 7.2269 0.0500
28 26 23 -9.6980 0.0031
28 26 26 3.4503 0.0940
28 27 -23 15.9762 -0.0346
28 27 -20 -6.1156 -0.1033
28 27 -17 8.4778 -0.0188
28 27 -14 15.1180 0.0070
28 27 -11 -16.8999 -0.1204
28 27 -8 -5.5092 -0.0842
28 27 -5 -16.6643 -0.0127
28 27 -2 -6.6136 0.1298
28 27 1 -2.2673 0.0350
28 27 4 12.3019 0.0149
28 27 7 8.0134 -0.0323
28 27 10 6.6066 0.0888
28 27 13 0.5535 0.0949
28 27 16 -5.1170 -0.1760
28 27 19 5.7193 -0.1665
28 27 22 2.8287 -0.0828
28 27 25 8.0244 -0.0051
28 28 0 0.0255 -0.1747
28 28 3 -4.2112 0.1459
28 28 6 2.1284 0.0574
28 28 9 1.2351 -0.1150
28 28 12 -4.7158 0.1191
28 28 15 6.0178 -0.0808
28 28 18 23.7327 0.1126
28 28 21 2.7017 0.0614
29 0 -40 31.4877 -0.2298
29 0 -34 -9.6010 -0.0828
29 0 -28 -2.0064 0.5985
29 0 -22 0.3513 1.5252
29 0 -16 16.7176 -1.4146
29 0 -10 -4.1095 -2.0123
29 0 -4 15.1221 -1.0512
29 0 2 17.9195 4.0080
29 0 8 3.8050 1.6765
29 0 14 6.8821 -2.0756
29 0 20 -8.4059 -0.4526
29 0 26 0.2503 -0.5043
29 0 32 16.0903 0.8581
29 0 38 12.4999 -0.1753
29 1 -41 1.3316 -0.0580
29 1 -38 -5.2237 -0.2031
29 1 -35 0.4731 -0.0368
29 1 -32 -7.0935 0.0353
29 1 -29 -2.2370 0.0037
29 1 -26 7.6350 0.0463
29 1 -23 6.7167 -0.0325
29 1 -20 1.7378 0.6001
29 1 -17 -8.4620 -0.7890
29 1 -14 9.8912 -1.0641
29 1 -11 1.0021 1.9548
29 1 -8 0.0499 0.2349
29 1 -5 -28.2603 -0.5539
29 1 -2 5.8330 0.2700
29 1 1 -16.6550 0.4031
29 1 4 -6.3349 0.6900
29 1 7 15.4300 -3.1398
29 1 10 -2.3591 -0.9933
29 1 13 8.4903 2.1153
29 1 16 -2.1582 -0.2595
29 1 19 6.4711 -0.0058
29 1 22 -16.2705 0.2270
29 1 25 -4.0335 0.4188
29 1 28 1.5715 0.3105
29 1 31 11.7944 -0.7723
29 1 34 2.8505 0.0627
29 1 37 -5.7828 0.1152
29 1 40 4.0970 0.0228
29 2 -39 8.1903 -0.0790
29 2 -36 3.0533 -0.1063
29 2 -33 2.8932 -0.1356
29 2 -30 12.5715 -0.1825
29 2 -27 -16.2925 0.0064
29 2 -24 3.1534 -0.0511
29 2 -21 0.5155 0.3757
29 2 -18 3.7289 0.3749
29 2 -15 -0.2353 -0.1510
29 2 -12 8.2616 0.0329
29 2 -9 -4.4747 0.4773
29 2 -6 -3.0929 -0.5707
29 2 -3 -1.9764 -1.1671
29 2 0 18.3464 -0.4390
29 2 3 8.5479 0.1938
29 2 6 -13.7690 1.1494
29 2 9 1.4656 -0.7542
29 2 12 -3.1185 0.6735
29 2 15 -11.0505 1.1836
29 2 18 4.9712 -0.7126
29 2 21 3.2927 -0.2651
29 2 24 15.2839 -0.3181
29 2 27 -0.6654 0.1403
29 2 30 12.1674 -0.1153
29 2 33 -4.2657 -0.3184
29 2 36 -3.9432 0.3888
29 2 39 7.8157 0.0576
29 3 -40 11.8769 -0.0241
29 3 -37 -11.2473 0.0514
29 3 -34 1.9882 0.0736
29 3 -31 -1.5259 -0.0206
29 3 -28 -0.6073 0.2239
29 3 -25 1.4122 0.0136
29 3 -22 -5.4861 0.3190
29 3 -19 7.1049 -0.2944
29 3 -16 3.7943 -0.7325
29 3 -13 6.9598 -0.0900
29 3 -10 2.3395 -0.3213
29 3 -7 11.9242 -0.0570
29 3 -4 20.1210 0.2640
29 3 -1 -13.9582 0.4680
29 3 2 -21.0791 0.6686
29 3 5 -21.7697 0.0643
29 3 8 1.3370 0.0822
29 3 11 -14.4595 -0.3633
29 3 14 -0.7493 -0.3991
29 3 17 5.0823 -0.1469
29 3 20 -7.1149 0.0269
29 3 23 -2.6467 -0.0621
29 3 26 -1.9320 -0.0938
29 3 29 -12.1743 0.1700
29 3 32 -7.9748 -0.0824
29 3 35 14.1961 -0.1141
29 3 38 5.3078 -0.0214
29 3 41 7.6252 0.0613
29 4 -38 6.6533 -0.0335
29 4 -35 -1.5709 -0.0758
29 4 -32 -0.1920 -0.0804
29 4 -29 15.3258 -0.0151
29 4 -26 4.7626 0.1994
29 4 -23 -13.5480 0.4588
29 4 -20 3.8175 0.3715
29 4 -17 3.9981 -0.2764
29 4 -14 -8.1071 -0.3836
29 4 -11 20.7562 -0.2978
29 4 -8 -0.7218 -0.1541
29 4 -5 6.3868 -0.2699
29 4 -2 0.1746 -0.4848
29 4 1 -0.9949 0.6222
29 4 4 7.3904 1.1186
29 4 7 4.1900 0.1816
29 4 10 1.0403 -0.6597
29 4 13 -8.1500 -0.4479
29 4 16 7.8278 0.1340
29 4 19 -9.7914 -0.2268
29 4 22 -8.2011 -0.0724
29 4 25 2.9767 0.0043
29 4 28 -19.6738 0.2807
29 4 31 -1.0629 0.0509
29 4 34 3.7565 -0.0827
29 4 37 1.2667 -0.0138
29 4 40 11.0946 -0.2010
29 5 -39 2.4648 0.1753
29 5 -36 -13.0578 -0.1066
29 5 -33 1.0960 -0.2021
29 5 -30 5.5525 -0.0623
29 5 -27 -5.3781 0.0079
29 5 -24 0.3584 0.1092
29 5 -21 7.2854 0.1723
29 5 -18 -2.0739 -0.4057
29 5 -15 10.6722 0.2044
29 5 -12 2.4404 0.1931
29 5 -9 9.3610 -0.6054
29 5 -6 3.2110 0.4149
29 5 -3 10.6098 -0.0366
29 5 0 -12.3813 0.1461
29 5 3 5.7691 0.2452
29 5 6 3.2911 -0.5235
29 5 9 0.0213 0.1985
29 5 12 4.5454 -0.4907
29 5 15 3.2160 -0.1678
29 5 18 -6.1028 0.7324
29 5 21 18.6137 0.1889
29 5 24 -10.4030 0.0284
29 5 27 -0.6480 -0.1340
29 5 30 7.0140 0.1032
29 5 33 12.8275 -0.0221
29 5 36 -10.5050 -0.0439
29 5 39 2.1187 -0.2006
29 6 -40 -21.0231 0.1720
29 6 -37 3.9861 0.1424
29 6 -34 -4.2480 -0.1135
29 6 -31 -3.7341 -0.1845
29 6 -28 4.1186 0.0946
29 6 -25 -13.8158 -0.1901
29 6 -22 0.8646 -0.2221
29 6 -19 14.3341 0.2568
29 6 -16 20.4479 0.1133
29 6 -13 -24.6921 0.4496
29 6 -10 6.0574 0.0457
29 6 -7 9.9268 -0.2583
29 6 -4 11.4176 0.3068
29 6 -1 0.3765 -0.3635
29 6 2 15.2509 -0.6098
29 6 5 10.4320 -0.4252
29 6 8 -14.4151 0.2220
29 6 11 1.5301 0.7638
29 6 14 -5.8264 -0.1943
29 6 17 -1.5675 -0.0361
29 6 20 -0.9208 0.2131
29 6 23 -6.4035 -0.0423
29 6 26 14.1874 -0.0842
29 6 29 -8.4560 -0.0510
29 6 32 -6.1260 -0.1033
29 6 35 -4.3111 -0.0190
29 6 38 1.3007 0.0526
29 7 -38 6.7782 0.0436
29 7 -35 -9.1687 0.0899
29 7 -32 -7.2261 -0.0534
29 7 -29 1.4268 0.1584
29 7 -26 0.8482 0.1453
29 7 -23 -15.0733 0.0422
29 7 -20 3.7301 -0.1032
29 7 -17 2.6791 -0.1305
29 7 -14 1.4627 0.2431
29 7 -11 3.4073 -0.0992
29 7 -8 3.4474 -0.0360
29 7 -5 -2.5371 -0.3532
29 7 -2 -9.0701 0.4097
29 7 1 -4.6943 0.4580
29 7 4 -3.2685 -0.7990
29 7 7 -2.5219 0.0190
29 7 10 -8.0174 0.4549
29 7 13 -12.6951 0.3619
29 7 16 6.2672 -0.5554
29 7 19 -4.2351 -0.6022
29 7 22 -10.9736 0.5799
29 7 25 1.9662 0.0511
29 7 28 -0.7575 -0.0684
29 7 31 -13.4603 -0.0115
29 7 34 -2.7027 -0.0481
29 7 37 1.6725 0.2514
29 8 -39 -11.6525 -0.0807
29 8 -36 8.2489 0.0835
29 8 -33 2.9788 -0.0449
29 8 -30 -6.8578 -0.1136
29 8 -27 -7.2391 0.0645
29 8 -24 10.2487 0.0617
29 8 -21 2.5007 -0.0783
29 8 -18 30.6193 -0.2363
29 8 -15 6.2773 0.3053
29 8 -12 0.6984 0.0001
29 8 -9 10.2333 0.1679
29 8 -6 -4.9796 0.2440
29 8 -3 -1.6938 -0.3228
29 8 0 2.1754 0.0551
29 8 3 -0.1010 -0.4057
29 8 6 -4.7405 -0.0060
29 8 9 -6.2369 -0.1016
29 8 12 -8.2573 -0.3213
29 8 15 26.1510 0.4640
29 8 18 -6.8173 -0.2270
29 8 21 -5.0802 0.1065
29 8 24 -1.1709 0.1667
29 8 27 -7.2793 -0.1489
29 8 30 9.1834 0.2458
29 8 33 -2.0111 -0.1392
29 8 36 -4.8582 0.1756
29 8 39 1.6841 0.0502
29 9 -37 9.1057 -0.0063
29 9 -34 -13.4893 -0.0654
29 9 -31 -15.1631 -0.3077
29 9 -28 -5.2264 -0.0100
29 9 -25 -4.5390 0.2972
29 9 -22 0.3981 0.1453
29 9 -19 3.1642 -0.1530
29 9 -16 -4.0679 0.0158
29 9 -13 13.2760 0.2972
29 9 -10 13.1917 -0.3996
29 9 -7 1.3981 -0.2299
29 9 -4 7.4990 0.0684
29 9 -1 2.0329 0.0280
29 9 2 -2.1976 0.2836
29 9 5 5.2182 -0.0475
29 9 8 -9.2492 0.1068
29 9 11 0.2301 -0.3585
29 9 14 5.8351 -0.2034
29 9 17 4.8910 0.5027
29 9 20 14.5737 -0.0708
29 9 23 1.1266 0.0924
29 9 26 2.1162 -0.1916
29 9 29 -10.0046 0.0030
29 9 32 5.4857 0.2553
29 9 35 14.1163 -0.1726
29 9 38 -1.4687 -0.0326
29 10 -38 18.9713 -0.0590
29 10 -35 2.8575 0.0810
29 10 -32 -12.1582 0.0433
29 10 -29 -15.0033 -0.1542
29 10 -26 -11.6967 0.2187
29 10 -23 -13.1640 0.0398
29 10 -20 6.4016 -0.2096
29 10 -17 4.1669 0.1286
29 10 -14 -9.7454 -0.2945
29 10 -11 0.7207 -0.0525
29 10 -8 9.1728 0.1271
29 10 -5 5.1281 -0.0002
29 10 -2 -2.0232 0.1467
29 10 1 -13.9868 -0.3970
29 10 4 2.0796 0.3032
29 10 7 -0.2634 0.1377
29 10 10 12.5238 -0.3545
29 10 13 -3.6856 0.0420
29 10 16 -4.6989 0.2037
29 10 19 6.0924 0.2420
29 10 22 2.7123 -0.3786
29 10 25 -11.5851 -0.3505
29 10 28 0.0854 0.0159
29 10 31 -8.6560 0.1736
29 10 34 4.9467 -0.1928
29 10 37 9.2731 -0.0269
29 11 -36 2.3575 -0.1751
29 11 -33 4.1772 -0.0196
29 11 -30 -3.8210 0.0042
29 11 -27 -4.6287 -0.3452
29 11 -24 6.8430 0.0234
29 11 -21 -2.7247 0.3460
29 11 -18 -6.8916 0.3135
29 11 -15 3.0211 0.1509
29 11 -12 -3.7110 -0.1482
29 11 -9 -8.6847 0.1662
29 11 -6 -0.0735 -0.2664
29 11 -3 3.9694 -0.7583
29 11 0 -7.1896 -0.3250
29 11 3 -3.5455 0.2093
29 11 6 2.7370 0.5160
29 11 9 -4.1318 0.2172
29 11 12 5.2629 0.2390
29 11 15 6.8315 0.2344
29 11 18 -16.6143 -0.3127
29 11 21 -3.7640 -0.4041
29 11 24 -6.5685 -0.0662
29 11 27 10.5864 -0.0402
29 11 30 5.6996 0.0073
29 11 33 -1.2832 -0.1088
29 11 36 -11.7139 0.0146
29 12 -37 1.0084 -0.1543
29 12 -34 5.4655 -0.0789
29 12 -31 1.9923 0.2543
29 12 -28 9.5219 -0.0055
29 12 -25 2.9129 -0.2457
29 12 -22 16.6597 0.1317
29 12 -19 11.3719 0.2541
29 12 -16 1.7426 -0.1753
29 12 -13 -1.5336 -0.2068
29 12 -10 -5.0638 -0.1547
29 12 -7 -0.9974 0.0565
29 12 -4 1.2423 0.4363
29 12 -1 1.6344 0.1559
29 12 2 -3.2616 0.1866
29 12 5 7.5406 0.0125
29 12 8 9.8129 0.1324
29 12 11 -4.0813 0.1358
29 12 14 -0.5667 -0.5029
29 12 17 -2.9914 -0.4106
29 12 20 -3.4591 0.2226
29 12 23 1.4973 0.5233
29 12 26 9.0123 0.0299
29 12 29 -12.8235 -0.1544
29 12 32 7.0995 0.0658
29 12 35 11.3630 -0.0815
29 13 -35 -8.4481 -0.0842
29 13 -32 15.3754 0.0227
29 13 -29 -12.7416 0.1021
29 13 -26 -2.5624 -0.0595
29 13 -23 -10.2306 -0.2513
29 13 -20 4.9749 -0.1970
29 13 -17 1.1995 -0.0047
29 13 -14 12.2301 0.1653
29 13 -11 -3.1558 0.1587
29 13 -8 0.6239 0.1124
29 13 -5 2.2329 0.1212
29 13 -2 4.7367 0.0939
29 13 1 -7.3684 0.0460
29 13 4 -6.5964 -0.5110
29 13 7 -3.7163 -0.3828
29 13 10 9.3586 0.2224
29 13 13 -5.7647 -0.0209
29 13 16 -2.9818 0.1031
29 13 19 -1.1139 0.0812
29 13 22 15.4796 0.3034
29 13 25 -3.3617 0.2449
29 13 28 -8.1122 -0.4239
29 13 31 -1.0082 -0.0066
29 13 34 -7.8447 -0.0512
29 14 -36 7.8903 -0.0746
29 14 -33 -6.3346 -0.1832
29 14 -30 12.2737 0.0114
29 14 -27 13.3725 0.2450
29 14 -24 4.8611 0.3418
29 14 -21 -3.8508 0.0075
29 14 -18 5.3521 -0.1704
29 14 -15 -3.5458 0.1931
29 14 -12 1.3591 -0.2186
29 14 -9 9.3337 -0.4512
29 14 -6 3.2088 -0.1903
29 14 -3 9.1652 0.1175
29 14 0 -0.3414 0.3179
29 14 3 9.2221 -0.0867
29 14 6 -8.5518 0.0282
29 14 9 1.1841 0.3283
29 14 12 2.1229 -0.0768
29 14 15 -8.9831 0.0652
29 14 18 14.4562 0.0311
29 14 21 -7.4237 -0.0434
29 14 24 7.1794 -0.1097
29 14 27 4.2561 -0.1997
29 14 30 -9.7807 0.0965
29 14 33 6.1456 0.1924
29 14 36 16.9227 -0.0770
29 15 -34 -7.1353 -0.1941
29 15 -31 5.5674 -0.0071
29 15 -28 -2.3700 0.1256
29 15 -25 7.4337 0.0181
29 15 -22 -5.4929 -0.0050
29 15 -19 2.7368 -0.1289
29 15 -16 -4.7918 0.2182
29 15 -13 0.7455 -0.0450
29 15 -10 -4.5376 -0.2446
29 15 -7 13.1444 0.1685
29 15 -4 -0.2642 0.0639
29 15 -1 -19.8952 0.0860
29 15 2 7.6069 0.1393
29 15 5 12.5317 0.1078
29 15 8 -2.4880 0.0781
29 15 11 -2.2646 -0.0648
29 15 14 8.3203 -0.2231
29 15 17 5.3135 0.0184
29 15 20 16.0137 -0.2588
29 15 23 22.5069 -0.0716
29 15 26 -7.1665 0.1956
29 15 29 -6.7085 0.1564
29 15 32 11.9732 0.2178
29 15 35 4.7016 -0.0120
29 16 -32 -5.4740 -0.1251
29 16 -29 14.4157 -0.1228
29 16 -26 0.4611 -0.0820
29 16 -23 7.4106 0.0422
29 16 -20 -9.1856 -0.0476
29 16 -17 0.0664 0.1584
29 16 -14 1.7467 0.0836
29 16 -11 1.4641 0.0641
29 16 -8 1.6525 -0.0308
29 16 -5 2.0755 -0.1412
29 16 -2 5.0272 -0.1017
29 16 1 1.1359 0.0081
29 16 4 -1.5723 0.0958
29 16 7 25.3458 -0.0689
29 16 10 -5.7196 -0.1849
29 16 13 -3.6939 -0.0971
29 16 16 -1.5537 0.1054
29 16 19 -16.9243 -0.2134
29 16 22 -2.5308 -0.1061
29 16 25 -0.0674 0.2335
29 16 28 4.4946 0.0344
29 16 31 -10.6313 0.1060
29 16 34 -5.8473 -0.0447
29 17 -33 12.5508 0.0665
29 17 -30 -16.5890 0.0609
29 17 -27 -6.9250 -0.1456
29 17 -24 1.9598 0.1987
29 17 -21 11.4103 0.0160
29 17 -18 0.9871 -0.1427
29 17 -15 7.4893 -0.2415
29 17 -12 3.4544 -0.0888
29 17 -9 -3.2844 0.2554
29 17 -6 -3.2869 -0.1879
29 17 -3 19.1842 -0.1094
29 17 0 -4.4881 0.2382
29 17 3 11.2086 -0.0530
29 17 6 7.1224 -0.0469
29 17 9 16.0840 -0.1108
29 17 12 10.9839 0.1256
29 17 15 -2.7683 0.3010
29 17 18 6.0394 -0.1095
29 17 21 -3.3753 -0.0060
29 17 24 -1.4512 0.0115
29 17 27 11.2099 -0.0390
29 17 30 4.9667 -0.2082
29 17 33 0.9325 -0.0575
29 18 -31 3.3198 -0.0831
29 18 -28 -2.8669 -0.1273
29 18 -25 -7.6670 0.0154
29 18 -22 0.8143 0.1349
29 18 -19 -5.9506 0.0876
29 18 -16 0.4882 -0.0426
29 18 -13 -11.3883 0.1788
29 18 -10 7.9160 0.1001
29 18 -7 2.6351 -0.1631
29 18 -4 -0.9378 -0.1221
29 18 -1 8.4102 0.1629
29 18 2 5.7675 -0.0694
29 18 5 2.3659 -0.1508
29 18 8 3.9154 -0.0110
29 18 11 6.8043 0.2987
29 18 14 -6.7398 -0.0604
29 18 17 -6.1047 -0.1701
29 18 20 -2.1579 -0.0005
29 18 23 13.1372 -0.0095
29 18 26 1.6198 0.0290
29 18 29 -12.7776 -0.2418
29 18 32 0.1368 0.0454
29 19 -32 7.9362 -0.1627
29 19 -29 -2.6566 -0.0181
29 19 -26 6.2457 0.0125
29 19 -23 -3.8267 0.0646
29 19 -20 -1.8623 -0.0238
29 19 -17 5.2132 -0.0025
29 19 -14 6.8579 0.0364
29 19 -11 -12.2862 0.0292
29 19 -8 -2.4926 0.0283
29 19 -5 22.2713 -0.0888
29 19 -2 5.2150 -0.0242
29 19 1 -1.7437 -0.0713
29 19 4 -11.7712 -0.0158
29 19 7 -1.9575 -0.0156
29 19 10 -7.9714 0.0942
29 19 13 2.2764 -0.1385
29 19 16 2.0503 -0.1433
29 19 19 -6.4774 0.0095
29 19 22 5.9501 -0.0094
29 19 25 -2.8428 -0.0257
29 19 28 10.2501 -0.1372
29 19 31 -7.7567 0.0657
29 20 -30 2.9516 -0.0224
29 20 -27 13.5580 -0.0652
29 20 -24 4.3260 0.0128
29 20 -21 5.1082 -0.2151
29 20 -18 1.9031 -0.1153
29 20 -15 10.8143 0.0771
29 20 -12 -2.9318 -0.0175
29 20 -9 10.9195 0.0986
29 20 -6 -1.0772 0.0764
29 20 -3 -7.7836 -0.0325
29 20 0 -13.2332 -0.0059
29 20 3 -3.6454 0.0361
29 20 6 -4.5031 -0.1450
29 20 9 -2.5044 -0.2055
29 20 12 14.5738 -0.0260
29 20 15 4.3429 -0.0109
29 20 18 -3.7101 0.1797
29 20 21 17.2114 0.0314
29 20 24 -6.9168 0.0492
29 20 27 14.3474 0.1901
29 20 30 -0.0612 -0.1141
29 21 -28 3.7419 -0.0355
29 21 -25 0.6510 0.0786
29 21 -22 15.5110 0.2705
29 21 -19 -10.9031 -0.0295
29 21 -16 -9.1779 -0.0185
29 21 -13 -4.8000 -0.0390
29 21 -10 8.6091 -0.1413
29 21 -7 -6.7795 -0.0125
29 21 -4 -9.7308 -0.0958
29 21 -1 1.8766 0.1470
29 21 2 -0.7487 0.0500
29 21 5 -3.9233 -0.0565
29 21 8 -0.0187 -0.0703
29 21 11 1.4304 0.0118
29 21 14 0.0171 0.0947
29 21 17 2.2784 -0.0147
29 21 20 4.7703 0.0122
29 21 23 6.3756 0.0019
29 21 26 11.1024 0.0896
29 21 29 0.5441 0.0869
29 22 -29 -2.4837 0.0919
29 22 -26 20.6690 -0.2087
29 22 -23 -6.5212 0.0169
29 22 -20 -1.4138 0.1343
29 22 -17 19.7364 0.0349
29 22 -14 4.7067 -0.0561
29 22 -11 10.0159 0.0885
29 22 -8 -5.7729 0.0957
29 22 -5 -9.6306 -0.2582
29 22 -2 10.1605 -0.1812
29 22 1 2.9419 0.0112
29 22 4 -0.3263 0.0227
29 22 7 -11.3998 0.0545
29 22 10 13.5340 0.1476
29 22 13 -13.7713 0.1970
29 22 16 -7.5770 -0.0017
29 22 19 -19.8045 -0.0689
29 22 22 -1.9119 -0.1775
29 22 25 2.2889 -0.0689
29 22 28 -14.7917 0.0536
29 23 -27 -11.7236 -0.1015
29 23 -24 6.5862 0.0219
29 23 -21 -0.9796 0.0701
29 23 -18 2.3807 0.0498
29 23 -15 -19.8521 0.0738
29 23 -12 4.5266 -0.1081
29 23 -9 -5.8024 0.1044
29 23 -6 0.1059 -0.0771
29 23 -3 -5.2808 -0.1582
29 23 0 -2.2603 0.1204
29 23 3 -0.5433 0.0118
29 23 6 3.8638 0.0937
29 23 9 -5.7453 -0.0109
29 23 12 -6.6965 -0.0671
29 23 15 -13.5308 -0.0633
29 23 18 4.0439 -0.0683
29 23 21 5.3357 -0.0038
29 23 24 -3.8476 0.1302
29 23 27 -14.9910 -0.0060
29 24 -25 7.5182 0.0739
29 24 -22 -2.1893 0.0373
29 24 -19 4.8111 -0.1782
29 24 -16 -0.0738 -0.1041
29 24 -13 -0.3396 0.0871
29 24 -10 -10.5643 0.0226
29 24 -7 -6.1062 -0.1260
29 24 -4 3.6030 0.0171
29 24 -1 10.1322 0.1594
29 24 2 16.3901 -0.0133
29 24 5 2.0444 -0.2127
29 24 8 -7.7748 -0.1301
29 24 11 3.7572 -0.0000
29 24 14 -6.4620 0.0748
29 24 17 10.0807 0.0145
29 24 20 1.9213 0.0987
29 24 23 0.2643 0.0659
29 24 26 3.8183 0.0589
29 25 -26 -1.9376 0.0668
29 25 -23 12.9624 -0.0339
29 25 -20 -13.9892 -0.0006
29 25 -17 2.4147 0.0851
29 25 -14 -8.9022 0.0326
29 25 -11 2.0815 0.0755
29 25 -8 -4.4787 -0.2436
29 25 -5 -3.8415 -0.1108
29 25 -2 -2.1488 0.0560
29 25 1 1.4821 0.0013
29 25 4 13.3432 -0.0333
29 25 7 -10.8991 -0.1192
29 25 10 2.1326 0.0335
29 25 13 -8.7175 0.3221
29 25 16 -3.8247 -0.0988
29 25 19 -2.9884 0.0867
29 25 22 -0.0021 -0.0320
29 25 25 -1.9048 -0.0782
29 26 -24 1.6431 0.0216
29 26 -21 -0.0342 -0.0972
29 26 -18 -0.5976 -0.0096
29 26 -15 -12.8783 0.0178
29 26 -12 6.9582 -0.0914
29 26 -9 -0.2698 -0.1955
29 26 -6 1.4979 -0.0285
29 26 -3 14.4513 0.2485
29 26 0 -0.4113 0.0368
29 26 3 1.9064 -0.0031
29 26 6 -6.0894 0.1123
29 26 9 14.1610 -0.0333
29 26 12 1.8458 -0.0533
29 26 15 12.9037 -0.0737
29 26 18 6.8043 -0.1202
29 26 21 -0.3848 0.0718
29 26 24 16.9287 -0.0758
29 27 -22 3.2416 0.0051
29 27 -19 4.7843 -0.2117
29 27 -16 -0.8125 -0.0859
29 27 -13 -7.9292 0.1698
29 27 -10 -7.4302 -0.0293
29 27 -7 -9.3639 -0.1419
29 27 -4 3.4118 0.0389
29 27 -1 -7.6205 0.1330
29 27 2 -7.3559 0.0512
29 27 5 -3.0306 -0.1043
29 27 8 -14.2700 0.0675
29 27 11 7.5679 -0.0996
29 27 14 13.2926 -0.1297
29 27 17 -21.0432 -0.1113
29 27 20 8.2200 0.0050
29 27 23 -4.1658 0.0276
29 28 -20 -1.7219 0.2123
29 28 -17 12.8350 -0.2033
29 28 -14 5.9069 -0.0056
29 28 -11 8.3271 0.1543
29 28 -8 -13.1328 -0.1222
29 28 -5 -11.0439 -0.1637
29 28 -2 4.8752 -0.2676
29 28 1 -1.6703 0.1852
29 28 4 18.4425 0.1389
29 28 7 10.3770 -0.1158
29 28 10 -6.7084 0.0248
29 28 13 -13.7553 -0.0100
29 28 16 -10.1279 0.0886
29 28 19 -1.3892 0.1020
29 28 22 -14.3929 0.0589
29 29 0 9.3629 -0.1892
29 29 3 8.5643 -0.0131
29 29 6 7.1991 0.0722
29 29 9 -9.9650 -0.1427
29 29 12 4.8243 0.0680
29 29 15 -7.1906 0.2193
29 29 18 3.8729 0.0387
30 0 -36 14.0279 -0.1251
30 0 -30 2.4826 -0.0387
30 0 -24 12.1066 -0.9813
30 0 -18 2.3956 1.3879
30 0 -12 25.5188 0.2147
30 0 -6 8.6459 0.4739
30 0 0 6.5281 -2.2038
30 0 6 9.4436 -0.2616
30 0 12 -11.5782 -0.0695
30 0 18 -17.5064 1.5995
30 0 24 3.1958 -0.9738
30 0 30 18.9848 0.2082
30 0 36 12.0128 -0.3396
30 1 -40 -11.1257 0.1119
30 1 -37 -19.5981 0.0374
30 1 -34 8.2418 0.2054
30 1 -31 -18.5893 -0.2181
30 1 -28 3.6098 -0.2653
30 1 -25 3.9479 -0.0004
30 1 -22 1.3016 -0.8986
30 1 -19 4.1269 0.8626
30 1 -16 5.0776 0.4639
30 1 -13 -7.6247 0.8509
30 1 -10 4.5155 1.3356
30 1 -7 2.9831 -0.8779
30 1 -4 -12.2188 0.1397
30 1 -1 1.7484 -1.3997
30 1 2 8.4008 -1.7965
30 1 5 -14.1883 -0.1665
30 1 8 -0.9616 -0.6702
30 1 11 -4.5931 2.5173
30 1 14 2.4959 0.9144
30 1 17 -5.5591 -0.3503
30 1 20 4.5618 0.5576
30 1 23 3.7396 0.1259
30 1 26 6.3586 0.0417
30 1 29 -5.1503 -0.4116
30 1 32 10.3783 -0.4232
30 1 35 2.0142 0.2005
30 1 38 2.3095 0.0234
30 1 41 -5.8829 -0.0320
30 2 -38 -8.2305 -0.0023
30 2 -35 -10.6857 0.0603
30 2 -32 -8.1179 0.0642
30 2 -29 4.8277 -0.0816
30 2 -26 13.2280 0.0885
30 2 -23 -10.9311 0.1256
30 2 -20 9.3656 -0.1016
30 2 -17 -0.8989 -0.2662
30 2 -14 8.5243 -0.5606
30 2 -11 15.6543 0.3178
30 2 -8 1.1981 0.2625
30 2 -5 9.3283 -0.4140
30 2 -2 7.1392 0.5637
30 2 1 6.9704 0.1261
30 2 4 10.2198 0.8848
30 2 7 -26.5131 0.1015
30 2 10 -8.0302 -0.6076
30 2 13 6.9778 0.3696
30 2 16 -2.9507 -0.8644
30 2 19 -0.2480 -0.2697
30 2 22 -4.8964 0.3238
30 2 25 -3.0808 -0.0037
30 2 28 -3.3482 0.1107
30 2 31 4.0157 0.0320
30 2 34 -15.0531 -0.0143
30 2 37 13.2556 0.0402
30 2 40 14.9802 -0.3261
30 3 -39 -3.0250 0.0434
30 3 -36 5.3108 0.1852
30 3 -33 0.0464 -0.0151
30 3 -30 9.2018 -0.1927
30 3 -27 -12.5130 0.0352
30 3 -24 2.5482 -0.0464
30 3 -21 -3.9309 -0.0434
30 3 -18 -1.9368 -0.1638
30 3 -15 -0.2853 -0.2578
30 3 -12 9.2005 0.3417
30 3 -9 4.7904 0.0322
30 3 -6 0.7649 0.4349
30 3 -3 11.7650 0.5680
30 3 0 6.6948 -0.0663
30 3 3 -5.7592 -0.3625
30 3 6 -1.2137 -0.3707
30 3 9 -8.0972 -0.0808
30 3 12 1.9840 -0.8033
30 3 15 0.1057 -0.3182
30 3 18 5.6804 0.3989
30 3 21 -10.3598 0.1332
30 3 24 -0.6680 0.3348
30 3 27 -19.1579 0.0793
30 3 30 8.7165 0.2921
30 3 33 -6.5254 -0.0968
30 3 36 -4.0086 -0.1422
30 3 39 3.0397 0.0686
30 4 -40 -2.2993 0.0817
30 4 -37 2.0872 0.0665
30 4 -34 3.3359 0.1667
30 4 -31 -10.0464 -0.0249
30 4 -28 2.5505 -0.1231
30 4 -25 -1.7581 0.0836
30 4 -22 9.7856 0.0468
30 4 -19 13.4132 0.2412
30 4 -16 0.9297 -0.3181
30 4 -13 -1.0683 -0.2272
30 4 -10 -3.7503 0.3803
30 4 -7 -2.7131 -0.1050
30 4 -4 5.3411 -0.1457
30 4 -1 0.0188 0.2279
30 4 2 -6.3120 0.5648
30 4 5 19.3938 -0.1666
30 4 8 -28.6275 -0.3958
30 4 11 4.9371 0.0438
30 4 14 5.4767 0.1760
30 4 17 0.9304 -0.0692
30 4 20 -3.4562 -0.0044
30 4 23 9.1686 0.2946
30 4 26 -12.3925 0.0075
30 4 29 -11.9299 0.0614
30 4 32 -7.7699 0.1504
30 4 35 8.0345 -0.0249
30 4 38 3.1031 0.0385
30 5 -38 0.7154 0.0043
30 5 -35 -1.0501 -0.0125
30 5 -32 -2.2412 0.0326
30 5 -29 6.2869 -0.0892
30 5 -26 -6.1821 -0.1240
30 5 -23 3.4344 -0.4511
30 5 -20 -9.9420 0.2022
30 5 -17 -5.2405 0.6801
30 5 -14 5.0360 0.1138
30 5 -11 -5.9544 -0.1307
30 5 -8 19.0615 0.3932
30 5 -5 -18.1522 0.5904
30 5 -2 -2.6860 -0.8350
30 5 1 2.2179 -0.5824
30 5 4 -5.5360 -0.2523
30 5 7 -5.1859 0.0836
30 5 10 3.6870 0.5363
30 5 13 1.4387 -0.0947
30 5 16 4.4691 0.6536
30 5 19 -0.4036 -0.1392
30 5 22 -0.7701 -0.5130
30 5 25 -9.4596 0.0312
30 5 28 -7.0571 -0.2117
30 5 31 -3.0849 0.1141
30 5 34 6.7390 -0.0368
30 5 37 1.9733 0.1242
30 6 -39 -18.8225 -0.0311
30 6 -36 1.5226 0.0689
30 6 -33 12.3794 0.0098
30 6 -30 7.3659 0.0064
30 6 -27 7.9362 -0.0422
30 6 -24 3.5251 -0.1894
30 6 -21 3.5914 0.1264
30 6 -18 -8.8544 0.2908
30 6 -15 6.7076 -0.0935
30 6 -12 -0.5516 0.0026
30 6 -9 0.6761 -0.3326
30 6 -6 -7.0575 -0.0427
30 6 -3 9.1217 0.1254
30 6 0 -0.7358 -0.4132
30 6 3 8.4691 0.0789
30 6 6 0.3540 0.2968
30 6 9 -4.1532 0.4137
30 6 12 5.9516 0.2894
30 6 15 -9.1423 -0.4393
30 6 18 -8.6309 -0.3286
30 6 21 2.5672 -0.2674
30 6 24 -0.0182 0.1085
30 6 27 -4.8682 -0.1940
30 6 30 13.7931 -0.1178
30 6 33 2.8348 0.1278
30 6 36 -15.3572 0.0152
30 6 39 -1.2015 0.2549
30 7 -37 -4.4293 0.0828
30 7 -34 12.0189 0.1687
30 7 -31 5.4918 0.1283
30 7 -28 2.3746 -0.1907
30 7 -25 -3.1325 0.0389
30 7 -22 13.0838 -0.0408
30 7 -19 17.4481 -0.2653
30 7 -16 -0.1160 0.2290
30 7 -13 3.6284 0.0368
30 7 -10 3.5787 -0.0107
30 7 -7 8.5964 -0.2241
30 7 -4 0.6566 0.1610
30 7 -1 15.8869 0.5822
30 7 2 -0.7696 -0.6827
30 7 5 -3.7205 -0.1299
30 7 8 0.6116 0.4614
30 7 11 22.3737 0.1862
30 7 14 -4.3345 -0.2733
30 7 17 17.1812 -0.3718
30 7 20 -4.2330 0.4517
30 7 23 2.9969 0.2098
30 7 26 -11.0544 -0.2212
30 7 29 1.8288 -0.1656
30 7 32 6.0284 0.1078
30 7 35 9.4496 -0.0453
30 7 38 5.5907 0.0013
30 8 -38 -2.5601 -0.0190
30 8 -35 -11.3361 -0.0253
30 8 -32 -11.3785 -0.0548
30 8 -29 -10.7551 -0.0623
30 8 -26 -5.4781 -0.1202
30 8 -23 -2.5581 0.4712
30 8 -20 17.1142 0.0912
30 8 -17 4.8313 -0.1989
30 8 -14 1.6631 0.2494
30 8 -11 4.0442 0.2616
30 8 -8 -0.5329 -0.0607
30 8 -5 -0.3234 -0.4241
30 8 -2 12.1172 -0.2564
30 8 1 -3.7634 0.3600
30 8 4 3.3584 0.0288
30 8 7 -0.4471 -0.2278
30 8 10 -2.4021 -0.4610
30 8 13 2.7739 0.3236
30 8 16 -4.0184 0.4086
30 8 19 2.0298 -0.1453
30 8 22 -4.4579 0.1229
30 8 25 2.8410 0.0572
30 8 28 -9.8336 -0.0559
30 8 31 -15.4994 -0.0473
30 8 34 6.4606 -0.0518
30 8 37 9.6269 -0.1368
30 9 -36 3.9190 -0.0382
30 9 -33 -13.2666 -0.0342
30 9 -30 -7.4857 0.0516
30 9 -27 6.3030 0.0441
30 9 -24 10.7524 -0.1650
30 9 -21 4.5717 0.0605
30 9 -18 4.5162 -0.0697
30 9 -15 14.6514 -0.3101
30 9 -12 6.7011 0.2084
30 9 -9 -3.7581 -0.0521
30 9 -6 5.8601 0.2247
30 9 -3 -2.9649 0.2136
30 9 0 -2.2110 0.0603
30 9 3 2.2677 0.2356
30 9 6 2.7012 -0.5092
30 9 9 -12.6224 -0.1682
30 9 12 -1.9474 0.0116
30 9 15 -2.7176 0.1748
30 9 18 5.6934 0.3195
30 9 21 -10.5889 -0.2170
30 9 24 0.5969 0.1563
30 9 27 6.7028 -0.0457
30 9 30 20.9894 -0.0568
30 9 33 1.7267 0.0608
30 9 36 -4.1912 -0.3062
30 10 -37 12.8570 0.1428
30 10 -34 -0.6101 -0.0608
30 10 -31 2.7697 -0.1054
30 10 -28 -2.5975 0.0670
30 10 -25 -5.3255 -0.0956
30 10 -22 10.3996 -0.2207
30 10 -19 -13.1972 0.2961
30 10 -16 11.8689 -0.1430
30 10 -13 3.6977 -0.0648
30 10 -10 1.4050 0.3655
30 10 -7 -4.9734 -0.2534
30 10 -4 1.5736 -0.3458
30 10 -1 -8.3790 -0.2150
30 10 2 10.5690 0.4366
30 10 5 -6.1450 0.3311
30 10 8 4.5075 -0.5027
30 10 11 -9.5209 0.3098
30 10 14 1.8940 0.2368
30 10 17 0.8358 -0.2749
30 10 20 -4.1719 -0.4474
30 10 23 0.8778 -0.2033
30 10 26 -3.0311 0.5005
30 10 29 3.9795 -0.0608
30 10 32 6.1591 0.0840
30 10 35 -5.4183 0.0306
30 11 -35 -4.0296 -0.0335
30 11 -32 3.1163 -0.0499
30 11 -29 14.0617 0.0337
30 11 -26 11.5936 0.1135
30 11 -23 7.8788 0.1896
30 11 -20 -3.9173 0.1654
30 11 -17 9.4957 -0.1549
30 11 -14 -9.9003 -0.0696
30 11 -11 14.4860 -0.1163
30 11 -8 -0.1918 -0.1467
30 11 -5 1.9801 -0.2126
30 11 -2 -8.7238 0.1087
30 11 1 6.8047 0.5751
30 11 4 0.6634 0.2163
30 11 7 -7.8020 -0.1310
30 11 10 -8.4731 0.1506
30 11 13 -8.3631 -0.0635
30 11 16 -0.0860 -0.4403
30 11 19 1.0097 -0.1986
30 11 22 -4.3694 0.0728
30 11 25 -1.6150 0.3462
30 11 28 -3.2679 0.0820
30 11 31 1.6623 -0.1545
30 11 34 -3.7232 0.2318
30 11 37 -16.7727 -0.0022
30 12 -36 -4.0951 0.0824
30 12 -33 -6.3913 -0.0456
30 12 -30 -7.1225 -0.1691
30 12 -27 -0.7749 -0.0020
30 12 -24 -25.6647 -0.1512
30 12 -21 9.0808 -0.0830
30 12 -18 -6.0013 -0.1340
30 12 -15 4.4525 0.2832
30 12 -12 14.1481 0.2460
30 12 -9 -4.6173 0.0171
30 12 -6 -7.5611 0.3276
30 12 -3 -3.3161 -0.0082
30 12 0 -8.2079 -0.2067
30 12 3 5.0328 -0.4009
30 12 6 2.3926 -0.3529
30 12 9 -5.5522 0.2760
30 12 12 9.8643 -0.0505
30 12 15 10.0432 -0.1219
30 12 18 12.1483 0.4126
30 12 21 8.9320 0.2176
30 12 24 -8.6487 0.0204
30 12 27 -11.7516 -0.1588
30 12 30 -5.7217 -0.2206
30 12 33 6.8275 0.1976
30 12 36 7.3707 0.0173
30 13 -34 3.9737 0.0481
30 13 -31 -3.6952 -0.2697
30 13 -28 6.4306 -0.1087
30 13 -25 5.3384 0.1154
30 13 -22 -16.8572 0.0387
30 13 -19 -7.2743 -0.1796
30 13 -16 -0.2322 0.1936
30 13 -13 12.9139 0.4102
30 13 -10 2.8840 -0.2102
30 13 -7 2.9709 -0.3190
30 13 -4 9.7299 -0.1926
30 13 -1 -9.8993 0.0345
30 13 2 0.4130 -0.2757
30 13 5 6.6410 -0.2108
30 13 8 7.7585 0.3285
30 13 11 5.5758 0.1926
30 13 14 13.8412 0.1146
30 13 17 7.2001 0.0535
30 13 20 -2.2492 -0.1223
30 13 23 -5.6713 -0.1909
30 13 26 3.8794 -0.2772
30 13 29 -6.3021 -0.0970
30 13 32 6.7477 0.2288
30 13 35 10.2301 0.1214
30 14 -35 -4.8675 0.1289
30 14 -32 -4.8309 0.0526
30 14 -29 2.6686 0.0712
30 14 -26 3.2819 0.0289
30 14 -23 10.7561 0.0981
30 14 -20 -2.4734 -0.2455
30 14 -17 9.4109 -0.2336
30 14 -14 3.4490 0.0508
30 14 -11 -8.1144 0.0571
30 14 -8 -7.4371 0.1283
30 14 -5 -2.8735 0.1128
30 14 -2 -10.5998 0.1251
30 14 1 -1.7374 0.1528
30 14 4 -1.2290 0.1317
30 14 7 -9.6214 -0.2169
30 14 10 2.2245 -0.1451
30 14 13 6.0771 -0.1463
30 14 16 -4.9207 0.1145
30 14 19 -2.3708 0.0898
30 14 22 3.4950 -0.2902
30 14 25 -7.7186 0.1088
30 14 28 -0.3841 0.2597
30 14 31 3.7880 -0.0425
30 14 34 -2.9370 0.1382
30 15 -33 6.4737 -0.1199
30 15 -30 -3.4085 0.0066
30 15 -27 5.4222 -0.1462
30 15 -24 -4.8671 -0.1128
30 15 -21 2.7543 0.1496
30 15 -18 4.1848 -0.0632
30 15 -15 9.5882 -0.0893
30 15 -12 -12.8460 0.3075
30 15 -9 4.1417 0.3401
30 15 -6 -4.0683 -0.1220
30 15 -3 -0.2442 -0.1377
30 15 0 -0.9619 0.0247
30 15 3 15.0417 0.1659
30 15 6 7.8609 -0.4159
30 15 9 10.0510 -0.4376
30 15 12 3.5519 0.0996
30 15 15 1.3457 0.0384
30 15 18 1.6746 0.0317
30 15 21 -9.4385 0.0246
30 15 24 11.7994 0.2478
30 15 27 19.7513 0.2777
30 15 30 5.3637 -0.2512
30 15 33 0.6968 -0.1363
30 16 -31 11.4796 0.0332
30 16 -28 -0.7327 0.0430
30 16 -25 -3.1590 -0.1778
30 16 -22 -8.2347 0.0911
30 16 -19 0.2258 0.2827
30 16 -16 7.1214 -0.3025
30 16 -13 2.9982 -0.2371
30 16 -10 6.3156 0.1889
30 16 -7 5.8812 0.0840
30 16 -4 14.7892 -0.2208
30 16 -1 2.7988 -0.0877
30 16 2 -5.9784 0.2608
30 16 5 4.1468 0.0489
30 16 8 4.8296 -0.3179
30 16 11 -1.3509 0.0599
30 16 14 5.6283 0.3254
30 16 17 -7.8527 -0.1022
30 16 20 4.2409 -0.0580
30 16 23 12.9302 0.0404
30 16 26 -2.1288 0.1076
30 16 29 7.4887 -0.1068
30 16 32 7.3101 -0.3868
30 17 -32 1.3647 -0.0585
30 17 -29 5.0041 -0.0212
30 17 -26 6.4288 -0.0362
30 17 -23 -5.8673 -0.1576
30 17 -20 5.7505 0.1115
30 17 -17 13.6441 0.0357
30 17 -14 17.3294 -0.0160
30 17 -11 -6.6970 0.0789
30 17 -8 4.7010 0.1637
30 17 -5 13.9603 0.1004
30 17 -2 0.8291 -0.2764
30 17 1 -1.4880 -0.0778
30 17 4 -9.2725 0.2811
30 17 7 2.6187 0.0990
30 17 10 -7.0565 -0.1020
30 17 13 2.9604 0.1819
30 17 16 6.5419 0.0554
30 17 19 -6.3134 0.0536
30 17 22 -0.1635 -0.1301
30 17 25 3.4502 -0.1065
30 17 28 -2.0094 0.1014
30 17 31 -22.1930 -0.0658
30 18 -30 15.3867 -0.1426
30 18 -27 -1.1942 0.0257
30 18 -24 12.5382 -0.0578
30 18 -21 17.0080 0.1806
30 18 -18 3.5584 0.0069
30 18 -15 0.4176 0.2240
30 18 -12 -11.1462 0.0859
30 18 -9 14.4179 -0.3429
30 18 -6 6.6739 0.1666
30 18 -3 13.4767 -0.1047
30 18 0 -9.5714 -0.4069
30 18 3 -0.9556 0.0609
30 18 6 -2.2260 0.2223
30 18 9 -6.1894 0.2456
30 18 12 8.1984 -0.2205
30 18 15 -12.9578 -0.2194
30 18 18 10.2179 0.2067
30 18 21 -1.6810 -0.0344
30 18 24 -8.7266 -0.1543
30 18 27 7.0592 0.0718
30 18 30 -4.4487 0.1550
30 19 -31 8.6738 -0.1702
30 19 -28 12.1041 0.0487
30 19 -25 1.6365 -0.0591
30 19 -22 -11.4746 -0.1967
30 19 -19 -3.4252 -0.0468
30 19 -16 11.2619 0.0343
30 19 -13 9.1932 0.1696
30 19 -10 3.6503 0.0199
30 19 -7 -7.6565 0.0988
30 19 -4 19.9637 0.1355
30 19 -1 13.7702 -0.1475
30 19 2 -4.7463 -0.0045
30 19 5 -3.4827 -0.0480
30 19 8 -6.9006 0.1144
30 19 11 3.3632 -0.0265
30 19 14 0.3944 -0.1264
30 19 17 5.7616 0.1398
30 19 20 15.8357 0.1829
30 19 23 -11.8849 -0.0806
30 19 26 1.8489 -0.1134
30 19 29 6.2828 0.0791
30 20 -29 -4.7416 -0.0109
30 20 -26 9.3400 0.0468
30 20 -23 -4.7616 -0.0143
30 20 -20 4.6730 -0.1271
30 20 -17 9.1713 0.0828
30 20 -14 4.6127 0.1238
30 20 -11 -12.0146 -0.1908
30 20 -8 -3.8355 0.0439
30 20 -5 16.7288 0.2528
30 20 -2 -12.3309 0.0589
30 20 1 -12.7126 0.0347
30 20 4 -9.0349 -0.2102
30 20 7 -18.1441 -0.0082
30 20 10 -11.6363 0.0536
30 20 13 -5.6330 0.1300
30 20 16 -7.7872 0.0667
30 20 19 8.6794 0.0950
30 20 22 10.6474 0.1337
30 20 25 -0.2687 -0.0338
30 20 28 -7.5002 0.0453
30 21 -27 6.3231 0.1456
30 21 -24 -6.3546 0.0659
30 21 -21 4.0216 0.0999
30 21 -18 -3.1650 -0.1114
30 21 -15 4.9166 -0.0710
30 21 -12 7.5060 -0.0285
30 21 -9 -8.1547 -0.1188
30 21 -6 -4.1576 -0.1387
30 21 -3 23.2794 0.0315
30 21 0 3.2016 0.2318
30 21 3 0.7836 0.0378
30 21 6 -3.4883 -0.0457
30 21 9 -2.1279 0.0026
30 21 12 -13.3081 0.2829
30 21 15 -3.3063 -0.0056
30 21 18 10.0311 -0.3711
30 21 21 7.4382 -0.0493
30 21 24 -2.6557 -0.0183
30 21 27 -2.1646 0.1134
30 22 -28 -0.0217 -0.0671
30 22 -25 -1.1753 0.0337
30 22 -22 5.3807 0.1655
30 22 -19 -0.4841 0.1491
30 22 -16 -11.2132 -0.0228
30 22 -13 -3.7159 -0.0331
30 22 -10 -13.0947 0.2218
30 22 -7 6.4492 -0.1102
30 22 -4 5.0317 -0.3025
30 22 -1 8.1562 0.0253
30 22 2 -2.2207 0.3439
30 22 5 -13.6914 0.2375
30 22 8 0.4449 -0.2149
30 22 11 0.0555 -0.1412
30 22 14 -11.0801 0.1227
30 22 17 -16.6907 -0.1524
30 22 20 5.8643 -0.2549
30 22 23 -6.8848 -0.0060
30 22 26 -7.3125 0.0745
30 23 -26 6.4450 0.0856
30 23 -23 16.1403 0.0743
30 23 -20 -3.0358 0.0075
30 23 -17 1.2314 0.0041
30 23 -14 -18.5782 -0.0688
30 23 -11 3.2185 0.1645
30 23 -8 -10.0547 0.1879
30 23 -5 -5.5371 -0.0706
30 23 -2 4.9440 -0.0521
30 23 1 2.2240 -0.0302
30 23 4 -12.6424 0.1199
30 23 7 -7.6728 0.0373
30 23 10 5.6411 -0.4423
30 23 13 -3.0829 0.0064
30 23 16 -4.8443 0.2201
30 23 19 1.6483 0.0459
30 23 22 -13.0823 0.1886
30 23 25 -10.8118 -0.1098
30 24 -24 6.7406 -0.0708
30 24 -21 -0.9120 -0.0999
30 24 -18 0.8141 -0.0961
30 24 -15 9.8963 0.0971
30 24 -12 8.1991 0.0579
30 24 -9 1.7345 0.0203
30 24 -6 5.7183 0.1338
30 24 -3 -7.3391 0.0056
30 24 0 -12.2327 -0.2140
30 24 3 9.3719 -0.1204
30 24 6 -2.9011 0.1197
30 24 9 5.9590 0.1154
30 24 12 -3.6343 -0.1066
30 24 15 -1.6133 0.0614
30 24 18 2.1131 0.1352
30 24 21 -1.3663 0.0437
30 24 24 8.6835 -0.1883
30 25 -25 7.6179 -0.0950
30 25 -22 -5.2629 0.0452
30 25 -19 -4.6206 0.2278
30 25 -16 -3.6278 -0.1269
30 25 -13 3.7562 -0.0649
30 25 -10 7.7851 0.0036
30 25 -7 8.1289 0.1086
30 25 -4 11.3099 0.1830
30 25 -1 -2.1829 -0.1827
30 25 2 11.3576 -0.0443
30 25 5 4.8068 0.1568
30 25 8 16.9150 0.1048
30 25 11 6.2908 0.0927
30 25 14 -2.7338 -0.1634
30 25 17 0.3405 -0.0494
30 25 20 2.5152 0.0382
30 25 23 -10.0838 -0.1443
30 26 -23 17.2252 -0.1222
30 26 -20 -9.5434 0.0302
30 26 -17 -13.6684 0.0961
30 26 -14 -5.8348 -0.1374
30 26 -11 -3.5164 -0.0074
30 26 -8 -4.3102 0.2536
30 26 -5 -2.0359 0.2370
30 26 -2 1.8375 0.0509
30 26 1 6.2961 -0.1241
30 26 4 11.7761 -0.1031
30 26 7 1.7783 0.0513
30 26 10 0.0114 -0.0323
30 26 13 -11.2325 -0.0798
30 26 16 -0.8229 -0.0553
30 26 19 -4.4581 -0.0858
30 26 22 -7.2470 0.2113
30 27 -21 -2.5281 0.0896
30 27 -18 -6.2184 0.0288
30 27 -15 6.8297 0.0538
30 27 -12 6.5894 -0.0902
30 27 -9 -6.7089 -0.0095
30 27 -6 -13.8013 0.0192
30 27 -3 3.6564 -0.0730
30 27 0 -0.0015 0.1776
30 27 3 0.5466 -0.0656
30 27 6 5.3996 -0.0856
30 27 9 2.5497 0.0513
30 27 12 11.6387 -0.1012
30 27 15 -10.9266 0.1358
30 27 18 10.9007 -0.1465
30 27 21 -6.7935 -0.0339
30 28 -19 -8.3696 -0.0351
30 28 -16 -0.1820 -0.0051
30 28 -13 -9.1753 0.0347
30 28 -10 -13.1285 -0.0155
30 28 -7 -7.3020 0.0333
30 28 -4 11.5748 -0.1257
30 28 -1 -7.5889 0.0801
30 28 2 -6.6002 0.1094
30 28 5 -11.7979 -0.1117
30 28 8 -17.6869 0.0985
30 28 11 0.7658 0.0376
30 28 14 0.5975 0.1372
30 28 17 -18.3984 0.1477
30 28 20 3.4351 -0.1465
30 29 -17 19.6673 0.0609
30 29 -14 -7.2224 0.0240
30 29 -11 7.0396 0.1449
30 29 -8 4.2066 0.0956
30 29 -5 -15.6413 -0.1172
30 29 -2 -4.2763 -0.0545
30 29 1 -14.4356 0.0379
30 29 4 5.8701 0.0580
30 29 7 -0.0282 -0.0770
30 29 10 -5.0080 -0.0734
30 29 13 -5.9320 0.0859
30 29 16 9.4883 0.1058
30 29 19 10.5587 -0.1908
30 30 0 -0.0523 0.0849
30 30 3 5.8991 -0.0940
30 30 6 1.8741 -0.0723
30 30 9 1.0512 -0.0887
30 30 12 -1.2020 -0.1233
31 0 -38 -0.7624 0.1247
31 0 -32 15.8527 0.1998
31 0 -26 -3.3627 -0.4316
31 0 -20 -5.8082 -0.3378
31 0 -14 -0.1890 1.5881
31 0 -8 4.8991 -0.6497
31 0 -2 -5.7489 -1.1688
31 0 4 -5.3114 -1.6143
31 0 10 3.9836 2.7519
31 0 16 0.8469 0.9793
31 0 22 15.2378 -1.6318
31 0 28 -16.8391 -0.0275
31 0 34 -12.0100 0.0499
31 0 40 14.3316 0.2808
31 1 -39 2.4031 -0.0503
31 1 -36 -2.5349 0.1207
31 1 -33 4.9150 0.1527
31 1 -30 3.5762 0.1859
31 1 -27 -17.6097 -0.2370
31 1 -24 2.8966 0.5775
31 1 -21 -2.1701 0.4045
31 1 -18 -7.9438 -0.5965
31 1 -15 10.9835 -0.0987
31 1 -12 2.2097 -0.1321
31 1 -9 6.9548 -0.5863
31 1 -6 15.1549 -0.5884
31 1 -3 18.6914 0.3484
31 1 0 6.5842 0.8942
31 1 3 0.7086 0.6293
31 1 6 3.3854 0.0988
31 1 9 -7.9296 1.5638
31 1 12 1.8142 0.6290
31 1 15 2.4790 -1.8109
31 1 18 -7.1526 -0.4720
31 1 21 -12.0065 0.3771
31 1 24 10.6582 0.1715
31 1 27 -3.8653 -0.4792
31 1 30 10.2911 -0.2029
31 1 33 -0.0765 0.6044
31 1 36 6.3195 0.1438
31 1 39 6.1033 -0.0334
31 2 -40 -12.2552 -0.2090
31 2 -37 -1.8554 0.0052
31 2 -34 6.9229 -0.0290
31 2 -31 2.2553 0.2118
31 2 -28 4.7679 -0.0904
31 2 -25 -2.4652 -0.0177
31 2 -22 3.8437 -0.0469
31 2 -19 1.6426 -0.5589
31 2 -16 1.6155 0.1486
31 2 -13 2.5813 -0.0884
31 2 -10 -1.9147 0.4502
31 2 -7 -0.3063 0.4102
31 2 -4 1.7097 0.3045
31 2 -1 2.4031 0.5794
31 2 2 -4.6112 -0.6804
31 2 5 -1.1943 -0.5658
31 2 8 0.6983 -0.7697
31 2 11 1.9631 -0.3276
31 2 14 -2.8778 0.1232
31 2 17 5.4952 -0.0979
31 2 20 -7.6954 0.3354
31 2 23 -6.1407 0.1113
31 2 26 0.3474 -0.0839
31 2 29 1.9453 -0.0531
31 2 32 -0.4310 0.0125
31 2 35 -7.7871 0.0062
31 2 38 10.5015 0.0324
31 3 -38 -2.4303 0.0009
31 3 -35 9.6861 -0.0351
31 3 -32 7.0846 -0.1301
31 3 -29 2.0023 0.0511
31 3 -26 13.1337 -0.0393
31 3 -23 1.3734 0.0173
31 3 -20 -0.2468 -0.2213
31 3 -17 5.1140 0.2219
31 3 -14 0.0205 0.3423
31 3 -11 -5.2988 -0.1860
31 3 -8 -0.5370 0.2817
31 3 -5 6.7288 0.1841
31 3 -2 1.1118 -0.2479
31 3 1 -20.7674 -0.4204
31 3 4 1.7083 -0.6343
31 3 7 3.6722 0.2892
31 3 10 8.8458 -0.4410
31 3 13 -5.8889 0.0820
31 3 16 5.2610 1.0358
31 3 19 -2.7135 0.0292
31 3 22 4.9305 -0.0058
31 3 25 -12.0286 0.0063
31 3 28 -8.5328 -0.1947
31 3 31 -17.2639 0.0105
31 3 34 -3.0384 -0.2417
31 3 37 -2.9264 0.1071
31 3 40 -12.7802 0.3375
31 4 -39 1.4744 0.0883
31 4 -36 4.7020 -0.0356
31 4 -33 -1.4760 0.1127
31 4 -30 6.0192 -0.0490
31 4 -27 -1.3632 0.1398
31 4 -24 1.8582 0.0450
31 4 -21 -4.4554 -0.5124
31 4 -18 -9.5619 0.0865
31 4 -15 -5.1247 0.1656
31 4 -12 -6.0255 -0.3664
31 4 -9 -2.4587 0.2721
31 4 -6 11.1034 -0.1320
31 4 -3 -7.4317 0.3556
31 4 0 -8.8693 0.3225
31 4 3 -7.6525 -0.4293
31 4 6 -1.8355 0.1872
31 4 9 6.8367 -0.0050
31 4 12 -4.0898 -0.0032
31 4 15 1.3604 0.4336
31 4 18 -2.3922 -0.1082
31 4 21 4.4487 -0.0657
31 4 24 0.1135 -0.1732
31 4 27 -10.0511 0.0545
31 4 30 20.6439 -0.0169
31 4 33 -6.1855 -0.0665
31 4 36 -3.5409 -0.1669
31 4 39 6.5165 0.0894
31 5 -37 -1.5315 -0.0926
31 5 -34 16.8596 -0.0151
31 5 -31 3.2493 -0.0173
31 5 -28 -6.5236 0.0436
31 5 -25 -5.5792 0.0153
31 5 -22 -3.9853 0.2400
31 5 -19 1.6039 0.1081
31 5 -16 -5.2549 0.0304
31 5 -13 14.7578 -0.2381
31 5 -10 -2.2295 -0.1758
31 5 -7 2.3704 0.1444
31 5 -4 2.2864 -0.8005
31 5 -1 7.4356 -0.3239
31 5 2 -6.6332 0.4178
31 5 5 -2.7555 0.3080
31 5 8 0.4808 0.3942
31 5 11 -15.0622 -0.2830
31 5 14 4.4562 0.1311
31 5 17 -5.8483 0.0958
31 5 20 6.2343 -0.7493
31 5 23 2.8939 -0.0002
31 5 26 -2.1837 0.2490
31 5 29 -1.3721 -0.1159
31 5 32 0.0019 0.0913
31 5 35 1.6862 -0.0538
31 5 38 5.0827 -0.0710
31 6 -38 13.5251 -0.0028
31 6 -35 -1.1570 -0.0292
31 6 -32 -8.8021 0.0381
31 6 -29 -5.6250 -0.0232
31 6 -26 4.6198 -0.0491
31 6 -23 22.3151 0.0781
31 6 -20 0.4485 0.0529
31 6 -17 -1.3336 -0.0756
31 6 -14 -16.0041 -0.2838
31 6 -11 -0.8065 -0.1913
31 6 -8 2.1588 -0.2525
31 6 -5 -0.7397 0.1284
31 6 -2 4.8470 0.5398
31 6 1 4.7198 -0.1964
31 6 4 -0.0195 0.5208
31 6 7 -3.2761 0.2275
31 6 10 4.3965 0.0592
31 6 13 -14.1469 -0.4885
31 6 16 -9.2713 -0.5265
31 6 19 -8.3251 0.4709
31 6 22 -5.9205 0.0928
31 6 25 14.9310 0.0031
31 6 28 3.8344 -0.0302
31 6 31 2.5201 0.1102
31 6 34 -3.7305 0.1027
31 6 37 4.1265 -0.1641
31 7 -36 14.5787 0.0699
31 7 -33 -3.7232 0.0123
31 7 -30 14.2616 -0.0973
31 7 -27 19.2183 -0.2046
31 7 -24 -15.5617 0.0123
31 7 -21 -1.9756 -0.2262
31 7 -18 -12.0723 0.1700
31 7 -15 -8.5381 0.1618
31 7 -12 -14.7823 -0.0168
31 7 -9 -2.2204 0.2534
31 7 -6 2.4211 -0.1759
31 7 -3 8.0551 0.1522
31 7 0 3.9268 -0.4791
31 7 3 -14.3150 -0.3214
31 7 6 -3.2700 0.4242
31 7 9 -10.7872 -0.0202
31 7 12 -6.4030 -0.0900
31 7 15 5.9757 -0.0770
31 7 18 14.7539 0.4455
31 7 21 1.3196 0.2094
31 7 24 -12.4394 -0.3577
31 7 27 -15.2195 0.1139
31 7 30 4.8328 -0.0481
31 7 33 2.5859 0.1409
31 7 36 0.8268 -0.0362
31 8 -37 2.3412 0.0277
31 8 -34 1.8252 0.0952
31 8 -31 -5.1047 0.0853
31 8 -28 -9.5950 0.1035
31 8 -25 -13.4257 0.0871
31 8 -22 15.0642 -0.0493
31 8 -19 0.1221 -0.2342
31 8 -16 5.7944 -0.1349
31 8 -13 -1.7243 -0.0038
31 8 -10 8.7720 0.1845
31 8 -7 -9.2299 -0.0809
31 8 -4 -3.7941 -0.0674
31 8 -1 -9.5793 0.2791
31 8 2 -4.7551 0.2635
31 8 5 -7.5941 -0.3605
31 8 8 4.9631 -0.3894
31 8 11 -3.8686 0.2816
31 8 14 3.4588 0.5425
31 8 17 7.5901 -0.2799
31 8 20 -2.9947 -0.1437
31 8 23 -21.8255 -0.0066
31 8 26 7.0488 0.0726
31 8 29 12.5643 -0.0618
31 8 32 -3.1048 -0.1187
31 8 35 8.0186 0.1578
31 9 -35 12.7882 0.1342
31 9 -32 0.0739 -0.0143
31 9 -29 6.8174 0.0287
31 9 -26 8.5450 0.0757
31 9 -23 16.1800 -0.2919
31 9 -20 3.3664 -0.0672
31 9 -17 -8.0858 -0.1958
31 9 -14 -3.6831 -0.0398
31 9 -11 3.4537 0.0729
31 9 -8 1.1078 0.2411
31 9 -5 8.7758 0.3725
31 9 -2 -7.2598 -0.2028
31 9 1 -5.1141 0.2133
31 9 4 1.5721 -0.0223
31 9 7 -1.2268 -0.3700
31 9 10 3.2499 0.0887
31 9 13 -4.2929 -0.0283
31 9 16 -4.5405 0.2958
31 9 19 -8.1789 -0.2042
31 9 22 0.2028 -0.1961
31 9 25 3.8618 0.2899
31 9 28 -9.2575 0.0870
31 9 31 2.3966 -0.0269
31 9 34 -0.5262 -0.0671
31 9 37 7.2555 0.0136
31 10 -36 -6.4611 0.0253
31 10 -33 -2.3499 0.0361
31 10 -30 -20.2178 -0.0706
31 10 -27 10.8688 0.0492
31 10 -24 8.7325 0.1482
31 10 -21 -2.2122 0.1265
31 10 -18 -15.1480 -0.0125
31 10 -15 -2.2288 -0.3388
31 10 -12 10.0775 -0.0313
31 10 -9 0.4740 -0.1639
31 10 -6 -7.0300 -0.2019
31 10 -3 -5.4675 0.2297
31 10 0 -0.6824 0.3771
31 10 3 14.3738 0.3802
31 10 6 -3.8308 -0.1676
31 10 9 -18.3382 -0.2471
31 10 12 -14.3563 -0.0375
31 10 15 7.2355 -0.3019
31 10 18 -2.3630 -0.1878
31 10 21 19.5097 0.0669
31 10 24 7.6225 0.2689
31 10 27 -0.3461 0.2191
31 10 30 3.7201 -0.1008
31 10 33 9.0095 -0.0020
31 10 36 -1.9896 0.0423
31 11 -34 -0.7804 0.1272
31 11 -31 -1.0772 0.1291
31 11 -28 3.5271 -0.0779
31 11 -25 -11.8007 -0.0483
31 11 -22 -11.4965 -0.0278
31 11 -19 9.6199 -0.2140
31 11 -16 -4.7339 -0.0259
31 11 -13 -7.3190 -0.0293
31 11 -10 -10.0390 -0.0210
31 11 -7 -5.5112 0.3889
31 11 -4 -4.7367 0.1469
31 11 -1 17.0124 -0.0972
31 11 2 4.7379 -0.2875
31 11 5 0.6357 -0.1608
31 11 8 -0.5104 0.1505
31 11 11 15.6919 -0.1926
31 11 14 3.4675 -0.1330
31 11 17 11.4030 0.4137
31 11 20 -1.3701 0.3378
31 11 23 0.6589 -0.1046
31 11 26 5.2927 -0.0532
31 11 29 5.8345 -0.2016
31 11 32 -21.4574 -0.1551
31 11 35 2.9321 0.1872
31 12 -35 4.9338 0.1555
31 12 -32 0.4344 -0.0089
31 12 -29 7.3910 -0.1767
31 12 -26 9.5918 -0.1486
31 12 -23 -7.0320 -0.0077
31 12 -20 -10.2317 0.2668
31 12 -17 3.9577 0.0890
31 12 -14 4.4113 -0.0386
31 12 -11 -0.4557 0.0945
31 12 -8 -7.0721 -0.0081
31 12 -5 -10.0738 -0.1316
31 12 -2 -0.3052 -0.3500
31 12 1 7.2300 -0.5114
31 12 4 -16.3217 0.1520
31 12 7 -0.3181 0.6313
31 12 10 7.0442 0.0464
31 12 13 -3.7867 -0.0923
31 12 16 -8.5290 0.0593
31 12 19 4.1640 0.2406
31 12 22 3.7621 -0.1827
31 12 25 -11.4793 -0.5435
31 12 28 0.4503 0.0080
31 12 31 13.2896 0.1289
31 12 34 -7.9508 0.0974
31 13 -33 0.9232 0.1512
31 13 -30 14.2974 0.1122
31 13 -27 15.2549 0.0547
31 13 -24 5.4615 -0.0990
31 13 -21 2.7247 -0.1130
31 13 -18 13.8406 0.2392
31 13 -15 6.9460 -0.2350
31 13 -12 1.1255 -0.3996
31 13 -9 -4.1815 0.0852
31 13 -6 -2.4411 0.2447
31 13 -3 -7.4472 0.1228
31 13 0 12.1978 0.0772
31 13 3 -7.9308 0.1497
31 13 6 6.0633 0.3926
31 13 9 4.3495 -0.1475
31 13 12 -6.5868 -0.0939
31 13 15 -0.9476 -0.0396
31 13 18 2.9769 -0.2339
31 13 21 -11.2904 -0.0666
31 13 24 6.3408 -0.1631
31 13 27 9.0384 0.2317
31 13 30 -0.2189 0.2959
31 13 33 3.6312 -0.1667
31 14 -34 -6.8776 0.0070
31 14 -31 11.1354 0.0546
31 14 -28 -1.5240 0.0590
31 14 -25 4.3656 -0.0620
31 14 -22 -7.8809 -0.4394
31 14 -19 9.8695 0.0477
31 14 -16 9.0893 0.2012
31 14 -13 5.6358 -0.0698
31 14 -10 -2.5481 0.1543
31 14 -7 7.6427 0.1865
31 14 -4 -2.0443 0.2033
31 14 -1 -16.5434 -0.1674
31 14 2 -6.2714 -0.0425
31 14 5 17.1960 -0.0831
31 14 8 6.9221 -0.3749
31 14 11 -5.9625 -0.0363
31 14 14 -0.8402 0.2081
31 14 17 5.1145 0.1090
31 14 20 16.7487 -0.0622
31 14 23 1.0146 0.0936
31 14 26 3.3363 0.2936
31 14 29 9.2323 -0.0507
31 14 32 -7.6384 -0.1938
31 15 -32 -6.7704 0.0348
31 15 -29 -2.4226 0.0622
31 15 -26 1.3905 0.2310
31 15 -23 3.8907 0.0168
31 15 -20 3.6782 0.0463
31 15 -17 0.3988 0.0431
31 15 -14 7.6138 -0.1077
31 15 -11 8.3984 -0.1688
31 15 -8 -9.1126 -0.3548
31 15 -5 -6.5205 0.0940
31 15 -2 -2.2901 0.2567
31 15 1 -3.5327 -0.1948
31 15 4 7.0419 -0.0472
31 15 7 16.1112 0.0321
31 15 10 22.8206 0.1925
31 15 13 -2.0120 0.1699
31 15 16 1.2072 -0.1825
31 15 19 -1.0378 0.1001
31 15 22 -8.8079 0.1586
31 15 25 0.3154 0.0016
31 15 28 -14.2751 -0.0914
31 15 31 1.3601 -0.2224
31 16 -30 10.5929 -0.1342
31 16 -27 -7.6498 0.0390
31 16 -24 1.7277 0.1484
31 16 -21 8.4378 -0.0179
31 16 -18 0.4652 -0.0507
31 16 -15 4.4202 -0.1970
31 16 -12 0.2289 0.1467
31 16 -9 3.0331 0.0877
31 16 -6 7.0444 -0.1263
31 16 -3 8.9401 0.1247
31 16 0 -5.3522 0.1103
31 16 3 3.1115 0.0218
31 16 6 -8.5345 0.0209
31 16 9 5.9551 -0.0345
31 16 12 7.4850 0.2416
31 16 15 -6.7661 -0.1761
31 16 18 2.5618 -0.0850
31 16 21 -10.9092 0.0871
31 16 24 -7.7292 -0.1343
31 16 27 7.5255 0.0058
31 16 30 6.4230 -0.0531
31 17 -31 2.8517 0.0359
31 17 -28 1.2259 -0.2175
31 17 -25 -9.0345 0.0204
31 17 -22 -5.6516 0.2560
31 17 -19 -3.3712 -0.0653
31 17 -16 -5.4635 0.0571
31 17 -13 -5.2612 0.1392
31 17 -10 7.7963 -0.0127
31 17 -7 3.3272 -0.1798
31 17 -4 15.4516 -0.2230
31 17 -1 -3.3993 -0.0856
31 17 2 8.7167 0.1479
31 17 5 -6.5653 0.1196
31 17 8 -0.0460 0.0433
31 17 11 15.0307 -0.0895
31 17 14 0.6987 -0.0110
31 17 17 -7.8395 0.0159
31 17 20 -25.8522 -0.0291
31 17 23 -6.3004 -0.0710
31 17 26 10.8778 -0.1044
31 17 29 4.4053 0.2214
31 17 32 -8.2474 0.1738
31 18 -29 0.6945 0.0175
31 18 -26 -13.3546 -0.0170
31 18 -23 16.6150 0.0674
31 18 -20 1.7879 -0.0472
31 18 -17 -2.4416 -0.2431
31 18 -14 0.1964 -0.0183
31 18 -11 -17.7336 0.1100
31 18 -8 -11.1118 -0.0698
31 18 -5 -10.4713 -0.0176
31 18 -2 -3.6261 -0.0689
31 18 1 1.6608 0.1394
31 18 4 -1.5038 0.0272
31 18 7 -6.8840 -0.0897
31 18 10 6.5862 -0.0917
31 18 13 4.9965 -0.1558
31 18 16 15.7476 0.1332
31 18 19 -7.1174 0.0300
31 18 22 -15.8781 -0.0427
31 18 25 7.4657 0.0365
31 18 28 10.5700 0.0791
31 18 31 8.6962 0.1582
31 19 -30 0.4649 -0.0154
31 19 -27 0.5603 -0.0714
31 19 -24 3.1002 -0.0478
31 19 -21 -6.3601 0.0812
31 19 -18 7.3206 0.1657
31 19 -15 5.8613 -0.1776
31 19 -12 -5.3528 0.0836
31 19 -9 -1.3080 0.2656
31 19 -6 -15.3699 0.0154
31 19 -3 11.8523 -0.0914
31 19 0 -9.2678 -0.0857
31 19 3 -0.6252 0.0240
31 19 6 1.0951 0.0029
31 19 9 10.8798 -0.1527
31 19 12 5.4389 -0.0179
31 19 15 -5.2237 0.2345
31 19 18 -3.1353 0.0695
31 19 21 -15.8697 -0.1156
31 19 24 -2.9088 -0.0824
31 19 27 8.2468 -0.1320
31 19 30 -3.8051 -0.0520
31 20 -28 -2.9431 0.0054
31 20 -25 -9.2204 -0.0232
31 20 -22 -9.5449 -0.0647
31 20 -19 9.5451 0.1716
31 20 -16 8.7519 -0.0154
31 20 -13 4.2892 -0.3805
31 20 -10 9.1371 -0.0184
31 20 -7 7.1492 0.1674
31 20 -4 6.1721 0.0010
31 20 -1 2.8291 -0.1523
31 20 2 1.3627 -0.1353
31 20 5 -6.1526 0.1633
31 20 8 -12.0863 0.0505
31 20 11 -11.8039 -0.1114
31 20 14 -6.4521 0.1169
31 20 17 -2.7476 -0.0110
31 20 20 16.9293 -0.0142
31 20 23 -5.7340 -0.1234
31 20 26 -0.1001 0.0022
31 20 29 -9.2740 0.0872
31 21 -26 10.8994 -0.0507
31 21 -23 10.7322 -0.1010
31 21 -20 -14.7829 -0.0699
31 21 -17 -0.8592 -0.0555
31 21 -14 8.8012 0.0428
31 21 -11 -19.2640 -0.0807
31 21 -8 -0.5105 -0.1320
31 21 -5 -3.9843 0.1108
31 21 -2 6.3936 0.1630
31 21 1 15.2652 0.0384
31 21 4 -7.1690 -0.0293
31 21 7 4.2236 0.0224
31 21 10 -0.0297 0.0766
31 21 13 -11.6890 -0.2201
31 21 16 15.9366 -0.2607
31 21 19 -2.4153 -0.0916
31 21 22 10.1331 0.1269
31 21 25 -2.7488 0.1398
31 21 28 -6.8704 0.0015
31 22 -27 -1.0388 -0.0003
31 22 -24 0.3164 0.1083
31 22 -21 6.4206 -0.0329
31 22 -18 16.9034 -0.0546
31 22 -15 10.1555 -0.0900
31 22 -12 4.3551 0.1918
31 22 -9 -9.4165 -0.0891
31 22 -6 5.2577 -0.0921
31 22 -3 -9.9336 0.2113
31 22 0 15.1588 0.0428
31 22 3 -3.1673 -0.0321
31 22 6 3.2144 -0.1677
31 22 9 -0.2148 -0.0515
31 22 12 -11.0746 -0.0729
31 22 15 11.0678 0.0172
31 22 18 -4.9671 0.0621
31 22 21 -3.2009 0.1519
31 22 24 -5.8556 0.0619
31 22 27 -5.8541 -0.2545
31 23 -25 12.6564 0.0737
31 23 -22 -0.5901 -0.0948
31 23 -19 4.2370 -0.1881
31 23 -16 13.1475 -0.0212
31 23 -13 16.3799 0.0346
31 23 -10 -3.1812 0.0317
31 23 -7 -1.4237 -0.0289
31 23 -4 13.7435 0.0158
31 23 -1 -3.7034 0.0707
31 23 2 -12.8727 -0.1305
31 23 5 -10.3991 -0.0507
31 23 8 2.0900 0.0047
31 23 11 -10.1350 0.0571
31 23 14 -17.9973 0.1403
31 23 17 4.1078 0.0659
31 23 20 15.5071 0.0770
31 23 23 -7.1898 0.0263
31 23 26 0.3674 -0.0386
31 24 -23 2.8113 -0.0527
31 24 -20 -1.4323 0.1214
31 24 -17 0.9972 0.0187
31 24 -14 -1.7798 0.0549
31 24 -11 -3.2498 -0.1731
31 24 -8 6.1578 0.0703
31 24 -5 2.0183 0.0608
31 24 -2 1.8352 -0.1597
31 24 1 0.4598 -0.0244
31 24 4 12.2023 0.1370
31 24 7 4.5974 0.0336
31 24 10 -7.1437 0.1293
31 24 13 -0.7388 -0.1580
31 24 16 5.0956 0.0587
31 24 19 1.0582 -0.0544
31 24 22 -0.4864 -0.2033
31 24 25 5.5142 0.1545
31 25 -21 21.7282 -0.0492
31 25 -18 1.8317 -0.0037
31 25 -15 3.7202 -0.0009
31 25 -12 11.0891 -0.0259
31 25 -9 0.1128 0.0093
31 25 -6 -7.6373 0.1684
31 25 -3 0.5995 -0.0648
31 25 0 10.7145 -0.0986
31 25 3 10.8946 0.0493
31 25 6 -3.7788 -0.1188
31 25 9 7.7422 -0.0830
31 25 12 4.4680 -0.0372
31 25 15 -5.6926 0.0142
31 25 18 -4.2664 0.1821
31 25 21 2.8093 -0.1541
31 26 -22 6.0741 -0.0077
31 26 -19 -0.3413 -0.0613
31 26 -16 17.5661 0.1252
31 26 -13 0.2925 -0.0174
31 26 -10 -4.5929 -0.0458
31 26 -7 -0.1100 0.0277
31 26 -4 -6.4245 0.0231
31 26 -1 -12.0443 -0.0287
31 26 2 -12.5373 -0.1187
31 26 5 -18.9151 -0.0179
31 26 8 -0.0679 -0.0009
31 26 11 -3.1411 -0.0698
31 26 14 20.8402 0.0114
31 26 17 3.3607 0.1160
31 26 20 -3.9176 0.1199
31 27 -20 -11.0930 -0.0148
31 27 -17 2.3029 -0.0250
31 27 -14 7.5890 0.0385
31 27 -11 1.4462 -0.1525
31 27 -8 -2.7632 -0.0494
31 27 -5 -9.1218 -0.0990
31 27 -2 0.6514 0.1906
31 27 1 3.0722 0.0207
31 27 4 2.9760 -0.0225
31 27 7 -4.3654 0.1362
31 27 10 0.0654 -0.0369
31 27 13 -2.9332 -0.0400
31 27 16 -3.0191 -0.0240
31 27 19 7.4881 0.0009
31 28 -18 -17.1435 -0.0564
31 28 -15 6.7894 0.0715
31 28 -12 -4.4725 0.1307
31 28 -9 -9.9332 -0.0722
31 28 -6 -9.9057 -0.1479
31 28 -3 -3.0455 -0.0361
31 28 0 -9.3045 0.0382
31 28 3 2.9586 0.1514
31 28 6 3.4026 0.0734
31 28 9 -17.8519 0.1173
31 28 12 9.8629 0.0213
31 28 15 4.7003 -0.1089
31 28 18 -2.1203 -0.1049
31 29 -16 16.5643 -0.1567
31 29 -13 -19.2608 0.0698
31 29 -10 -6.1667 0.1056
31 29 -7 -5.1452 -0.1674
31 29 -4 6.7663 -0.0820
31 29 -1 -7.7772 -0.0661
31 29 2 -1.7613 0.1732
31 29 5 -9.2283 -0.0326
31 29 8 11.7466 -0.1555
31 29 11 7.1905 0.1342
31 29 14 -5.3122 -0.0885
31 29 17 -4.6839 -0.0633
31 30 -14 -5.3632 -0.0989
31 30 -11 21.3676 0.0303
31 30 -8 -0.9780 0.1013
31 30 -5 7.3970 0.0599
31 30 -2 -7.8609 -0.1793
31 30 1 -7.7541 -0.0549
31 30 4 6.4310 0.0824
31 30 7 18.5919 -0.1209
31 30 10 20.0385 -0.0595
31 30 13 21.0559 0.0097
31 31 0 9.4364 -0.3463
31 31 3 -11.7307 0.1103
31 31 6 -19.6980 0.3735
31 31 9 7.2006 0.0507
31 31 12 10.5144 -0.1104
32 0 -40 -12.6255 -0.1337
32 0 -34 0.7734 -0.2887
32 0 -28 3.8455 0.3223
32 0 -22 -5.6027 1.6655
32 0 -16 -10.4772 -0.2239
32 0 -10 4.9440 -3.1462
32 0 -4 2.4398 -1.7323
32 0 2 6.1686 4.0106
32 0 8 4.9302 2.8832
32 0 14 2.2479 -1.5203
32 0 20 12.5406 -2.5544
32 0 26 -10.2883 0.6495
32 0 32 13.7120 0.5336
32 0 38 -0.1529 0.1809
32 1 -38 -0.5983 0.0493
32 1 -35 2.1270 -0.0202
32 1 -32 3.2533 -0.0517
32 1 -29 -8.9566 0.1389
32 1 -26 -6.3678 -0.0535
32 1 -23 -5.9610 -0.4383
32 1 -20 -9.6982 -0.1198
32 1 -17 7.6580 -0.0075
32 1 -14 -5.6590 0.2347
32 1 -11 6.2845 -0.3448
32 1 -8 7.7383 -0.2693
32 1 -5 12.6017 1.0602
32 1 -2 0.7897 0.2540
32 1 1 -1.4853 0.0173
32 1 4 12.5005 -0.0116
32 1 7 -5.9330 -0.5982
32 1 10 -4.2766 0.0232
32 1 13 -1.4159 -1.2948
32 1 16 4.1044 -0.2263
32 1 19 1.2401 1.1708
32 1 22 -10.3143 0.1477
32 1 25 1.5834 -0.2633
32 1 28 -12.5101 -0.1738
32 1 31 -6.5652 0.1321
32 1 34 -7.7565 0.0747
32 1 37 -6.7102 -0.4575
32 1 40 17.5298 0.0997
32 2 -39 -8.4042 -0.0728
32 2 -36 5.5107 0.0171
32 2 -33 3.9978 -0.0447
32 2 -30 3.4932 0.0580
32 2 -27 1.4094 -0.0269
32 2 -24 -0.7001 -0.0649
32 2 -21 -0.2815 0.0541
32 2 -18 1.8124 0.2371
32 2 -15 -2.7947 0.4286
32 2 -12 -7.2722 0.2109
32 2 -9 4.2977 -0.0724
32 2 -6 -1.1068 -0.0147
32 2 -3 -1.7767 -0.6982
32 2 0 1.2356 -1.1880
32 2 3 -7.8864 -0.3841
32 2 6 4.5826 0.2277
32 2 9 -2.5424 -0.1931
32 2 12 2.3928 0.6094
32 2 15 -10.1374 0.7940
32 2 18 0.9946 0.3847
32 2 21 1.9966 -0.0798
32 2 24 5.2422 -0.3839
32 2 27 10.9283 0.0114
32 2 30 0.1440 -0.2115
32 2 33 -4.0932 -0.0155
32 2 36 1.8215 -0.1162
32 2 39 1.6972 -0.0643
32 3 -37 4.8265 -0.0970
32 3 -34 -2.5334 -0.0598
32 3 -31 3.3002 -0.0298
32 3 -28 -2.8460 0.0946
32 3 -25 -10.0916 0.0621
32 3 -22 3.3941 0.1038
32 3 -19 -0.6386 -0.0593
32 3 -16 7.2586 0.0844
32 3 -13 -5.0578 -0.0043
32 3 -10 -2.2512 -0.3295
32 3 -7 -1.0645 0.1147
32 3 -4 3.0738 -0.1912
32 3 -1 -1.5715 0.4252
32 3 2 10.8217 0.0832
32 3 5 -5.2635 -0.1126
32 3 8 -10.1647 0.2602
32 3 11 -2.0873 -0.2373
32 3 14 -5.4668 0.4061
32 3 17 3.2414 -0.0828
32 3 20 -4.6967 -0.0214
32 3 23 -3.2717 0.0854
32 3 26 6.8922 -0.1215
32 3 29 -4.5546 0.0563
32 3 32 -6.2765 -0.0504
32 3 35 16.2004 0.0326
32 3 38 4.5935 -0.0309
32 4 -38 7.7467 -0.0932
32 4 -35 2.7392 0.0703
32 4 -32 3.0945 -0.0322
32 4 -29 -12.3399 -0.0530
32 4 -26 -3.5214 -0.0364
32 4 -23 -6.2368 0.0631
32 4 -20 -12.4959 0.1016
32 4 -17 -13.4770 -0.3035
32 4 -14 -13.4531 -0.2013
32 4 -11 5.5121 0.0652
32 4 -8 1.1898 -0.1628
32 4 -5 2.4544 -0.2654
32 4 -2 3.5057 0.3293
32 4 1 -6.0709 0.3712
32 4 4 16.4063 -0.0178
32 4 7 8.0421 0.0766
32 4 10 2.7036 -0.0467
32 4 13 9.6964 -0.0715
32 4 16 5.3000 -0.6082
32 4 19 19.5558 -0.1010
32 4 22 6.7878 0.1222
32 4 25 2.2239 0.2491
32 4 28 6.1964 0.1813
32 4 31 9.0468 -0.1422
32 4 34 -13.7690 0.1622
32 4 37 4.2306 -0.1047
32 5 -36 7.3562 -0.0182
32 5 -33 9.7772 0.0870
32 5 -30 6.2674 0.1415
32 5 -27 2.5468 -0.0540
32 5 -24 9.7219 0.1133
32 5 -21 4.0075 0.5019
32 5 -18 -0.9470 -0.2498
32 5 -15 2.2514 -0.3407
32 5 -12 0.6516 -0.1256
32 5 -9 1.6211 -0.1055
32 5 -6 -5.6624 -0.3221
32 5 -3 -1.8802 -0.2577
32 5 0 -2.7929 1.0447
32 5 3 -13.4028 0.6165
32 5 6 -6.6118 -0.5219
32 5 9 17.8225 0.0069
32 5 12 5.3420 0.0356
32 5 15 4.8426 -0.3949
32 5 18 -3.2698 -0.4687
32 5 21 12.5223 0.1683
32 5 24 -4.7554 0.4697
32 5 27 18.0993 0.0841
32 5 30 -18.8297 -0.1170
32 5 33 -1.9337 0.1270
32 5 36 -12.8595 0.0486
32 6 -37 5.0780 -0.0348
32 6 -34 7.7365 0.0198
32 6 -31 -3.5874 0.0225
32 6 -28 -0.5612 -0.1174
32 6 -25 -9.9958 -0.0626
32 6 -22 16.7304 0.0360
32 6 -19 14.3173 0.2528
32 6 -16 3.9536 -0.1236
32 6 -13 -2.7798 -0.0837
32 6 -10 1.1710 0.1736
32 6 -7 -1.8548 0.3899
32 6 -4 -21.8414 0.2955
32 6 -1 -3.5961 -0.7145
32 6 2 -0.9347 0.2000
32 6 5 -3.6758 0.3999
32 6 8 4.6112 -0.7452
32 6 11 -26.9725 -0.1827
32 6 14 10.1647 -0.1291
32 6 17 7.8572 0.6173
32 6 20 10.0780 0.1651
32 6 23 -0.5808 -0.5130
32 6 26 -1.4979 0.1712
32 6 29 9.3755 0.1773
32 6 32 3.1349 -0.1443
32 6 35 -1.1751 0.0721
32 6 38 1.0326 -0.0122
32 7 -35 -5.2476 -0.0487
32 7 -32 -6.0976 0.1425
32 7 -29 -4.2104 -0.1736
32 7 -26 11.1117 -0.0354
32 7 -23 27.1677 -0.0659
32 7 -20 0.8455 0.0487
32 7 -17 -4.6430 0.2973
32 7 -14 -16.3004 -0.0355
32 7 -11 0.6797 0.0566
32 7 -8 -14.4008 -0.0310
32 7 -5 3.4186 -0.3576
32 7 -2 2.6358 -0.3800
32 7 1 -0.6101 -0.1502
32 7 4 1.6053 0.3110
32 7 7 9.2642 0.0453
32 7 10 -17.4859 -0.0341
32 7 13 1.9970 0.5416
32 7 16 15.9427 0.0676
32 7 19 -4.5814 -0.1282
32 7 22 8.2039 -0.5399
32 7 25 -3.4239 -0.2245
32 7 28 -7.9915 0.2260
32 7 31 8.7433 -0.1100
32 7 34 -4.9548 0.1252
32 7 37 4.7965 0.0661
32 8 -36 4.5085 0.0015
32 8 -33 -7.1396 0.0799
32 8 -30 13.6287 0.1870
32 8 -27 -10.2425 0.1302
32 8 -24 17.6848 -0.0094
32 8 -21 -7.5738 -0.2853
32 8 -18 0.4437 -0.2152
32 8 -15 -12.0636 0.4536
32 8 -12 15.2905 -0.0488
32 8 -9 6.6497 -0.2907
32 8 -6 4.4699 0.1444
32 8 -3 -2.9652 0.1600
32 8 0 -5.8344 0.2827
32 8 3 -0.1788 -0.3308
32 8 6 2.1030 -0.1373
32 8 9 -10.3498 0.2096
32 8 12 0.1566 0.1739
32 8 15 12.7530 -0.1504
32 8 18 3.7744 -0.2632
32 8 21 -8.6542 0.0061
32 8 24 -15.3937 -0.1615
32 8 27 -14.8783 0.0223
32 8 30 -3.3717 0.0318
32 8 33 5.7900 -0.0187
32 8 36 2.3710 0.1289
32 9 -34 -19.4534 -0.1028
32 9 -31 7.2333 0.0269
32 9 -28 -5.9427 0.0313
32 9 -25 3.0019 0.0360
32 9 -22 -4.8518 0.2637
32 9 -19 -1.8604 -0.0042
32 9 -16 -4.7432 0.0033
32 9 -13 -19.6801 0.1726
32 9 -10 1.3051 -0.1101
32 9 -7 13.8772 -0.1295
32 9 -4 -3.1461 -0.0778
32 9 -1 3.2558 0.2459
32 9 2 -4.1763 -0.0437
32 9 5 6.0184 -0.2577
32 9 8 -12.6907 0.1556
32 9 11 -14.1555 -0.1023
32 9 14 -3.3522 -0.1748
32 9 17 3.8178 0.0282
32 9 20 -8.3564 0.0318
32 9 23 9.5207 0.3995
32 9 26 8.5447 -0.0924
32 9 29 -6.0843 0.0112
32 9 32 2.2123 -0.1875
32 9 35 -2.1559 -0.0436
32 10 -35 8.5139 -0.1573
32 10 -32 -9.5240 0.0955
32 10 -29 -2.9358 0.0695
32 10 -26 4.7394 -0.1494
32 10 -23 -7.3691 0.1490
32 10 -20 -2.0630 -0.0332
32 10 -17 -6.4861 0.0608
32 10 -14 0.8942 -0.0623
32 10 -11 -3.4107 -0.0033
32 10 -8 -7.4085 0.0524
32 10 -5 -11.4633 -0.0109
32 10 -2 -2.4091 0.2052
32 10 1 -5.2189 -0.1017
32 10 4 2.2504 -0.2871
32 10 7 3.2634 -0.1584
32 10 10 1.2379 -0.0840
32 10 13 4.2506 -0.0332
32 10 16 5.6820 -0.0744
32 10 19 12.1724 0.2937
32 10 22 2.9857 0.3806
32 10 25 -1.3849 -0.0491
32 10 28 3.4436 -0.1516
32 10 31 -9.5462 -0.2133
32 10 34 5.6795 -0.0412
32 11 -33 -5.8710 0.0375
32 11 -30 -4.6632 0.0257
32 11 -27 1.0384 -0.1550
32 11 -24 -9.8708 -0.0024
32 11 -21 13.1472 -0.0108
32 11 -18 -3.5703 0.0842
32 11 -15 -3.2102 0.1359
32 11 -12 -2.3289 0.0152
32 11 -9 4.9988 0.2580
32 11 -6 4.4944 -0.1772
32 11 -3 -0.2205 -0.4529
32 11 0 14.5630 -0.3351
32 11 3 -21.4059 0.1554
32 11 6 -6.4996 0.3677
32 11 9 0.8019 -0.1196
32 11 12 9.9465 0.0570
32 11 15 -4.9109 0.3982
32 11 18 -12.2415 0.0113
32 11 21 11.2292 -0.1874
32 11 24 -11.3301 -0.2407
32 11 27 -6.5430 -0.0817
32 11 30 1.2503 0.0144
32 11 33 1.5885 -0.0007
32 12 -34 5.1103 0.0245
32 12 -31 -7.5839 -0.0118
32 12 -28 -1.7988 0.1378
32 12 -25 12.2786 0.1991
32 12 -22 5.4909 0.1533
32 12 -19 -12.0490 0.0294
32 12 -16 -7.5852 -0.0744
32 12 -13 -8.3282 -0.2008
32 12 -10 4.3192 -0.0931
32 12 -7 -2.3316 -0.1753
32 12 -4 -7.2936 0.0161
32 12 -1 -10.1187 0.0162
32 12 2 6.7092 0.2644
32 12 5 6.7599 0.6812
32 12 8 -3.7181 -0.1665
32 12 11 13.3771 -0.3635
32 12 14 -12.5833 -0.0116
32 12 17 9.7928 -0.0264
32 12 20 -3.9396 -0.0163
32 12 23 -5.0213 -0.3163
32 12 26 -6.1142 0.1435
32 12 29 -5.4294 0.6313
32 12 32 -5.4805 -0.0945
32 13 -32 -2.5473 -0.0004
32 13 -29 -9.3374 -0.1372
32 13 -26 -10.6025 0.0463
32 13 -23 19.9624 0.0053
32 13 -20 -5.0571 -0.1553
32 13 -17 9.7548 0.1856
32 13 -14 -5.8190 0.0278
32 13 -11 -14.3138 0.1081
32 13 -8 -6.1073 0.2141
32 13 -5 6.9899 -0.1465
32 13 -2 -1.3258 -0.0154
32 13 1 -12.7097 -0.0609
32 13 4 13.2406 -0.0967
32 13 7 12.3527 -0.0938
32 13 10 -4.9433 -0.2841
32 13 13 -8.2641 0.2330
32 13 16 4.5371 0.0865
32 13 19 -2.2671 -0.1801
32 13 22 -5.4324 0.1053
32 13 25 -9.4277 0.0164
32 13 28 14.6768 0.2269
32 13 31 4.8916 -0.0074
32 13 34 -16.1835 -0.2305
32 14 -33 7.1205 0.0204
32 14 -30 0.1078 0.0326
32 14 -27 0.8556 -0.1883
32 14 -24 12.2269 -0.0368
32 14 -21 -11.0628 0.1280
32 14 -18 -4.6368 0.1032
32 14 -15 -1.0476 0.2062
32 14 -12 -0.8628 0.0223
32 14 -9 -4.4614 -0.2193
32 14 -6 6.7285 -0.0456
32 14 -3 1.1071 -0.1618
32 14 0 0.2637 -0.1868
32 14 3 11.4614 -0.2127
32 14 6 -5.3432 -0.0841
32 14 9 -15.1442 0.3678
32 14 12 -2.6313 0.1208
32 14 15 -1.6161 0.0619
32 14 18 -3.8992 -0.1020
32 14 21 6.9150 0.0790
32 14 24 2.8705 0.0828
32 14 27 1.3349 -0.3667
32 14 30 12.8474 0.0024
32 14 33 6.2107 0.0438
32 15 -31 5.3564 0.1993
32 15 -28 11.5185 0.0648
32 15 -25 21.3345 0.0386
32 15 -22 0.4200 0.0186
32 15 -19 -7.4089 -0.1931
32 15 -16 -4.9213 -0.2529
32 15 -13 -2.8945 -0.0144
32 15 -10 7.4379 -0.0500
32 15 -7 3.7958 0.1296
32 15 -4 3.9801 0.3447
32 15 -1 -10.7927 0.1225
32 15 2 2.2730 -0.0703
32 15 5 -0.9717 0.0232
32 15 8 -12.0056 0.1516
32 15 11 1.1289 0.0207
32 15 14 10.7813 -0.3467
32 15 17 -2.5768 -0.0466
32 15 20 20.5768 0.2187
32 15 23 -10.5442 0.0626
32 15 26 6.6607 -0.1972
32 15 29 -4.1179 -0.0935
32 15 32 -6.3906 0.1452
32 16 -29 1.7199 -0.0238
32 16 -26 8.2200 -0.1126
32 16 -23 -10.4449 0.1666
32 16 -20 10.8705 0.0657
32 16 -17 -14.2694 -0.0559
32 16 -14 28.1941 -0.0124
32 16 -11 17.9805 0.0567
32 16 -8 -18.9024 0.0463
32 16 -5 0.0743 -0.2646
32 16 -2 9.7863 0.0855
32 16 1 3.0502 0.1366
32 16 4 8.3862 -0.0683
32 16 7 -3.8943 -0.0219
32 16 10 -20.9588 -0.0599
32 16 13 -12.4004 -0.0970
32 16 16 1.6485 -0.1038
32 16 19 -3.9625 -0.0227
32 16 22 -9.4751 0.0173
32 16 25 13.9794 -0.0734
32 16 28 16.9999 -0.0232
32 16 31 13.7233 0.0945
32 17 -30 2.1844 0.2307
32 17 -27 4.8226 -0.0022
32 17 -24 6.4330 0.0361
32 17 -21 7.1721 -0.0102
32 17 -18 -3.5457 0.0864
32 17 -15 -1.9606 0.0414
32 17 -12 -6.5469 -0.5174
32 17 -9 13.1471 0.1127
32 17 -6 12.1069 0.0415
32 17 -3 -6.9266 -0.0682
32 17 0 5.9623 0.2398
32 17 3 3.6169 0.0780
32 17 6 3.2942 0.2632
32 17 9 5.7518 -0.2634
32 17 12 -1.8637 -0.2921
32 17 15 -18.0625 0.2533
32 17 18 -9.1228 -0.0360
32 17 21 -6.9998 0.0448
32 17 24 -0.7002 -0.0383
32 17 27 14.4530 0.0536
32 17 30 2.6782 0.2245
32 18 -28 -10.6486 0.0857
32 18 -25 4.1174 -0.1592
32 18 -22 -3.7537 -0.1938
32 18 -19 15.9752 -0.0012
32 18 -16 20.1968 0.2089
32 18 -13 13.6283 -0.0455
32 18 -10 8.2004 -0.0316
32 18 -7 0.8501 0.3170
32 18 -4 12.7010 0.0515
32 18 -1 3.4706 -0.1362
32 18 2 2.9773 -0.1805
32 18 5 -3.0163 0.1044
32 18 8 -1.7299 0.0896
32 18 11 -12.4697 -0.2380
32 18 14 -3.7878 0.0661
32 18 17 15.2616 0.2358
32 18 20 -5.1964 -0.1012
32 18 23 -2.6330 0.0939
32 18 26 -4.4278 -0.0502
32 18 29 -2.4267 0.0326
32 19 -29 1.7113 0.1426
32 19 -26 -8.4703 0.0609
32 19 -23 -20.8358 -0.0728
32 19 -20 7.0056 0.1163
32 19 -17 -10.2695 0.1928
32 19 -14 -4.4831 -0.1910
32 19 -11 5.2942 -0.0292
32 19 -8 18.8579 0.0036
32 19 -5 3.9953 -0.0502
32 19 -2 -4.7812 0.0172
32 19 1 -6.4714 -0.3371
32 19 4 -16.9623 0.1641
32 19 7 12.0771 0.2111
32 19 10 8.3779 -0.0069
32 19 13 -1.8117 0.0214
32 19 16 10.9958 -0.0319
32 19 19 -10.2360 -0.1227
32 19 22 1.6784 -0.0537
32 19 25 5.9865 -0.0849
32 19 28 0.7437 -0.0770
32 20 -27 -0.5906 -0.0531
32 20 -24 11.6265 -0.0442
32 20 -21 2.3782 -0.1158
32 20 -18 -5.3894 -0.0409
32 20 -15 -4.1708 0.0281
32 20 -12 -3.2493 -0.1036
32 20 -9 7.1181 0.0750
32 20 -6 3.8149 0.0937
32 20 -3 5.7575 0.2543
32 20 0 3.8383 -0.0271
32 20 3 10.2195 -0.2149
32 20 6 -1.9498 0.1023
32 20 9 5.3659 0.1987
32 20 12 4.0997 -0.0736
32 20 15 -4.1847 -0.2506
32 20 18 2.1314 -0.0139
32 20 21 -21.5234 0.1502
32 20 24 8.3689 0.1595
32 20 27 2.4975 0.0844
32 21 -25 9.8176 -0.1091
32 21 -22 10.5446 -0.0175
32 21 -19 10.4077 0.0553
32 21 -16 4.1283 0.0376
32 21 -13 -13.1457 0.1442
32 21 -10 -13.3822 -0.1050
32 21 -7 -3.3561 -0.0125
32 21 -4 -2.4299 0.2525
32 21 -1 -0.8123 0.0787
32 21 2 -0.5986 -0.1693
32 21 5 4.7523 -0.2576
32 21 8 7.1858 0.1357
32 21 11 10.4799 0.1353
32 21 14 -10.4200 -0.2330
32 21 17 12.3684 -0.0038
32 21 20 0.9946 0.2242
32 21 23 -1.6267 0.2111
32 21 26 -11.2516 -0.1256
32 22 -26 6.5222 0.0814
32 22 -23 -0.9158 0.0336
32 22 -20 5.1771 -0.1676
32 22 -17 2.6604 -0.0848
32 22 -14 6.5563 0.0280
32 22 -11 -0.4918 -0.0078
32 22 -8 2.0487 -0.1708
32 22 -5 -15.5052 -0.0086
32 22 -2 4.7433 0.0424
32 22 1 4.7292 0.0965
32 22 4 6.5438 -0.0715
32 22 7 -5.4457 -0.1136
32 22 10 -10.8813 0.1082
32 22 13 0.7957 0.1673
32 22 16 -2.2294 0.1306
32 22 19 -10.2821 -0.1000
32 22 22 0.3968 -0.1212
32 22 25 -12.7074 -0.1458
32 23 -24 20.0095 0.0358
32 23 -21 -3.8878 0.1271
32 23 -18 -8.7328 0.0620
32 23 -15 -0.9490 0.0086
32 23 -12 -14.9978 0.0611
32 23 -9 -6.3527 0.0057
32 23 -6 -13.6657 -0.2286
32 23 -3 0.8055 -0.1813
32 23 0 10.2743 0.1359
32 23 3 21.7588 0.2243
32 23 6 -8.2494 0.0748
32 23 9 -0.8850 -0.0195
32 23 12 0.7356 0.0311
32 23 15 -3.4196 0.0350
32 23 18 4.2569 -0.1215
32 23 21 15.9320 -0.1953
32 23 24 2.9759 0.0625
32 24 -22 -4.8904 0.1456
32 24 -19 3.0457 0.1088
32 24 -16 0.5144 0.0144
32 24 -13 -5.8598 -0.0221
32 24 -10 9.8659 0.0841
32 24 -7 -6.2568 0.0940
32 24 -4 13.3649 -0.2822
32 24 -1 10.4603 -0.0651
32 24 2 5.2850 0.1421
32 24 5 -1.6155 -0.0182
32 24 8 10.0376 0.0309
32 24 11 -13.1981 -0.1659
32 24 14 5.4220 -0.0765
32 24 17 8.3187 0.0955
32 24 20 -1.9785 -0.1279
32 24 23 -6.7918 0.0499
32 25 -20 14.3161 -0.0583
32 25 -17 10.1666 0.0004
32 25 -14 1.1159 -0.0554
32 25 -11 -10.1741 0.1135
32 25 -8 10.9530 0.0984
32 25 -5 -0.0202 0.0321
32 25 -2 -0.7261 -0.1613
32 25 1 13.0441 -0.1148
32 25 4 8.9066 -0.0927
32 25 7 2.0812 0.0694
32 25 10 7.5485 -0.0020
32 25 13 14.0298 -0.0268
32 25 16 3.5871 0.1133
32 25 19 -0.5179 0.1395
32 25 22 11.6234 0.0069
32 26 -18 -10.1314 0.0489
32 26 -15 3.4035 -0.1432
32 26 -12 -1.7671 -0.1572
32 26 -9 2.6896 0.0897
32 26 -6 -15.5867 0.0691
32 26 -3 -7.4650 0.0795
32 26 0 -16.5734 -0.0222
32 26 3 1.9069 -0.1801
32 26 6 -9.7484 0.0927
32 26 9 0.5501 0.0845
32 26 12 10.6137 0.0171
32 26 15 -10.0251 -0.1024
32 26 18 2.1862 0.0901
32 27 -16 9.1342 -0.0138
32 27 -13 13.8447 -0.0619
32 27 -10 -16.3173 -0.0603
32 27 -7 -3.6439 -0.0481
32 27 -4 -17.6209 0.1047
32 27 -1 -11.0478 0.0963
32 27 2 11.8202 -0.0521
32 27 5 0.1298 0.0396
32 27 8 0.9118 -0.0559
32 27 11 -1.3733 0.0695
32 27 14 -2.1108 -0.0653
32 27 17 -1.9350 -0.2441
32 28 -17 4.6981 0.1402
32 28 -14 3.9222 0.0897
32 28 -11 -1.9101 -0.0458
32 28 -8 3.0439 -0.2647
32 28 -5 2.1606 0.0608
32 28 -2 0.3196 0.1020
32 28 1 17.5415 0.0568
32 28 4 -6.9163 -0.0634
32 28 7 5.5060 -0.0230
32 28 10 4.5627 0.1565
32 28 13 -2.2079 -0.0037
32 28 16 6.4470 -0.1950
32 29 -12 -0.4332 0.1123
32 29 -9 -15.4489 -0.2326
32 29 -6 3.8756 -0.0440
32 29 -3 -2.1073 0.1944
32 29 0 0.1087 0.0835
32 29 3 -6.3345 -0.1479
32 29 6 -1.8558 -0.1743
32 29 9 9.1348 0.1012
32 29 12 2.7362 0.0797
32 30 -10 -6.9127 0.0382
32 30 -7 4.7968 -0.0926
32 30 -4 -3.4722 -0.1140
32 30 -1 11.2014 0.0427
32 30 2 3.3547 0.1458
32 30 5 3.2699 -0.0554
32 30 8 -1.2351 -0.0206
32 30 11 -14.4403 0.0906
32 31 -8 -3.7130 0.1384
32 31 -5 -9.7473 -0.0187
32 31 -2 15.7744 -0.2843
32 31 1 24.9213 0.0397
32 31 4 7.5712 0.3760
32 31 7 -8.1403 -0.1245
33 0 -36 3.5996 0.0031
33 0 -30 -6.1398 -0.2645
33 0 -24 -5.2083 -0.1145
33 0 -18 -32.5588 -0.2915
33 0 -12 4.3501 -0.2937
33 0 -6 -11.9097 0.4128
33 0 0 -9.6190 2.0083
33 0 6 -16.2294 -0.1435
33 0 12 -0.3304 -2.4035
33 0 18 -5.7118 -0.7578
33 0 24 1.7974 0.8538
33 0 30 4.1600 0.5288
33 0 36 -11.2360 -0.1371
33 1 -37 9.3564 0.1170
33 1 -34 9.8822 0.1131
33 1 -31 3.8731 -0.0691
33 1 -28 -5.4449 -0.1796
33 1 -25 -3.8080 -0.0114
33 1 -22 2.1297 -0.8090
33 1 -19 2.9381 0.0336
33 1 -16 2.1958 0.5211
33 1 -13 -9.5479 0.6680
33 1 -10 -11.3553 0.6941
33 1 -7 3.4943 -0.1400
33 1 -4 18.3329 0.6380
33 1 -1 5.4977 -1.5473
33 1 2 3.5968 -1.5588
33 1 5 -2.4439 0.3982
33 1 8 18.4052 -0.0347
33 1 11 -2.0000 0.2136
33 1 14 10.7541 0.0353
33 1 17 6.6989 1.2233
33 1 20 2.5945 0.6598
33 1 23 7.6629 -1.0230
33 1 26 -2.1374 -0.1563
33 1 29 11.9181 0.1903
33 1 32 5.9013 -0.0088
33 1 35 -0.1279 -0.1010
33 1 38 14.3989 -0.0913
33 2 -38 -7.9154 0.0714
33 2 -35 5.7496 -0.0608
33 2 -32 -2.8972 0.1283
33 2 -29 -11.3076 0.0626
33 2 -26 0.1097 0.2046
33 2 -23 10.1259 0.1043
33 2 -20 -5.5018 0.0743
33 2 -17 -3.6529 0.0367
33 2 -14 -1.8871 -0.1692
33 2 -11 -4.1709 0.2464
33 2 -8 -7.0803 -0.4284
33 2 -5 1.5472 -0.9164
33 2 -2 14.1746 0.1188
33 2 1 -0.1528 0.2908
33 2 4 -4.3082 0.9559
33 2 7 10.2490 0.0180
33 2 10 -0.1299 0.2193
33 2 13 -2.1604 1.1020
33 2 16 -3.5626 -0.6303
33 2 19 -1.8131 -0.6763
33 2 22 3.6279 -0.1918
33 2 25 4.6585 -0.1780
33 2 28 -5.4888 0.3381
33 2 31 4.2375 -0.0384
33 2 34 -13.7912 0.2434
33 2 37 -1.4593 0.1492
33 3 -36 -0.7278 -0.0406
33 3 -33 10.5467 -0.0876
33 3 -30 11.5151 0.0671
33 3 -27 -8.5891 0.0081
33 3 -24 -6.1084 -0.2026
33 3 -21 -8.3442 -0.1342
33 3 -18 -0.7463 0.0710
33 3 -15 -23.9138 0.0530
33 3 -12 -6.8740 0.2638
33 3 -9 0.8751 0.2508
33 3 -6 -3.1529 0.2182
33 3 -3 -0.2051 0.2342
33 3 0 3.1970 -0.1937
33 3 3 -4.8935 -0.6015
33 3 6 4.4497 0.0470
33 3 9 -1.2222 -0.3081
33 3 12 0.0269 0.0440
33 3 15 6.6681 -0.1620
33 3 18 8.4107 -0.1043
33 3 21 8.2596 0.2189
33 3 24 -1.1754 -0.1623
33 3 27 6.5631 -0.0309
33 3 30 -23.6312 0.1288
33 3 33 -3.0051 -0.1009
33 3 36 -0.3249 0.3279
33 4 -37 4.1665 -0.0491
33 4 -34 8.0394 -0.1150
33 4 -31 -12.9803 0.1053
33 4 -28 -1.7465 0.0647
33 4 -25 11.0154 -0.2424
33 4 -22 -3.0979 -0.1694
33 4 -19 0.0465 0.0961
33 4 -16 -6.3953 -0.0595
33 4 -13 7.1226 0.0165
33 4 -10 10.3986 0.0541
33 4 -7 -0.0579 0.0407
33 4 -4 -7.5539 0.5371
33 4 -1 -0.4811 -0.0469
33 4 2 -3.1105 -0.0202
33 4 5 -5.1850 0.1728
33 4 8 1.8406 -0.2220
33 4 11 -18.0982 -0.1088
33 4 14 -6.9148 -0.1630
33 4 17 9.5049 -0.1183
33 4 20 15.7989 0.3747
33 4 23 -1.4012 0.1982
33 4 26 2.2749 -0.0960
33 4 29 1.0787 -0.0476
33 4 32 -9.9285 -0.1096
33 4 35 -2.0961 0.0566
33 4 38 -4.2515 0.0541
33 5 -35 3.3713 -0.0062
33 5 -32 -2.2125 0.0786
33 5 -29 1.9889 0.2016
33 5 -26 -6.2378 -0.0432
33 5 -23 -2.7515 -0.0669
33 5 -20 -2.3904 -0.2519
33 5 -17 -5.3529 -0.1855
33 5 -14 8.6932 0.2315
33 5 -11 0.0040 -0.0303
33 5 -8 -4.2430 0.1871
33 5 -5 0.7070 0.8001
33 5 -2 -9.7847 0.0299
33 5 1 5.1041 -0.1564
33 5 4 22.3432 -0.6023
33 5 7 -6.2502 -0.1249
33 5 10 0.9366 -0.0145
33 5 13 11.2512 -0.6696
33 5 16 2.9842 0.4718
33 5 19 -8.7207 0.5051
33 5 22 -4.5317 0.3177
33 5 25 3.7033 -0.2972
33 5 28 19.5468 -0.2355
33 5 31 -1.7832 0.0674
33 5 34 1.2794 -0.1569
33 5 37 -1.8732 0.0168
33 6 -36 2.7430 -0.0341
33 6 -33 -0.3007 -0.0774
33 6 -30 -0.1666 -0.1192
33 6 -27 -6.0918 0.0534
33 6 -24 9.5083 -0.0507
33 6 -21 -6.5804 0.1893
33 6 -18 -6.3246 0.1593
33 6 -15 -11.2830 -0.1202
33 6 -12 -10.7363 0.3961
33 6 -9 -3.6747 0.0581
33 6 -6 -9.5752 -0.0215
33 6 -3 5.5461 -0.5487
33 6 0 5.9857 -0.5896
33 6 3 -6.6930 0.4020
33 6 6 10.7821 0.0239
33 6 9 3.0136 -0.1809
33 6 12 9.3932 0.2205
33 6 15 -3.8677 0.4538
33 6 18 -13.3520 0.2241
33 6 21 15.1231 -0.4145
33 6 24 -9.7574 -0.0480
33 6 27 -3.5193 0.0381
33 6 30 -8.0168 -0.0493
33 6 33 1.6323 -0.2045
33 6 36 5.7499 0.0429
33 7 -34 -13.6468 -0.0509
33 7 -31 -9.2965 -0.1136
33 7 -28 1.3313 0.0353
33 7 -25 15.6624 -0.0388
33 7 -22 -4.2392 -0.1251
33 7 -19 -12.6980 0.0388
33 7 -16 -12.1743 0.1114
33 7 -13 -6.3944 0.1544
33 7 -10 4.0509 -0.2122
33 7 -7 5.4499 -0.1295
33 7 -4 3.9315 -0.1333
33 7 -1 14.3319 0.2864
33 7 2 7.6307 -0.0043
33 7 5 -3.8731 -0.0473
33 7 8 -9.1330 0.4931
33 7 11 -3.4912 0.2211
33 7 14 -7.9455 -0.1947
33 7 17 -9.0883 -0.3872
33 7 20 10.2878 -0.0792
33 7 23 3.8782 0.0679
33 7 26 -3.5320 0.0834
33 7 29 10.4468 0.1702
33 7 32 0.3984 0.0193
33 7 35 2.3329 -0.0447
33 8 -35 5.0128 0.0538
33 8 -32 -4.7974 -0.0752
33 8 -29 0.0482 0.2087
33 8 -26 -7.0190 -0.1575
33 8 -23 -3.4085 -0.2450
33 8 -20 8.5643 0.0734
33 8 -17 3.8494 0.1851
33 8 -14 6.7094 0.0883
33 8 -11 5.4299 -0.1625
33 8 -8 -0.2600 0.2814
33 8 -5 12.1002 0.2999
33 8 -2 -0.4151 -0.0709
33 8 1 1.9331 -0.2978
33 8 4 4.3100 -0.2955
33 8 7 -25.3113 0.3647
33 8 10 5.8207 0.0219
33 8 13 5.1170 -0.2148
33 8 16 9.0061 -0.0645
33 8 19 9.5647 -0.0248
33 8 22 -7.0316 0.2699
33 8 25 -0.1586 -0.0299
33 8 28 -7.5139 0.0111
33 8 31 -18.5307 0.1795
33 8 34 -1.9565 -0.1232
33 9 -33 3.0126 -0.0589
33 9 -30 -1.0062 0.1277
33 9 -27 -1.9041 0.1232
33 9 -24 2.1293 -0.1155
33 9 -21 19.6717 0.0525
33 9 -18 -11.8096 -0.0028
33 9 -15 -0.9019 -0.0333
33 9 -12 9.1820 -0.0945
33 9 -9 8.6102 0.0012
33 9 -6 -2.4893 0.2117
33 9 -3 -4.0302 0.1134
33 9 0 -4.5617 -0.1416
33 9 3 -0.8538 -0.3058
33 9 6 10.2004 0.0927
33 9 9 -0.2512 0.1547
33 9 12 -7.9497 -0.2114
33 9 15 -10.8243 0.1138
33 9 18 -2.9760 0.1050
33 9 21 6.6944 0.2582
33 9 24 0.6237 0.0267
33 9 27 -4.8161 -0.2045
33 9 30 -11.5605 0.1365
33 9 33 3.8527 -0.0717
33 10 -34 -2.7636 0.0691
33 10 -31 -1.6332 -0.0607
33 10 -28 10.3177 -0.1478
33 10 -25 3.4673 0.0321
33 10 -22 -17.9558 -0.0220
33 10 -19 -0.6911 0.0326
33 10 -16 -8.5385 0.0275
33 10 -13 9.2309 -0.0625
33 10 -10 7.2394 0.1923
33 10 -7 9.8898 0.0744
33 10 -4 -16.5205 0.0024
33 10 -1 6.5589 -0.1504
33 10 2 25.5932 -0.1607
33 10 5 -0.9464 0.1894
33 10 8 3.3783 0.1565
33 10 11 8.8629 -0.0743
33 10 14 -11.2180 -0.0029
33 10 17 -9.8006 -0.0156
33 10 20 -8.3847 0.0232
33 10 23 8.0709 -0.1803
33 10 26 -5.0323 -0.2730
33 10 29 10.1585 -0.0071
33 10 32 1.3512 0.3072
33 10 35 -10.7344 0.0492
33 11 -32 -18.1008 0.0100
33 11 -29 4.5376 0.0608
33 11 -26 -6.1088 0.0128
33 11 -23 7.7866 0.1162
33 11 -20 -6.9760 0.0858
33 11 -17 0.6374 -0.1708
33 11 -14 -6.7702 -0.0450
33 11 -11 3.5458 -0.1583
33 11 -8 12.6388 -0.1151
33 11 -5 -6.4980 0.0627
33 11 -2 12.6622 0.0881
33 11 1 -3.6146 0.4598
33 11 4 12.9827 0.3139
33 11 7 -4.1850 -0.0891
33 11 10 5.7343 -0.1249
33 11 13 -5.6205 -0.0658
33 11 16 -4.0434 -0.0054
33 11 19 11.4799 -0.1912
33 11 22 -20.4023 -0.1449
33 11 25 2.6188 0.1367
33 11 28 2.1676 0.0709
33 11 31 -1.5528 0.2496
33 11 34 -4.3107 -0.0854
33 12 -33 1.3575 -0.1531
33 12 -30 7.1550 0.0708
33 12 -27 -3.2079 0.1389
33 12 -24 2.4365 -0.0542
33 12 -21 8.2198 0.0188
33 12 -18 -2.7843 -0.1528
33 12 -15 14.7955 -0.0716
33 12 -12 -2.4846 0.1099
33 12 -9 -1.0400 -0.0580
33 12 -6 8.7295 0.0624
33 12 -3 -12.5784 0.2209
33 12 0 -5.7680 0.0463
33 12 3 -1.8504 0.0823
33 12 6 -7.2895 -0.3199
33 12 9 16.9637 -0.2147
33 12 12 -18.3504 0.0213
33 12 15 -13.2535 0.0038
33 12 18 -3.1183 0.1764
33 12 21 9.4962 -0.0792
33 12 24 -2.7748 0.1842
33 12 27 -1.5377 0.1966
33 12 30 -2.0473 -0.1778
33 12 33 -12.5593 -0.1413
33 13 -31 -1.2190 -0.0828
33 13 -28 -2.4171 -0.0320
33 13 -25 13.3442 -0.1662
33 13 -22 -8.7775 0.1511
33 13 -19 4.8937 0.2759
33 13 -16 1.2417 0.0481
33 13 -13 -2.6997 0.1659
33 13 -10 10.1347 0.0566
33 13 -7 11.8950 -0.2751
33 13 -4 -4.3763 -0.4046
33 13 -1 12.1855 -0.0228
33 13 2 0.6290 -0.0878
33 13 5 -3.4916 -0.2600
33 13 8 -11.5338 0.3179
33 13 11 -2.3767 0.3678
33 13 14 2.7748 0.0878
33 13 17 10.0035 -0.2795
33 13 20 12.5624 -0.0734
33 13 23 3.6438 0.1827
33 13 26 8.5081 -0.2119
33 13 29 -2.8035 -0.2299
33 13 32 -2.5826 0.0255
33 14 -32 -3.7451 0.0414
33 14 -29 -5.9800 0.1566
33 14 -26 3.2966 -0.1674
33 14 -23 4.5071 -0.1604
33 14 -20 22.5358 0.1045
33 14 -17 1.9168 -0.1005
33 14 -14 -4.2535 0.0195
33 14 -11 -14.7661 -0.1431
33 14 -8 9.7438 0.1754
33 14 -5 2.5945 0.3426
33 14 -2 -8.9988 -0.1857
33 14 1 4.3393 0.1614
33 14 4 -5.3909 -0.1619
33 14 7 0.2522 0.1606
33 14 10 -12.8177 0.3004
33 14 13 14.2919 -0.3710
33 14 16 -0.7466 -0.0774
33 14 19 8.5943 0.0166
33 14 22 14.2628 0.1234
33 14 25 14.3368 -0.0245
33 14 28 -3.3430 -0.2379
33 14 31 -3.3416 0.1410
33 15 -30 3.7615 -0.0018
33 15 -27 4.9036 0.1349
33 15 -24 9.4913 -0.2513
33 15 -21 -11.3401 -0.1555
33 15 -18 4.9594 -0.0764
33 15 -15 -7.4851 0.1397
33 15 -12 -9.2873 0.0448
33 15 -9 -8.7333 -0.1550
33 15 -6 -0.1801 0.3487
33 15 -3 -3.1022 0.0981
33 15 0 7.7916 -0.1546
33 15 3 -1.6138 -0.0377
33 15 6 -18.0195 -0.0736
33 15 9 10.3015 0.2154
33 15 12 6.4351 -0.3256
33 15 15 0.9065 -0.0935
33 15 18 6.1492 0.2522
33 15 21 -4.7254 -0.0802
33 15 24 1.7522 0.0923
33 15 27 9.4178 -0.0757
33 15 30 7.3988 0.1377
33 16 -28 -2.0728 0.1760
33 16 -25 8.7622 0.3293
33 16 -22 9.3922 -0.0869
33 16 -19 -16.2259 -0.0478
33 16 -16 -6.1434 0.1904
33 16 -13 5.1946 -0.0750
33 16 -10 -16.7058 -0.3685
33 16 -7 -9.0395 -0.3314
33 16 -4 -0.2224 0.1962
33 16 -1 -8.2166 0.2481
33 16 2 1.5268 -0.1695
33 16 5 0.5831 -0.0510
33 16 8 -22.7301 0.0919
33 16 11 6.4847 -0.0061
33 16 14 8.2914 -0.0466
33 16 17 -5.3398 -0.0246
33 16 20 -4.5613 -0.0128
33 16 23 -4.4536 -0.0980
33 16 26 -0.0024 0.1004
33 16 29 -3.4473 0.0480
33 17 -29 13.3649 -0.1728
33 17 -26 -12.4076 0.0566
33 17 -23 -18.0392 0.0630
33 17 -20 2.0167 -0.2279
33 17 -17 9.6735 0.0394
33 17 -14 6.7518 0.2269
33 17 -11 3.4683 0.0792
33 17 -8 -15.7695 -0.0151
33 17 -5 -19.5132 -0.0677
33 17 -2 0.9482 0.1718
33 17 1 -6.4104 0.0965
33 17 4 9.2662 -0.2241
33 17 7 -18.1398 -0.0487
33 17 10 -3.8536 0.0422
33 17 13 12.6184 0.2192
33 17 16 -12.9974 0.1273
33 17 19 -5.4612 -0.0538
33 17 22 -5.1133 -0.0310
33 17 25 -13.7521 0.0619
33 17 28 9.4822 -0.0356
33 18 -27 -2.0084 -0.0948
33 18 -24 -2.4535 -0.0539
33 18 -21 -5.3835 0.0642
33 18 -18 3.7419 -0.0379
33 18 -15 -0.2866 0.0584
33 18 -12 10.0206 0.2851
33 18 -9 5.2243 -0.1101
33 18 -6 -13.3114 -0.2314
33 18 -3 -16.2294 -0.2703
33 18 0 -7.2551 0.1221
33 18 3 0.6563 0.0586
33 18 6 -3.8673 -0.2635
33 18 9 0.0772 0.1904
33 18 12 10.0172 0.2480
33 18 15 -7.6046 0.0348
33 18 18 -8.8058 -0.1438
33 18 21 -6.4832 -0.0654
33 18 24 8.9200 0.1127
33 18 27 2.1155 0.0039
33 19 -28 -1.9601 0.0860
33 19 -25 13.0589 0.0102
33 19 -22 -5.4147 0.1137
33 19 -19 13.0778 -0.1022
33 19 -16 -1.4889 -0.2762
33 19 -13 6.0580 0.0450
33 19 -10 13.5749 0.1105
33 19 -7 7.9063 -0.0643
33 19 -4 -2.5498 -0.0499
33 19 -1 8.5884 0.0380
33 19 2 7.5171 0.2583
33 19 5 16.1816 -0.0617
33 19 8 -3.0186 -0.2070
33 19 11 -5.9141 0.1821
33 19 14 15.3482 -0.0849
33 19 17 9.9948 -0.1702
33 19 20 -6.3742 -0.0577
33 19 23 -0.3526 0.0933
33 19 26 -0.8458 0.1483
33 20 -26 0.1060 -0.1146
33 20 -23 -0.2682 0.0368
33 20 -20 19.0488 0.1962
33 20 -17 -14.5170 0.0522
33 20 -14 -1.3609 0.0097
33 20 -11 11.9012 0.0726
33 20 -8 13.4242 0.2170
33 20 -5 -1.0272 0.1107
33 20 -2 1.9529 -0.2352
33 20 1 -0.3171 -0.2302
33 20 4 -1.5520 -0.0133
33 20 7 5.0320 0.0223
33 20 10 2.7933 -0.0367
33 20 13 -10.0770 -0.0929
33 20 16 -7.5719 0.1145
33 20 19 -5.6500 0.3748
33 20 22 10.3903 -0.0289
33 20 25 5.1803 0.0182
33 21 -24 8.3469 -0.0398
33 21 -21 3.2906 0.0849
33 21 -18 1.4724 0.0314
33 21 -15 -3.6607 0.0091
33 21 -12 1.8542 -0.2062
33 21 -9 10.2910 -0.0454
33 21 -6 14.1784 0.2333
33 21 -3 -1.5556 -0.1900
33 21 0 8.6446 -0.2142
33 21 3 17.1724 0.0391
33 21 6 -10.7095 0.1040
33 21 9 -1.3020 -0.0059
33 21 12 -4.2607 -0.0480
33 21 15 -13.6111 0.0292
33 21 18 16.0243 0.2984
33 21 21 16.7648 -0.1110
33 21 24 -3.3339 -0.2776
33 22 -22 4.1451 -0.2089
33 22 -19 1.6005 -0.0551
33 22 -16 -17.8109 0.1261
33 22 -13 -1.9038 -0.0216
33 22 -10 11.4505 -0.1747
33 22 -7 12.2033 -0.0295
33 22 -4 6.2527 0.1392
33 22 -1 -1.4554 0.0743
33 22 2 4.9116 0.0363
33 22 5 -18.7954 0.0228
33 22 8 -4.4098 0.0752
33 22 11 -5.2827 0.0316
33 22 14 -6.7489 -0.0779
33 22 17 11.8835 -0.1256
33 22 20 -2.0697 -0.1140
33 22 23 1.9507 -0.1344
33 23 -23 -5.8902 -0.0057
33 23 -20 -2.9649 -0.0320
33 23 -17 -0.8568 0.1081
33 23 -14 -0.7580 0.1121
33 23 -11 -4.5218 -0.1143
33 23 -8 8.2405 -0.2063
33 23 -5 -2.0436 -0.1052
33 23 -2 5.5492 0.2440
33 23 1 -2.5662 0.1707
33 23 4 -0.5102 -0.1315
33 23 7 -0.0966 -0.0276
33 23 10 11.7834 0.0762
33 23 13 -1.6929 0.0056
33 23 16 3.4379 -0.2330
33 23 19 6.6171 0.0030
33 23 22 6.0046 0.1330
33 24 -21 4.1070 -0.0982
33 24 -18 -2.6851 -0.0672
33 24 -15 -5.8000 0.0278
33 24 -12 1.2544 0.0567
33 24 -9 -0.2987 0.0161
33 24 -6 -6.4765 -0.0980
33 24 -3 -7.7042 0.0619
33 24 0 -18.8153 0.0413
33 24 3 2.4587 -0.0041
33 24 6 -3.7815 -0.0708
33 24 9 13.7204 0.0395
33 24 12 -11.7137 0.1885
33 24 15 -0.1450 -0.0215
33 24 18 9.4282 -0.1377
33 24 21 8.2326 0.0932
33 25 -19 -7.1906 0.0306
33 25 -16 -11.3728 -0.1002
33 25 -13 14.4523 -0.0868
33 25 -10 -10.4966 0.1446
33 25 -7 -4.0803 0.0333
33 25 -4 11.4283 -0.0177
33 25 -1 5.7499 -0.0725
33 25 2 13.7816 0.0876
33 25 5 -2.4522 0.1572
33 25 8 -10.9637 -0.1489
33 25 11 -7.1357 0.0826
33 25 14 6.0250 0.1827
33 25 17 4.9470 0.0268
33 25 20 -5.5238 -0.0585
33 26 -17 5.6334 -0.0814
33 26 -14 4.4767 -0.1274
33 26 -11 -15.0211 0.0137
33 26 -8 1.1946 0.0619
33 26 -5 -9.7431 0.0729
33 26 -2 11.2008 0.0097
33 26 1 13.5519 -0.0617
33 26 4 -1.8696 0.1637
33 26 7 4.0811 -0.0481
33 26 10 -7.1408 -0.1529
33 26 13 2.9893 0.0342
33 26 16 0.5579 0.0399
33 27 -15 -9.5155 0.0703
33 27 -12 8.0234 0.0257
33 27 -9 0.6725 -0.1053
33 27 -6 5.4753 0.0239
33 27 -3 -9.1694 0.0758
33 27 0 -18.0157 -0.0592
33 27 3 4.5457 0.0524
33 27 6 1.1902 -0.0301
33 27 9 -3.3938 -0.0748
33 27 12 0.1867 -0.0322
33 27 15 -2.1086 -0.1452
33 28 -13 -12.8250 0.0176
33 28 -10 8.0270 -0.0779
33 28 -7 5.9314 0.0050
33 28 -4 -4.0697 0.1070
33 28 -1 13.7273 -0.0130
33 28 2 -9.3979 -0.1013
33 28 5 6.9016 0.0110
33 28 8 -2.2030 0.1079
33 28 11 2.5248 -0.0129
33 28 14 -3.5586 -0.0250
33 29 -11 -6.4628 -0.0195
33 29 -8 7.3039 0.1051
33 29 -5 0.7518 -0.0347
33 29 -2 11.3579 0.0530
33 29 1 12.7367 -0.1441
33 29 4 -8.9683 -0.1348
33 29 7 -15.2232 0.2304
33 29 10 1.1861 0.0164
33 30 -6 -8.6221 -0.2284
33 30 -3 -3.8243 -0.1805
33 30 0 -4.2134 0.3150
33 30 3 2.9834 0.0654
33 30 6 7.8504 -0.1605
34 0 -38 -8.5006 -0.0279
34 0 -32 1.1429 0.2430
34 0 -26 -25.6369 -0.0488
34 0 -20 0.4404 -0.8040
34 0 -14 3.8875 -0.4814
34 0 -8 -9.7562 1.1210
34 0 -2 2.7787 0.9803
34 0 4 2.6045 -1.5652
34 0 10 -3.5042 -0.5543
34 0 16 13.3807 0.5219
34 0 22 -16.5390 0.2996
34 0 28 15.8759 -0.0155
34 0 34 -8.6345 -0.1997
34 1 -36 2.3893 -0.1494
34 1 -33 15.7893 -0.0302
34 1 -30 2.1285 0.0085
34 1 -27 -4.8419 0.0214
34 1 -24 5.5195 0.2382
34 1 -21 -15.5551 0.4442
34 1 -18 -2.9144 0.3484
34 1 -15 -0.9422 -0.4814
34 1 -12 -0.9508 -0.4817
34 1 -9 4.1599 -0.1680
34 1 -6 -14.8544 -0.5088
34 1 -3 6.7715 -1.2089
34 1 0 -7.8597 -0.3367
34 1 3 9.7502 2.2267
34 1 6 -15.0300 0.6779
34 1 9 7.8951 0.0317
34 1 12 -2.6272 0.4407
34 1 15 -2.9948 0.6280
34 1 18 3.1003 0.1327
34 1 21 -5.3908 -1.4701
34 1 24 -4.2545 -0.2870
34 1 27 7.4885 0.5326
34 1 30 2.6558 -0.0489
34 1 33 10.5401 -0.1597
34 1 36 3.3909 0.0721
34 2 -37 2.7048 0.0999
34 2 -34 -12.0686 0.0083
34 2 -31 -11.8583 0.0122
34 2 -28 6.1705 0.1418
34 2 -25 5.0851 0.1469
34 2 -22 5.5713 -0.1418
34 2 -19 6.5810 -0.2711
34 2 -16 1.0750 -0.3693
34 2 -13 -3.3783 -0.1121
34 2 -10 -2.4285 0.1280
34 2 -7 -4.9840 -0.3460
34 2 -4 -2.0882 0.5207
34 2 -1 -7.8316 0.6233
34 2 2 7.5875 -0.0180
34 2 5 4.3167 0.0227
34 2 8 0.8677 -0.6585
34 2 11 -11.5766 0.4031
34 2 14 4.2541 -0.5325
34 2 17 -6.3208 -0.6604
34 2 20 -4.6221 0.2895
34 2 23 2.6254 0.0124
34 2 26 -4.5749 0.1124
34 2 29 -4.8877 0.1109
34 2 32 7.2376 -0.1312
34 2 35 5.0168 -0.0200
34 2 38 1.9918 -0.0570
34 3 -35 -1.8697 -0.0511
34 3 -32 12.2573 -0.0807
34 3 -29 -4.0208 0.0996
34 3 -26 -12.0234 0.0222
34 3 -23 -12.5187 -0.1748
34 3 -20 15.1472 0.0657
34 3 -17 -9.8488 0.3450
34 3 -14 -3.2337 0.0264
34 3 -11 -0.0621 0.0483
34 3 -8 -4.7271 0.3044
34 3 -5 0.1249 0.0786
34 3 -2 -10.6917 -0.2990
34 3 1 2.4718 -0.9513
34 3 4 10.0838 0.0183
34 3 7 -2.1789 0.3102
34 3 10 2.5679 -0.3173
34 3 13 9.5026 0.1444
34 3 16 -1.1501 0.3008
34 3 19 6.7756 0.2871
34 3 22 -15.4271 0.0494
34 3 25 -7.9484 -0.2399
34 3 28 2.6325 -0.0489
34 3 31 0.9246 -0.0306
34 3 34 -16.4483 -0.1047
34 3 37 3.5296 -0.0392
34 4 -36 -3.7084 -0.0185
34 4 -33 4.6898 -0.0257
34 4 -30 -0.8440 0.0412
34 4 -27 -4.4202 0.1105
34 4 -24 5.8752 0.2637
34 4 -21 10.2808 -0.2622
34 4 -18 -0.9782 -0.3323
34 4 -15 1.2720 -0.0224
34 4 -12 7.9161 -0.0619
34 4 -9 -0.6762 -0.0622
34 4 -6 -20.5439 0.3132
34 4 -3 2.4461 0.6418
34 4 0 -10.8391 0.2378
34 4 3 1.4509 -0.2499
34 4 6 -5.9290 -0.1888
34 4 9 4.5003 0.1945
34 4 12 -6.0810 -0.3796
34 4 15 7.7117 -0.0827
34 4 18 6.4304 0.2429
34 4 21 -16.7170 0.3954
34 4 24 -2.0823 0.0129
34 4 27 3.6783 -0.2500
34 4 30 -3.0414 0.1488
34 4 33 1.4233 0.0003
34 4 36 -1.1054 -0.0724
34 5 -37 6.1086 0.0098
34 5 -34 1.0311 0.0905
34 5 -31 -6.1785 -0.0961
34 5 -28 15.6399 -0.0461
34 5 -25 -11.0375 0.1124
34 5 -22 -7.8716 0.0307
34 5 -19 2.4723 -0.1091
34 5 -16 12.6805 0.0721
34 5 -13 16.8862 -0.0897
34 5 -10 1.9985 0.0009
34 5 -7 -0.9567 -0.1319
34 5 -4 -15.8590 -0.2408
34 5 -1 5.7345 -0.1274
34 5 2 13.3600 -0.3336
34 5 5 -1.1768 -0.2466
34 5 8 -8.0916 0.6065
34 5 11 -1.8778 -0.1611
34 5 14 1.7529 0.1558
34 5 17 3.9852 0.2161
34 5 20 4.7687 -0.1989
34 5 23 -0.2451 0.0745
34 5 26 -2.7925 -0.2227
34 5 29 2.1319 -0.0091
34 5 32 -13.2208 0.2101
34 5 35 2.8675 -0.1406
34 6 -35 12.8105 -0.0347
34 6 -32 -3.1138 -0.2218
34 6 -29 -8.4368 0.0153
34 6 -26 -3.6114 0.3740
34 6 -23 6.4122 0.0832
34 6 -20 3.7448 0.0618
34 6 -17 12.3580 -0.0615
34 6 -14 -7.4716 -0.0171
34 6 -11 -5.6181 -0.1057
34 6 -8 5.2313 -0.7055
34 6 -5 7.1095 -0.4806
34 6 -2 3.1917 0.4457
34 6 1 -1.3208 0.6451
34 6 4 -21.6410 0.3822
34 6 7 -1.0680 -0.3666
34 6 10 -9.3178 0.3215
34 6 13 -14.2852 0.2497
34 6 16 -3.6301 -0.5109
34 6 19 -2.8125 -0.4946
34 6 22 -2.3345 0.0615
34 6 25 -16.9115 0.4640
34 6 28 -20.9337 0.0112
34 6 31 3.6665 -0.0836
34 6 34 -0.3547 0.0044
34 7 -36 -1.6289 -0.0049
34 7 -33 -7.6948 -0.0228
34 7 -30 -1.5345 -0.1424
34 7 -27 -3.4123 0.0048
34 7 -24 10.9669 0.0468
34 7 -21 -2.3579 -0.1543
34 7 -18 6.6293 0.1234
34 7 -15 -5.4868 -0.0450
34 7 -12 -6.5909 -0.1666
34 7 -9 0.4877 0.2307
34 7 -6 -7.6554 -0.1338
34 7 -3 4.9192 0.2139
34 7 0 0.3491 0.1195
34 7 3 -4.8553 -0.1420
34 7 6 13.9257 0.1050
34 7 9 -1.1508 -0.0788
34 7 12 4.0042 -0.0611
34 7 15 11.6334 -0.0237
34 7 18 13.3181 -0.1113
34 7 21 16.9295 0.0749
34 7 24 -2.2405 0.1199
34 7 27 -6.2284 0.0788
34 7 30 -17.6304 -0.0199
34 7 33 6.4886 -0.0455
34 7 36 5.4654 -0.0420
34 8 -34 -3.7232 -0.0912
34 8 -31 -8.0664 0.1017
34 8 -28 7.1140 0.0108
34 8 -25 13.3328 -0.1771
34 8 -22 -15.8044 -0.0041
34 8 -19 8.8972 0.1336
34 8 -16 6.1208 0.0092
34 8 -13 8.2879 -0.2127
34 8 -10 6.0725 0.0780
34 8 -7 -8.9666 0.1296
34 8 -4 -8.6405 -0.1191
34 8 -1 -2.2179 -0.5185
34 8 2 -13.8396 -0.0694
34 8 5 3.7998 0.2710
34 8 8 5.3915 -0.1607
34 8 11 9.0651 -0.0944
34 8 14 2.3328 0.3155
34 8 17 -1.6415 0.1906
34 8 20 -0.4029 0.0802
34 8 23 1.2430 -0.2124
34 8 26 1.2844 -0.2142
34 8 29 12.4589 0.0357
34 8 32 4.7965 0.0877
34 8 35 -0.8565 -0.1415
34 9 -32 -2.3359 0.0584
34 9 -29 3.4459 -0.0763
34 9 -26 10.6540 0.2096
34 9 -23 11.0707 -0.0877
34 9 -20 3.2917 -0.1575
34 9 -17 -16.3152 -0.0155
34 9 -14 -2.1223 -0.0225
34 9 -11 4.9207 0.0144
34 9 -8 4.0455 -0.1980
34 9 -5 4.9097 0.0729
34 9 -2 13.2120 0.0231
34 9 1 -1.7102 -0.3279
34 9 4 7.1740 0.2452
34 9 7 -5.2336 0.2820
34 9 10 10.5744 -0.0128
34 9 13 -7.8129 -0.0818
34 9 16 -2.1093 0.1191
34 9 19 17.8408 0.0857
34 9 22 -4.1706 -0.2054
34 9 25 3.4323 -0.2695
34 9 28 1.5339 -0.0720
34 9 31 4.5349 0.1331
34 9 34 8.9173 0.1019
34 10 -33 1.5322 -0.0304
34 10 -30 6.1938 -0.2063
34 10 -27 2.6183 0.0454
34 10 -24 -12.4257 0.1812
34 10 -21 4.1224 -0.1026
34 10 -18 -3.2946 0.0379
34 10 -15 -2.5008 -0.1055
34 10 -12 -5.0812 0.1171
34 10 -9 -2.8772 -0.0548
34 10 -6 -4.0185 -0.1683
34 10 -3 -3.0795 0.1053
34 10 0 -10.3280 0.1291
34 10 3 7.5018 0.1699
34 10 6 -5.4236 0.0257
34 10 9 1.5632 -0.1633
34 10 12 -14.8250 -0.1232
34 10 15 -0.4762 -0.2155
34 10 18 -1.1508 0.0569
34 10 21 -8.2397 -0.0453
34 10 24 -1.3784 0.0447
34 10 27 6.6109 0.0494
34 10 30 -16.2309 0.1013
34 10 33 -8.0273 0.1022
34 11 -31 19.9020 -0.0221
34 11 -28 12.5970 0.0041
34 11 -25 -11.6533 0.1009
34 11 -22 5.1191 -0.1069
34 11 -19 -11.7032 -0.2231
34 11 -16 2.7929 -0.1036
34 11 -13 3.5604 0.0159
34 11 -10 -4.2643 -0.0586
34 11 -7 -5.1840 0.1475
34 11 -4 -7.7854 0.1803
34 11 -1 7.7884 0.2451
34 11 2 -3.1984 0.1672
34 11 5 1.4453 -0.4810
34 11 8 -6.5504 -0.2774
34 11 11 -6.1252 0.1418
34 11 14 -25.8402 0.0156
34 11 17 -14.5066 0.0563
34 11 20 -0.4179 -0.0697
34 11 23 2.3445 0.2952
34 11 26 9.3216 0.2311
34 11 29 0.1206 -0.3003
34 11 32 3.3847 -0.1344
34 12 -32 0.0075 -0.1417
34 12 -29 -3.9903 -0.0190
34 12 -26 -0.6880 0.0232
34 12 -23 -0.3483 -0.1626
34 12 -20 -3.4448 0.0546
34 12 -17 3.7556 0.0396
34 12 -14 2.2354 0.0703
34 12 -11 19.2198 0.1421
34 12 -8 6.0782 -0.1907
34 12 -5 2.8848 -0.1513
34 12 -2 -7.8838 -0.0848
34 12 1 -1.3326 -0.0484
34 12 4 -3.8341 -0.0693
34 12 7 13.8093 -0.2137
34 12 10 13.9272 0.3385
34 12 13 -11.7054 0.2624
34 12 16 7.8368 -0.0436
34 12 19 -2.2067 -0.0860
34 12 22 13.4300 -0.0292
34 12 25 -6.3281 0.1860
34 12 28 5.5042 -0.2273
34 12 31 -23.5921 -0.1920
34 13 -30 -2.8680 -0.0669
34 13 -27 9.1134 0.1037
34 13 -24 2.2875 0.1756
34 13 -21 1.3125 -0.1274
34 13 -18 10.0559 0.0181
34 13 -15 -2.5333 0.0380
34 13 -12 2.0346 -0.0804
34 13 -9 -4.5358 -0.0766
34 13 -6 3.9648 -0.1619
34 13 -3 0.3338 0.1757
34 13 0 -3.4861 0.0893
34 13 3 -5.2500 -0.1297
34 13 6 -1.9955 0.3724
34 13 9 6.2709 0.1109
34 13 12 -16.5896 -0.0366
34 13 15 8.8797 -0.2513
34 13 18 3.9752 -0.0409
34 13 21 8.9761 0.1611
34 13 24 9.7184 -0.1817
34 13 27 -3.5324 0.0197
34 13 30 0.6922 0.0264
34 14 -31 3.9850 0.0344
34 14 -28 5.2566 -0.2051
34 14 -25 14.2171 -0.1508
34 14 -22 7.6369 0.0464
34 14 -19 6.5836 -0.1460
34 14 -16 13.0917 0.0125
34 14 -13 11.3451 0.1117
34 14 -10 14.0198 0.2385
34 14 -7 4.2957 0.3907
34 14 -4 -0.6116 -0.0813
34 14 -1 -5.4730 -0.1509
34 14 2 9.1567 -0.1845
34 14 5 -0.4580 -0.0425
34 14 8 -4.4608 0.1356
34 14 11 12.5281 -0.2488
34 14 14 23.2750 -0.0817
34 14 17 -5.5121 0.3362
34 14 20 23.3163 0.0922
34 14 23 -1.8440 -0.0279
34 14 26 -1.9236 -0.0492
34 14 29 -4.2249 -0.0103
34 15 -29 -13.8819 0.0118
34 15 -26 -14.7870 0.0238
34 15 -23 1.1157 -0.0187
34 15 -20 3.1948 0.1222
34 15 -17 -5.1251 0.0804
34 15 -14 -12.0465 -0.1709
34 15 -11 -11.4580 -0.0104
34 15 -8 7.7883 0.0072
34 15 -5 -7.6080 0.0133
34 15 -2 5.7914 -0.0501
34 15 1 8.6335 -0.1691
34 15 4 12.2351 0.2113
34 15 7 -2.0303 -0.0600
34 15 10 -5.1935 -0.1576
34 15 13 -10.9449 0.0297
34 15 16 -13.9274 0.1449
34 15 19 -10.2312 0.0644
34 15 22 13.6704 -0.0152
34 15 25 -4.7762 0.0366
34 15 28 10.5719 0.1313
34 16 -27 11.4087 0.0779
34 16 -24 -15.5561 0.0812
34 16 -21 -1.0792 -0.1161
34 16 -18 3.7976 0.0243
34 16 -15 -0.2468 -0.2310
34 16 -12 -3.0601 0.0781
34 16 -9 -6.7630 0.1195
34 16 -6 14.9671 0.0715
34 16 -3 -9.3466 0.2255
34 16 0 1.3442 -0.1667
34 16 3 -5.4771 0.0359
34 16 6 5.9482 -0.1481
34 16 9 19.1860 -0.2521
34 16 12 -3.3698 0.3036
34 16 15 -2.8316 -0.0316
34 16 18 12.2742 -0.0579
34 16 21 17.3212 -0.1350
34 16 24 1.3410 0.0257
34 16 27 -5.9719 0.1366
34 17 -28 -9.0638 -0.0320
34 17 -25 -0.2525 -0.0456
34 17 -22 -0.7359 -0.0564
34 17 -19 -6.8313 0.1647
34 17 -16 9.0387 0.0662
34 17 -13 0.3995 0.0848
34 17 -10 1.0508 0.0690
34 17 -7 8.3000 -0.2043
34 17 -4 -12.0462 -0.0409
34 17 -1 7.0363 0.0903
34 17 2 -2.0900 0.0204
34 17 5 6.7572 -0.0626
34 17 8 0.5389 -0.0679
34 17 11 -7.6348 0.2453
34 17 14 -1.7110 0.1070
34 17 17 4.0629 -0.2228
34 17 20 -1.8693 -0.0736
34 17 23 -11.1161 -0.0324
34 17 26 -10.3317 0.0892
34 18 -26 -1.4290 0.0667
34 18 -23 -2.2459 -0.0041
34 18 -20 -4.9466 0.0610
34 18 -17 -2.6583 -0.1415
34 18 -14 0.8104 -0.0021
34 18 -11 -13.2200 -0.1770
34 18 -8 -3.3995 -0.1635
34 18 -5 -2.3551 0.0674
34 18 -2 -1.6113 0.0965
34 18 1 -0.1537 0.3118
34 18 4 -5.8317 0.0172
34 18 7 11.7399 -0.0164
34 18 10 31.2612 0.0601
34 18 13 7.4381 -0.1823
34 18 16 -9.4400 -0.1930
34 18 19 -5.0032 0.0112
34 18 22 -8.4091 0.0810
34 18 25 2.7530 0.0655
34 19 -24 1.0460 -0.0572
34 19 -21 11.1132 0.0005
34 19 -18 9.8384 0.1109
34 19 -15 -8.8603 0.0597
34 19 -12 11.3268 0.0677
34 19 -9 -6.0050 -0.0153
34 19 -6 -17.1296 0.0161
34 19 -3 -9.3618 -0.0069
34 19 0 -1.3709 -0.1368
34 19 3 2.8637 -0.0483
34 19 6 -0.4899 0.0279
34 19 9 -1.8675 0.0462
34 19 12 7.0671 -0.0647
34 19 15 0.3691 -0.1565
34 19 18 6.2885 0.0737
34 19 21 8.3617 0.1776
34 19 24 17.6481 -0.0719
34 20 -25 -2.3416 0.2059
34 20 -22 5.4640 0.1266
34 20 -19 -3.1402 -0.0377
34 20 -16 -1.8898 0.1193
34 20 -13 6.3892 0.0270
34 20 -10 17.4947 -0.0461
34 20 -7 2.4461 0.0000
34 20 -4 -21.6327 -0.2165
34 20 -1 1.9849 -0.1601
34 20 2 -6.6988 -0.0440
34 20 5 -2.8392 0.0890
34 20 8 5.5089 0.1135
34 20 11 5.7877 -0.0160
34 20 14 13.2871 0.0876
34 20 17 8.7927 0.1779
34 20 20 2.8917 -0.0204
34 20 23 12.1791 -0.1763
34 21 -23 7.4644 0.0373
34 21 -20 -2.2202 -0.1321
34 21 -17 6.1301 -0.1545
34 21 -14 3.0203 0.0305
34 21 -11 8.3730 0.1204
34 21 -8 -7.2799 0.0533
34 21 -5 -13.0351 -0.0267
34 21 -2 5.8203 0.1932
34 21 1 -7.1131 0.1615
34 21 4 11.1817 -0.0723
34 21 7 9.9117 -0.1142
34 21 10 -12.3947 -0.0394
34 21 13 -5.3103 0.1250
34 21 16 -3.0465 -0.0768
34 21 19 -5.0764 -0.1772
34 21 22 -9.0960 0.0128
34 22 -21 2.5424 -0.0122
34 22 -18 -5.0394 0.0702
34 22 -15 -6.8598 0.0555
34 22 -12 1.9312 -0.0649
34 22 -9 -4.3652 -0.0454
34 22 -6 -14.0211 -0.0295
34 22 -3 -4.0361 0.1573
34 22 0 -6.8624 0.2103
34 22 3 9.5247 -0.2160
34 22 6 1.3864 -0.1247
34 22 9 -4.8440 -0.1078
34 22 12 -14.5214 0.0267
34 22 15 -1.2301 0.0465
34 22 18 7.0828 -0.1746
34 22 21 -9.6503 0.0860
34 23 -19 5.5246 -0.0516
34 23 -16 -11.2884 0.0285
34 23 -13 -6.3126 -0.0114
34 23 -10 -4.8560 -0.1545
34 23 -7 6.3313 -0.1197
34 23 -4 -7.1109 0.0557
34 23 -1 4.6692 0.0906
34 23 2 9.1187 -0.0712
34 23 5 0.0956 -0.0464
34 23 8 -11.9533 -0.0088
34 23 11 4.7067 0.0176
34 23 14 1.4173 0.1071
34 23 17 -5.2261 -0.0269
34 23 20 6.0022 0.0951
34 24 -20 -5.0965 0.1363
34 24 -17 4.5001 -0.0510
34 24 -14 3.8460 0.1340
34 24 -11 -6.0584 0.1217
34 24 -8 5.2452 -0.0701
34 24 -5 -6.5789 -0.0890
34 24 -2 17.5081 -0.0836
34 24 1 -7.1836 0.0260
34 24 4 16.4091 0.0560
34 24 7 -7.0824 -0.0080
34 24 10 -3.1297 0.0853
34 24 13 11.2959 -0.0151
34 24 16 1.0578 -0.0906
34 24 19 -0.7193 -0.0282
34 25 -18 -13.4418 -0.0541
34 25 -15 1.9389 -0.0990
34 25 -12 2.2480 0.2238
34 25 -9 -0.6841 0.0979
34 25 -6 5.6341 -0.1179
34 25 -3 -6.8772 -0.1489
34 25 0 -10.5118 -0.0154
34 25 3 9.4598 0.1155
34 25 6 4.2676 -0.0369
34 25 9 -6.1766 -0.1177
34 25 12 4.3617 0.0076
34 25 15 -4.2620 0.0687
34 25 18 -0.8325 -0.1240
34 26 -16 -4.9890 -0.0131
34 26 -13 4.3801 0.0500
34 26 -10 7.8808 0.0912
34 26 -7 5.3238 0.1423
34 26 -4 -8.2946 -0.0554
34 26 -1 -2.6236 -0.0833
34 26 2 -7.2551 -0.0687
34 26 5 9.3824 -0.1071
34 26 8 2.7286 0.0166
34 26 11 4.6082 -0.1359
34 26 14 -2.5744 0.0393
34 27 -14 3.4266 0.0114
34 27 -11 -6.0188 -0.1525
34 27 -8 -0.8572 0.1056
34 27 -5 0.1073 0.1270
34 27 -2 0.4125 -0.0845
34 27 1 -3.9514 0.0772
34 27 4 -8.3463 -0.1101
34 27 7 -3.6078 -0.1019
34 27 10 0.6236 0.0082
34 27 13 7.3912 -0.2053
34 28 -9 -6.5566 -0.1080
34 28 -6 11.5023 0.2052
34 28 -3 1.3762 -0.0048
34 28 0 7.1958 -0.1351
34 28 3 1.1507 -0.0494
34 28 6 -13.5572 0.1232
34 28 9 -2.9850 0.0734
34 29 -7 9.4381 -0.1207
34 29 -4 -10.7246 0.1213
34 29 -1 3.6688 0.1689
34 29 2 -0.7759 -0.2354
34 29 5 16.3735 0.0467
34 29 8 3.2253 0.1057
35 0 -34 -6.3243 -0.2504
35 0 -28 4.7898 0.0087
35 0 -22 -9.1571 0.7453
35 0 -16 -6.9358 0.6547
35 0 -10 -12.9269 -1.3241
35 0 -4 -9.9891 -1.1523
35 0 2 -10.8714 1.4490
35 0 8 -1.0515 0.8882
35 0 14 3.6515 0.5161
35 0 20 -7.6860 -1.4512
35 0 26 -2.9979 0.5917
35 0 32 -0.5086 0.0311
35 0 38 0.2808 0.1485
35 1 -35 -2.9778 0.0116
35 1 -32 -5.7828 -0.1715
35 1 -29 -5.4573 -0.1259
35 1 -26 -3.7213 -0.0462
35 1 -23 5.0943 0.2545
35 1 -20 1.8519 0.3827
35 1 -17 0.8879 -0.4704
35 1 -14 3.1740 0.1062
35 1 -11 2.2674 -0.3939
35 1 -8 -6.5636 -0.2491
35 1 -5 6.1501 0.2988
35 1 -2 -3.6169 -0.5163
35 1 1 -0.0599 1.7257
35 1 4 -0.8606 0.5551
35 1 7 -7.7987 -0.7263
35 1 10 -4.6764 0.1366
35 1 13 -4.3228 -0.6853
35 1 16 10.2955 -0.0759
35 1 19 10.4215 -0.7070
35 1 22 -9.9373 -0.1291
35 1 25 5.2072 1.0118
35 1 28 -2.4213 -0.1055
35 1 31 0.4759 -0.0019
35 1 34 -15.8008 -0.1359
35 1 37 3.4428 0.0980
35 2 -36 -18.3566 0.0765
35 2 -33 17.6913 0.0354
35 2 -30 10.7980 -0.1479
35 2 -27 3.7653 -0.2409
35 2 -24 -8.8120 -0.3852
35 2 -21 4.2127 0.0735
35 2 -18 -1.2042 0.1809
35 2 -15 -4.6086 0.2903
35 2 -12 -6.4635 0.2515
35 2 -9 4.7041 0.0256
35 2 -6 -8.4443 0.2145
35 2 -3 3.0435 -0.0206
35 2 0 -2.6747 -1.1919
35 2 3 -1.0554 -0.4760
35 2 6 1.2327 -0.0432
35 2 9 10.8715 0.2554
35 2 12 2.4113 0.2092
35 2 15 -6.6431 -0.2976
35 2 18 -3.3829 0.5890
35 2 21 -3.7917 0.1666
35 2 24 -6.9907 -0.1311
35 2 27 -0.4478 0.0126
35 2 30 -4.5266 -0.1437
35 2 33 -1.8315 0.0624
35 2 36 -0.9343 -0.2196
35 3 -37 3.2157 0.0218
35 3 -34 -6.2223 -0.0170
35 3 -31 4.0935 0.0524
35 3 -28 22.7046 -0.0625
35 3 -25 -0.8134 0.1189
35 3 -22 5.7890 0.3154
35 3 -19 10.2124 0.0624
35 3 -16 -0.4982 0.0461
35 3 -13 -1.2405 -0.1365
35 3 -10 8.4585 0.1160
35 3 -7 1.7170 0.1719
35 3 -4 14.9716 -0.8746
35 3 -1 15.0466 -0.0430
35 3 2 -9.0904 0.3264
35 3 5 -6.2168 0.2366
35 3 8 0.4173 0.1456
35 3 11 10.5490 -0.0294
35 3 14 -23.6823 0.4659
35 3 17 3.3474 0.0008
35 3 20 4.3544 -0.3736
35 3 23 -4.3643 -0.1113
35 3 26 14.7953 -0.0918
35 3 29 5.1963 0.0395
35 3 32 16.4388 0.1640
35 3 35 -3.1044 -0.0146
35 4 -35 7.5277 0.0025
35 4 -32 10.3711 0.0577
35 4 -29 -14.6493 -0.2960
35 4 -26 -8.2382 -0.0133
35 4 -23 -1.5789 0.2160
35 4 -20 14.8561 -0.1901
35 4 -17 -7.1042 0.0960
35 4 -14 10.7647 0.0896
35 4 -11 9.8385 0.0280
35 4 -8 -8.9833 0.4300
35 4 -5 9.4697 -0.1252
35 4 -2 1.3863 -0.2158
35 4 1 -7.3425 -0.0106
35 4 4 -0.0319 -0.4527
35 4 7 3.1096 0.4688
35 4 10 -2.3559 -0.2352
35 4 13 -8.7689 0.0592
35 4 16 9.0381 0.3508
35 4 19 -7.4830 -0.1281
35 4 22 11.0757 -0.1777
35 4 25 -7.1104 -0.1102
35 4 28 5.1270 0.0221
35 4 31 -2.1783 0.2975
35 4 34 2.1300 -0.0221
35 5 -36 -0.2147 0.0072
35 5 -33 -7.8539 -0.0774
35 5 -30 8.5296 -0.1422
35 5 -27 -12.9537 -0.0906
35 5 -24 -4.0790 0.0624
35 5 -21 -12.1964 0.1926
35 5 -18 5.9326 0.0346
35 5 -15 -3.3467 0.0633
35 5 -12 6.0591 -0.2850
35 5 -9 -6.3134 -0.1850
35 5 -6 -2.5909 -0.1060
35 5 -3 0.7003 -0.3700
35 5 0 3.4939 0.1972
35 5 3 -2.6844 0.2592
35 5 6 -7.9940 0.3439
35 5 9 0.7364 0.0896
35 5 12 -8.3139 -0.3478
35 5 15 1.5192 0.0194
35 5 18 -1.8382 -0.2282
35 5 21 -8.3290 -0.2306
35 5 24 0.3117 0.0177
35 5 27 -7.6641 -0.0375
35 5 30 7.4855 0.1367
35 5 33 -23.5494 0.1380
35 5 36 5.1092 -0.0688
35 6 -34 -6.1543 -0.0210
35 6 -31 -0.6604 0.0531
35 6 -28 4.8811 0.0770
35 6 -25 16.3552 0.1047
35 6 -22 -5.1285 -0.0827
35 6 -19 -6.8784 -0.2371
35 6 -16 18.5521 -0.0129
35 6 -13 -6.6033 0.0074
35 6 -10 -9.5008 -0.1525
35 6 -7 -17.4804 0.0211
35 6 -4 3.9107 0.7581
35 6 -1 6.4448 0.6781
35 6 2 2.9982 -0.1485
35 6 5 -5.0032 -0.3415
35 6 8 -2.2960 -0.2952
35 6 11 0.2477 0.1073
35 6 14 11.2662 -0.5476
35 6 17 10.3642 -0.1852
35 6 20 0.9236 0.3901
35 6 23 -6.5829 0.3143
35 6 26 -12.5411 0.0655
35 6 29 5.6472 -0.4272
35 6 32 -5.9373 -0.0084
35 6 35 2.2058 0.0852
35 7 -35 6.9177 -0.0594
35 7 -32 -2.9543 0.0256
35 7 -29 -7.8822 -0.0738
35 7 -26 3.8841 -0.1376
35 7 -23 0.3172 0.2060
35 7 -20 -8.2988 -0.0319
35 7 -17 7.1006 0.0091
35 7 -14 5.5458 -0.0201
35 7 -11 3.0679 0.2608
35 7 -8 8.6915 0.1329
35 7 -5 6.6537 -0.3100
35 7 -2 -2.0549 0.0324
35 7 1 -3.4229 -0.1317
35 7 4 6.5395 -0.2125
35 7 7 8.3012 -0.0339
35 7 10 7.6998 0.0682
35 7 13 3.1409 0.2201
35 7 16 3.3598 -0.0509
35 7 19 7.5589 0.1793
35 7 22 -13.2504 0.0907
35 7 25 0.2814 -0.0214
35 7 28 -8.2844 -0.2238
35 7 31 3.8779 -0.1635
35 7 34 -4.1399 0.1025
35 8 -33 -2.3739 -0.0082
35 8 -30 2.8118 0.0438
35 8 -27 5.9605 -0.2768
35 8 -24 -6.4430 0.1012
35 8 -21 -1.2409 0.2795
35 8 -18 -17.6790 -0.1474
35 8 -15 -2.4925 -0.0334
35 8 -12 2.8253 0.0859
35 8 -9 -2.1307 -0.0170
35 8 -6 19.8321 -0.1001
35 8 -3 -1.4332 -0.2988
35 8 0 0.8625 0.0916
35 8 3 0.9500 0.1862
35 8 6 -15.1606 -0.0622
35 8 9 5.2524 0.1826
35 8 12 -5.8075 0.2397
35 8 15 -2.9284 -0.1293
35 8 18 5.9211 -0.0851
35 8 21 -1.7838 -0.1645
35 8 24 3.4456 -0.1376
35 8 27 -15.1548 0.0656
35 8 30 -4.7413 -0.0745
35 8 33 3.0907 0.0527
35 9 -31 0.1941 -0.0217
35 9 -28 9.1618 -0.0171
35 9 -25 -8.0745 -0.1372
35 9 -22 -1.7591 -0.0477
35 9 -19 7.4517 0.1573
35 9 -16 5.0462 -0.0995
35 9 -13 7.9780 0.0506
35 9 -10 -17.3042 0.1217
35 9 -7 1.3525 0.1585
35 9 -4 11.2128 -0.0634
35 9 -1 -15.7037 -0.1082
35 9 2 7.3443 0.2458
35 9 5 8.2429 0.0341
35 9 8 -10.3086 -0.2036
35 9 11 -16.4831 -0.0352
35 9 14 -4.3168 -0.0316
35 9 17 -2.9949 0.0587
35 9 20 5.7021 -0.1973
35 9 23 -3.1757 0.0927
35 9 26 -5.7589 0.3159
35 9 29 -11.9230 0.0793
35 9 32 12.0251 -0.0616
35 10 -32 -2.7795 -0.0081
35 10 -29 -4.9808 0.0435
35 10 -26 -4.9872 0.0780
35 10 -23 -5.8245 0.0312
35 10 -20 -5.9983 -0.1440
35 10 -17 -12.3266 0.0177
35 10 -14 -6.4875 0.0184
35 10 -11 -0.3561 0.0002
35 10 -8 -5.2715 0.1208
35 10 -5 2.6954 0.0991
35 10 -2 -7.8433 0.0541
35 10 1 -8.3690 0.0667
35 10 4 4.9230 -0.2380
35 10 7 -7.0785 -0.3398
35 10 10 8.3834 -0.0001
35 10 13 5.5552 -0.0132
35 10 16 0.3031 0.1139
35 10 19 -4.8167 0.0717
35 10 22 -9.4062 0.0083
35 10 25 8.0112 0.2212
35 10 28 1.8132 0.0923
35 10 31 9.4476 -0.1734
35 11 -30 -8.6312 0.0421
35 11 -27 -3.4646 -0.0381
35 11 -24 -5.0841 0.0423
35 11 -21 0.3561 0.0299
35 11 -18 7.2008 -0.1170
35 11 -15 16.6691 0.1471
35 11 -12 2.5604 -0.0529
35 11 -9 1.8441 -0.0678
35 11 -6 -1.3643 0.0836
35 11 -3 -0.3946 0.0336
35 11 0 -7.4316 0.2008
35 11 3 -7.5979 -0.3656
35 11 6 12.1574 -0.2070
35 11 9 -0.1537 0.4020
35 11 12 7.2318 0.0644
35 11 15 11.3609 -0.0372
35 11 18 6.7287 -0.1660
35 11 21 3.8048 0.0470
35 11 24 10.3450 0.0167
35 11 27 -5.5576 -0.1592
35 11 30 11.6671 -0.0336
35 12 -31 5.5426 -0.0085
35 12 -28 5.0023 0.0471
35 12 -25 -12.0261 0.0429
35 12 -22 -10.7239 0.0586
35 12 -19 7.4458 0.0619
35 12 -16 14.8351 0.1197
35 12 -13 1.4831 -0.0267
35 12 -10 1.1422 -0.2825
35 12 -7 2.8120 -0.3528
35 12 -4 3.8909 0.1129
35 12 -1 -0.6892 0.2809
35 12 2 -0.2633 -0.0204
35 12 5 5.0488 0.0233
35 12 8 8.6728 0.1560
35 12 11 -4.8643 0.1999
35 12 14 12.8847 -0.2565
35 12 17 19.6615 -0.2904
35 12 20 1.6137 0.1163
35 12 23 -4.3528 -0.0202
35 12 26 -9.8192 -0.0267
35 12 29 -19.1421 0.1118
35 13 -29 2.7039 -0.0476
35 13 -26 -0.5155 -0.0630
35 13 -23 8.9501 0.1231
35 13 -20 11.1006 -0.1227
35 13 -17 2.8704 0.0783
35 13 -14 -9.3055 -0.0432
35 13 -11 -7.2055 -0.0427
35 13 -8 -6.5452 0.1071
35 13 -5 3.8812 -0.0937
35 13 -2 6.4834 0.0985
35 13 1 -1.8001 -0.1439
35 13 4 -1.5894 0.1287
35 13 7 2.9022 0.1405
35 13 10 -12.2641 -0.3317
35 13 13 -3.1100 -0.0215
35 13 16 -4.2676 0.0290
35 13 19 -4.1161 0.1287
35 13 22 6.3322 -0.1053
35 13 25 -3.4133 -0.0993
35 13 28 13.6249 0.1192
35 13 31 -0.1685 -0.2673
35 14 -30 -0.1360 0.0073
35 14 -27 10.8098 -0.1454
35 14 -24 -9.8109 0.0964
35 14 -21 -9.7564 0.1871
35 14 -18 14.4570 0.0331
35 14 -15 -6.2532 0.0685
35 14 -12 3.0181 0.0327
35 14 -9 11.9790 0.2424
35 14 -6 -4.4119 -0.2736
35 14 -3 -10.5706 -0.4397
35 14 0 -12.2780 0.0489
35 14 3 2.9714 0.1437
35 14 6 4.7378 0.0235
35 14 9 -5.5216 -0.2188
35 14 12 20.8390 0.0779
35 14 15 7.2483 0.3827
35 14 18 7.9123 -0.0576
35 14 21 -0.4599 -0.0611
35 14 24 -3.4921 -0.0934
35 14 27 9.0210 0.0397
35 14 30 -1.5505 0.0537
35 15 -28 -5.8927 0.0280
35 15 -25 1.4561 0.0519
35 15 -22 -2.5806 0.0794
35 15 -19 -0.1272 -0.0093
35 15 -16 -2.6039 -0.2574
35 15 -13 -17.9512 -0.0148
35 15 -10 -0.1817 0.1771
35 15 -7 -11.8444 0.0396
35 15 -4 -7.6523 -0.0919
35 15 -1 -7.9579 -0.1449
35 15 2 -4.9722 0.3525
35 15 5 2.6516 0.0160
35 15 8 0.4826 -0.4205
35 15 11 2.6093 0.1042
35 15 14 11.2043 0.2544
35 15 17 0.3340 -0.0171
35 15 20 5.1345 -0.0726
35 15 23 -0.4186 -0.0685
35 15 26 19.1425 0.1496
35 15 29 -5.5513 0.1531
35 16 -26 9.3378 0.0515
35 16 -23 -10.6993 -0.2029
35 16 -20 -12.0764 -0.0845
35 16 -17 3.2572 0.1023
35 16 -14 1.4708 0.0588
35 16 -11 8.6332 0.1210
35 16 -8 14.4282 -0.0696
35 16 -5 8.1112 -0.0192
35 16 -2 5.9261 -0.0792
35 16 1 0.4136 -0.1164
35 16 4 1.8288 -0.0609
35 16 7 -8.0606 -0.1694
35 16 10 14.9388 0.2224
35 16 13 -4.3459 0.1975
35 16 16 -16.5213 -0.2415
35 16 19 3.5474 -0.1024
35 16 22 -9.0107 0.0115
35 16 25 -19.0935 0.0428
35 16 28 1.9754 -0.1394
35 17 -27 6.1619 0.1801
35 17 -24 0.6840 0.1090
35 17 -21 13.5085 0.0306
35 17 -18 10.1907 -0.1248
35 17 -15 1.2461 0.1536
35 17 -12 18.4248 -0.1940
35 17 -9 -14.7864 -0.3095
35 17 -6 -15.5821 0.0003
35 17 -3 2.8573 0.2919
35 17 0 -7.0871 0.1197
35 17 3 3.7975 -0.0574
35 17 6 -23.7464 0.0748
35 17 9 -10.7424 0.0931
35 17 12 -8.2387 -0.1002
35 17 15 -1.4755 -0.1997
35 17 18 -1.3316 0.0052
35 17 21 -4.1087 0.1490
35 17 24 -0.6495 0.0316
35 17 27 -14.3743 0.0541
35 18 -25 3.3448 0.0504
35 18 -22 6.5571 0.0391
35 18 -19 -0.9053 -0.1433
35 18 -16 -7.5313 -0.0346
35 18 -13 -1.5040 0.1267
35 18 -10 3.8622 0.0593
35 18 -7 -11.8703 -0.0680
35 18 -4 -14.1075 0.0433
35 18 -1 4.8172 0.1593
35 18 2 -0.0766 -0.0072
35 18 5 15.7285 -0.1048
35 18 8 15.2850 0.0269
35 18 11 2.9112 -0.1333
35 18 14 0.3021 0.0059
35 18 17 7.4696 0.1059
35 18 20 4.2599 0.1735
35 18 23 -17.6328 0.0444
35 18 26 4.1290 -0.0990
35 19 -23 -4.2319 0.1178
35 19 -20 -1.5410 -0.0010
35 19 -17 -7.8096 0.0467
35 19 -14 -10.8112 -0.0248
35 19 -11 1.3087 0.1635
35 19 -8 6.4161 -0.0271
35 19 -5 14.6480 -0.3716
35 19 -2 4.3183 -0.2657
35 19 1 10.0304 0.1393
35 19 4 17.4793 0.1895
35 19 7 1.0536 0.0069
35 19 10 -15.4430 -0.0172
35 19 13 10.4495 0.1167
35 19 16 -10.9191 0.1233
35 19 19 -10.2584 -0.1312
35 19 22 -0.2737 -0.1584
35 19 25 10.1316 -0.3035
35 20 -24 12.3998 0.0118
35 20 -21 0.9210 -0.1380
35 20 -18 -0.3088 -0.1906
35 20 -15 4.3035 -0.1584
35 20 -12 -5.6384 0.0806
35 20 -9 6.8050 0.2836
35 20 -6 14.4222 0.0242
35 20 -3 7.9482 -0.0795
35 20 0 10.5610 0.1175
35 20 3 2.8575 0.2718
35 20 6 5.1929 -0.0249
35 20 9 -6.6184 -0.2186
35 20 12 5.6202 -0.0081
35 20 15 1.3266 0.2405
35 20 18 -1.7213 -0.1689
35 20 21 8.1719 -0.1471
35 20 24 2.6709 0.1398
35 21 -22 -9.7601 -0.0278
35 21 -19 -0.1617 0.1066
35 21 -16 -10.1521 -0.0949
35 21 -13 6.5219 0.0095
35 21 -10 4.7094 0.1882
35 21 -7 -4.5609 0.1320
35 21 -4 3.7345 0.1521
35 21 -1 -19.6199 -0.0946
35 21 2 0.8786 -0.0629
35 21 5 0.4232 0.0325
35 21 8 3.1238 -0.2534
35 21 11 -14.5406 -0.0720
35 21 14 -1.4008 0.0831
35 21 17 -10.8472 0.0372
35 21 20 6.8317 0.1177
35 21 23 -4.5610 0.1969
35 22 -20 -6.5381 0.1156
35 22 -17 -2.7224 0.0990
35 22 -14 3.5286 -0.3068
35 22 -11 -9.5222 -0.0834
35 22 -8 4.7167 0.0599
35 22 -5 -0.8928 0.1692
35 22 -2 -5.4148 -0.0504
35 22 1 14.3338 -0.3072
35 22 4 3.1946 0.1584
35 22 7 -2.0937 0.1080
35 22 10 3.0312 -0.1418
35 22 13 12.3917 0.0123
35 22 16 6.3242 0.0834
35 22 19 9.9513 0.0319
35 23 -18 4.4294 0.1007
35 23 -15 4.6261 0.0563
35 23 -12 -0.7536 -0.0964
35 23 -9 -6.1574 -0.0322
35 23 -6 -7.5471 0.2097
35 23 -3 3.1218 0.0704
35 23 0 14.5641 -0.1533
35 23 3 9.6477 -0.0130
35 23 6 6.4286 0.1555
35 23 9 -2.6995 0.1425
35 23 12 -13.4719 -0.1697
35 23 15 -15.3292 -0.0667
35 23 18 -5.5787 0.1345
35 24 -16 -4.3365 0.0376
35 24 -13 0.0156 0.1589
35 24 -10 -4.6912 -0.1067
35 24 -7 2.3424 -0.0829
35 24 -4 9.2048 0.0490
35 24 -1 7.9736 0.0374
35 24 2 -1.7119 0.0788
35 24 5 2.8634 -0.0727
35 24 8 -7.7498 0.1249
35 24 11 -3.2424 0.0303
35 24 14 -12.0983 -0.2657
35 24 17 -2.7089 -0.1003
35 25 -14 -4.3466 0.1098
35 25 -11 3.2159 0.1282
35 25 -8 -5.0325 -0.1003
35 25 -5 -15.6363 -0.1231
35 25 -2 7.1445 0.0337
35 25 1 -12.7953 0.0477
35 25 4 0.4275 0.0411
35 25 7 0.3733 -0.0834
35 25 10 -1.5499 0.0249
35 25 13 8.5783 0.1671
35 25 16 2.5769 -0.0804
35 26 -12 3.2291 0.0550
35 26 -9 6.6578 0.1690
35 26 -6 8.6447 -0.1324
35 26 -3 -0.6042 -0.0787
35 26 0 -6.9072 0.1142
35 26 3 6.6827 0.0092
35 26 6 0.3245 0.0014
35 26 9 -5.9437 -0.0971
35 26 12 3.8849 0.0003
35 27 -10 11.1090 0.0359
35 27 -7 -9.4884 0.1480
35 27 -4 -4.2600 -0.1228
35 27 -1 -3.7534 0.0472
35 27 2 3.1337 0.1608
35 27 5 -0.7223 -0.0317
35 27 8 0.2800 -0.0176
35 27 11 3.7550 -0.1200
35 28 -5 -15.0593 0.0660
35 28 -2 10.3239 -0.0687
35 28 1 1.9121 -0.0737
35 28 4 7.9389 0.2882
35 28 7 -3.5275 0.0558
36 0 -36 -3.2450 0.1499
36 0 -30 11.7511 0.1162
36 0 -24 3.8273 0.0906
36 0 -18 -3.8558 -0.7143
36 0 -12 -0.0716 0.0023
36 0 -6 -24.2950 0.1020
36 0 0 -4.8943 3.1131
36 0 6 9.5901 -1.5510
36 0 12 6.3352 -0.5393
36 0 18 -8.9199 -1.8909
36 0 24 4.6797 1.9790
36 0 30 3.2029 -0.1662
36 0 36 1.6922 0.1273
36 1 -37 23.9741 -0.0721
36 1 -34 -22.1143 0.1247
36 1 -31 -5.4683 0.0706
36 1 -28 2.7338 -0.0642
36 1 -25 14.2334 -0.3355
36 1 -22 -3.5026 -0.1201
36 1 -19 0.6088 -0.0560
36 1 -16 -1.6735 -0.1768
36 1 -13 4.1389 0.3657
36 1 -10 -5.8716 0.3457
36 1 -7 6.7800 0.2870
36 1 -4 -5.5630 0.1002
36 1 -1 -0.7287 0.1418
36 1 2 -9.2138 0.0812
36 1 5 9.9645 -1.2211
36 1 8 11.3011 -0.2586
36 1 11 -36.0851 -0.0331
36 1 14 -12.7882 -0.0089
36 1 17 0.9270 0.1771
36 1 20 -2.8827 0.0289
36 1 23 3.7166 0.3913
36 1 26 3.7318 0.0651
36 1 29 -8.4997 -0.3283
36 1 32 8.6524 0.0079
36 1 35 -6.0512 0.0965
36 2 -35 -4.0678 0.0257
36 2 -32 9.6243 0.0229
36 2 -29 -1.4650 0.0432
36 2 -26 -1.0154 -0.2310
36 2 -23 5.7018 -0.0903
36 2 -20 7.9808 0.3685
36 2 -17 -10.1764 0.0055
36 2 -14 3.7877 -0.3107
36 2 -11 -4.8044 0.0052
36 2 -8 -0.5701 -0.1987
36 2 -5 -7.6135 -0.1689
36 2 -2 1.9323 -0.8150
36 2 1 -0.7883 -0.1072
36 2 4 9.2739 1.3528
36 2 7 -1.0230 -0.0711
36 2 10 -7.3471 0.2895
36 2 13 6.6406 0.1382
36 2 16 10.8737 0.3663
36 2 19 -2.0641 0.0936
36 2 22 -1.4100 -0.8620
36 2 25 3.4738 -0.0799
36 2 28 9.1351 0.2044
36 2 31 6.4636 -0.1789
36 2 34 0.1435 0.1196
36 3 -36 -1.3331 0.1041
36 3 -33 -6.2390 0.1995
36 3 -30 -8.4187 0.1413
36 3 -27 16.1834 -0.0800
36 3 -24 -12.3702 -0.0483
36 3 -21 19.6937 -0.0682
36 3 -18 -11.9916 -0.0028
36 3 -15 7.3939 -0.2278
36 3 -12 8.8529 -0.0008
36 3 -9 -3.0091 0.3985
36 3 -6 8.4010 -0.1790
36 3 -3 -4.3004 -0.0725
36 3 0 -2.9586 0.2018
36 3 3 -11.9750 -0.1597
36 3 6 -2.1067 0.3344
36 3 9 -10.3215 -0.5936
36 3 12 -13.3335 0.0851
36 3 15 -10.1369 0.1633
36 3 18 -8.3368 -0.1292
36 3 21 -0.9912 0.0913
36 3 24 -2.6078 -0.2839
36 3 27 -12.7607 0.0865
36 3 30 1.6178 0.0223
36 3 33 -11.7798 -0.0471
36 3 36 12.3137 -0.0758
36 4 -34 0.3007 0.0034
36 4 -31 1.5597 -0.1039
36 4 -28 1.5192 0.0218
36 4 -25 3.9277 -0.0595
36 4 -22 -10.4326 -0.0331
36 4 -19 7.0535 0.2439
36 4 -16 2.5590 0.0816
36 4 -13 -20.3789 0.0767
36 4 -10 -5.5791 -0.0892
36 4 -7 0.2268 0.1580
36 4 -4 4.7044 -0.1300
36 4 -1 -12.1283 -0.4875
36 4 2 -7.2305 -0.0294
36 4 5 4.4022 0.5563
36 4 8 2.2456 -0.0347
36 4 11 -10.0264 -0.2721
36 4 14 -8.4962 0.1862
36 4 17 3.4744 0.1664
36 4 20 5.7882 -0.0580
36 4 23 3.6864 -0.1236
36 4 26 5.1541 0.0719
36 4 29 -9.6918 0.1613
36 4 32 -19.6536 -0.1573
36 4 35 -3.0432 0.0322
36 5 -35 2.7637 0.1425
36 5 -32 -2.5240 -0.0628
36 5 -29 -13.1806 0.0971
36 5 -26 -9.9574 -0.0962
36 5 -23 -19.2465 0.0022
36 5 -20 -7.7469 0.0082
36 5 -17 15.2097 -0.3835
36 5 -14 1.6021 -0.0257
36 5 -11 7.0819 -0.0546
36 5 -8 6.0493 0.1135
36 5 -5 9.3962 0.4162
36 5 -2 0.3279 0.2843
36 5 1 13.1467 0.2487
36 5 4 -10.3405 -0.1695
36 5 7 -0.9975 -0.2139
36 5 10 -5.8006 -0.1933
36 5 13 9.2886 -0.2933
36 5 16 -6.8130 -0.0529
36 5 19 4.5582 0.0616
36 5 22 11.1039 0.2382
36 5 25 -3.7004 0.0859
36 5 28 -11.8952 0.0844
36 5 31 -6.8597 -0.1237
36 5 34 0.2380 0.0600
36 6 -33 -1.2694 0.0858
36 6 -30 -12.4702 0.1309
36 6 -27 7.0443 0.0512
36 6 -24 16.3135 -0.2894
36 6 -21 -4.7280 -0.1468
36 6 -18 11.0922 0.1642
36 6 -15 6.3417 0.0651
36 6 -12 10.6034 0.0992
36 6 -9 -6.6404 -0.0841
36 6 -6 0.3318 0.3436
36 6 -3 3.1201 0.3956
36 6 0 10.7746 -0.5075
36 6 3 -7.9660 -0.3377
36 6 6 -1.4665 -0.2597
36 6 9 6.9709 0.1442
36 6 12 -1.9307 0.1749
36 6 15 -4.1461 -0.2383
36 6 18 -6.3032 0.3672
36 6 21 3.4479 0.2046
36 6 24 -7.7078 0.0057
36 6 27 8.4920 -0.0567
36 6 30 8.4783 -0.1115
36 6 33 0.8410 0.1255
36 7 -34 -13.7882 0.0100
36 7 -31 -0.7038 0.0225
36 7 -28 14.0258 -0.0233
36 7 -25 -11.5014 0.1764
36 7 -22 6.7393 0.1004
36 7 -19 14.3777 0.0423
36 7 -16 8.2438 0.1080
36 7 -13 -12.2662 -0.0128
36 7 -10 0.0752 -0.2375
36 7 -7 -8.7789 -0.4131
36 7 -4 7.0696 -0.1642
36 7 -1 -7.4647 0.1159
36 7 2 -5.2679 0.1833
36 7 5 8.9232 0.2301
36 7 8 3.6239 0.2482
36 7 11 7.0089 0.2404
36 7 14 -4.6055 -0.0133
36 7 17 -0.8522 -0.2203
36 7 20 -9.9537 -0.1949
36 7 23 -14.5099 -0.1901
36 7 26 -4.3868 0.1203
36 7 29 -6.7715 0.1665
36 7 32 -1.1499 0.0318
36 8 -32 -3.4469 0.0033
36 8 -29 17.6255 -0.1032
36 8 -26 8.9158 -0.1775
36 8 -23 -2.2709 0.0250
36 8 -20 -0.1430 0.1426
36 8 -17 -14.7297 -0.0881
36 8 -14 -16.8935 0.1823
36 8 -11 4.9327 0.0129
36 8 -8 -5.2191 0.1576
36 8 -5 4.0379 -0.0198
36 8 -2 -7.5171 -0.3074
36 8 1 -2.9643 0.2832
36 8 4 0.4492 0.0927
36 8 7 -10.6822 -0.0656
36 8 10 12.4992 -0.2143
36 8 13 -3.5304 0.0009
36 8 16 -5.0333 0.1049
36 8 19 10.1130 -0.0988
36 8 22 1.9577 -0.1547
36 8 25 -0.2073 0.0492
36 8 28 2.1494 0.2729
36 8 31 2.4740 -0.0281
36 9 -33 5.4570 0.0699
36 9 -30 -4.4980 -0.0531
36 9 -27 1.5677 0.0375
36 9 -24 1.4101 -0.2155
36 9 -21 -18.3982 0.0733
36 9 -18 6.0078 -0.0224
36 9 -15 17.2045 0.0086
36 9 -12 -17.8331 0.2136
36 9 -9 8.4678 0.1948
36 9 -6 1.4525 -0.0610
36 9 -3 -4.5051 -0.3433
36 9 0 8.5230 -0.0417
36 9 3 -2.4315 0.1067
36 9 6 0.1503 -0.2962
36 9 9 3.5280 -0.1281
36 9 12 3.7797 0.2607
36 9 15 9.5209 0.4099
36 9 18 -4.8772 -0.0155
36 9 21 -6.9882 0.0459
36 9 24 -4.1151 0.0568
36 9 27 17.3744 -0.0906
36 9 30 -0.1503 -0.1190
36 9 33 -16.5824 -0.1408
36 10 -31 -0.6877 0.1043
36 10 -28 10.5825 0.1414
36 10 -25 3.6128 -0.0765
36 10 -22 -8.6204 -0.0713
36 10 -19 -11.3069 -0.0354
36 10 -16 2.1853 0.0366
36 10 -13 12.3412 -0.0490
36 10 -10 -9.3697 0.0279
36 10 -7 1.6012 0.1666
36 10 -4 6.4180 0.0222
36 10 -1 11.5202 -0.1592
36 10 2 9.3605 -0.1838
36 10 5 0.2402 0.0078
36 10 8 7.7484 0.1418
36 10 11 13.6807 -0.0255
36 10 14 -9.9206 0.1579
36 10 17 3.4051 0.0985
36 10 20 -12.2808 -0.0068
36 10 23 -2.1723 -0.1250
36 10 26 5.5676 -0.1640
36 10 29 1.1129 -0.0920
36 10 32 8.0160 -0.0743
36 11 -29 3.0591 0.0964
36 11 -26 -4.3403 0.0766
36 11 -23 -16.1883 -0.0165
36 11 -20 -7.7817 0.0339
36 11 -17 -8.5547 0.1258
36 11 -14 0.2757 0.0185
36 11 -11 9.5002 -0.2154
36 11 -8 -8.4738 -0.0218
36 11 -5 6.7472 0.1646
36 11 -2 4.2362 0.0511
36 11 1 -0.7264 -0.2034
36 11 4 -7.0895 0.0356
36 11 7 -7.5646 0.4710
36 11 10 24.0552 -0.1539
36 11 13 -10.9597 -0.2314
36 11 16 -6.5205 -0.1365
36 11 19 -5.4258 0.0491
36 11 22 3.2911 0.1255
36 11 25 -3.2858 -0.1950
36 11 28 5.3056 0.1440
36 11 31 -10.7934 0.2559
36 12 -30 -13.5285 -0.0581
36 12 -27 -9.7542 -0.0942
36 12 -24 -12.8275 -0.1213
36 12 -21 9.5628 0.1111
36 12 -18 3.9099 0.0900
36 12 -15 -2.1945 -0.2075
36 12 -12 9.1936 -0.0805
36 12 -9 3.8333 -0.0289
36 12 -6 -7.1964 0.2532
36 12 -3 -14.0864 0.1495
36 12 0 -12.0511 -0.2588
36 12 3 5.2413 0.1582
36 12 6 3.4965 0.1328
36 12 9 8.3040 -0.1712
36 12 12 -5.1603 -0.2141
36 12 15 -12.5526 -0.1130
36 12 18 -9.1639 0.2134
36 12 21 -2.3140 0.0709
36 12 24 7.4201 0.0278
36 12 27 5.7222 0.1057
36 12 30 -9.3441 -0.0230
36 13 -28 -6.1464 -0.1341
36 13 -25 8.7540 0.0112
36 13 -22 -4.5593 -0.0860
36 13 -19 10.1570 0.0836
36 13 -16 5.1192 -0.0183
36 13 -13 -2.3233 -0.1574
36 13 -10 2.4323 0.1914
36 13 -7 4.8711 0.0279
36 13 -4 -3.5872 -0.1373
36 13 -1 -6.7362 -0.1335
36 13 2 7.2376 0.1630
36 13 5 4.0031 0.2653
36 13 8 6.4358 -0.2277
36 13 11 4.8085 -0.2098
36 13 14 -1.5375 0.2808
36 13 17 -0.0571 0.0338
36 13 20 5.1265 -0.1219
36 13 23 2.1208 -0.0830
36 13 26 -2.8806 -0.0178
36 13 29 -12.4988 0.0246
36 14 -29 -2.1424 -0.0631
36 14 -26 4.3018 0.0534
36 14 -23 -6.4093 0.1923
36 14 -20 -8.5073 -0.0034
36 14 -17 1.4986 -0.2948
36 14 -14 -7.0617 0.0652
36 14 -11 -1.4183 0.0567
36 14 -8 13.1673 -0.0932
36 14 -5 9.4117 -0.0613
36 14 -2 -1.6119 -0.0845
36 14 1 -13.9729 0.3536
36 14 4 13.6477 0.0006
36 14 7 24.0562 -0.0594
36 14 10 -3.1960 0.0502
36 14 13 11.1777 0.1144
36 14 16 11.2534 0.0549
36 14 19 -2.6863 -0.1495
36 14 22 -17.5714 -0.1213
36 14 25 -7.6888 -0.0521
36 14 28 1.2331 0.1014
36 15 -27 4.2389 -0.1323
36 15 -24 -1.1877 -0.0938
36 15 -21 -1.4978 0.0007
36 15 -18 -2.4640 -0.0780
36 15 -15 9.5869 -0.0345
36 15 -12 7.3963 0.2621
36 15 -9 -8.6569 -0.0039
36 15 -6 0.9550 -0.0659
36 15 -3 6.6639 -0.0488
36 15 0 -4.2720 0.1686
36 15 3 -3.5223 -0.0957
36 15 6 5.5477 -0.1872
36 15 9 -19.6511 0.2412
36 15 12 -1.2313 0.1731
36 15 15 -7.7643 -0.1097
36 15 18 -6.3841 -0.1531
36 15 21 -1.7799 0.0426
36 15 24 -2.9790 0.1728
36 15 27 -5.1076 -0.0333
36 16 -25 -2.1041 -0.1783
36 16 -22 -15.2071 0.0611
36 16 -19 -11.9175 0.0831
36 16 -16 -15.4655 -0.0063
36 16 -13 -10.5670 -0.1304
36 16 -10 -5.8938 -0.0667
36 16 -7 -13.2085 0.1947
36 16 -4 4.1062 -0.0154
36 16 -1 -5.5725 0.0250
36 16 2 -4.9169 -0.0782
36 16 5 -2.1520 -0.0120
36 16 8 13.2464 0.1891
36 16 11 -3.7524 -0.0438
36 16 14 -3.9671 -0.2301
36 16 17 -5.8074 -0.0550
36 16 20 -10.7664 0.0850
36 16 23 0.6201 0.2031
36 16 26 9.6662 -0.1350
36 17 -23 -15.3278 0.0277
36 17 -20 -11.2041 0.0046
36 17 -17 -11.0523 -0.0542
36 17 -14 -0.0237 -0.2002
36 17 -11 -3.9823 -0.2374
36 17 -8 -5.7762 0.3801
36 17 -5 -9.5302 0.3091
36 17 -2 -6.8406 0.0384
36 17 1 0.6936 -0.1660
36 17 4 11.9836 -0.0180
36 17 7 -9.4323 0.0678
36 17 10 -2.3073 -0.3495
36 17 13 9.6772 -0.1122
36 17 16 -15.2778 0.3091
36 17 19 -1.8682 0.1093
36 17 22 1.9971 0.0826
36 17 25 -2.1184 -0.0478
36 18 -24 7.4862 0.0421
36 18 -21 -10.2401 0.0471
36 18 -18 13.6848 0.1389
36 18 -15 -1.6662 0.0483
36 18 -12 -6.2180 -0.0939
36 18 -9 -18.0461 -0.1064
36 18 -6 -1.4345 -0.0086
36 18 -3 9.7900 -0.0653
36 18 0 4.1948 -0.0591
36 18 3 -9.3419 -0.0205
36 18 6 -8.9731 0.2470
36 18 9 5.4988 -0.0338
36 18 12 12.4313 -0.1312
36 18 15 -8.4369 0.2197
36 18 18 18.4323 0.0791
36 18 21 -2.2487 -0.2157
36 18 24 2.3791 -0.1746
36 19 -22 0.9156 -0.0384
36 19 -19 8.9568 0.0267
36 19 -16 8.9003 -0.0260
36 19 -13 0.2972 -0.1364
36 19 -10 0.4754 -0.0057
36 19 -7 -2.5050 -0.1320
36 19 -4 14.7453 -0.0629
36 19 -1 -7.9012 0.1514
36 19 2 4.8754 0.0610
36 19 5 -9.4991 0.2082
36 19 8 -7.3107 0.0562
36 19 11 7.4677 -0.1647
36 19 14 6.0894 -0.0747
36 19 17 6.1382 -0.1421
36 19 20 -2.8222 -0.2354
36 19 23 16.0842 -0.0967
36 20 -20 0.3128 -0.0815
36 20 -17 5.5798 0.0380
36 20 -14 -7.1451 0.2003
36 20 -11 9.2470 0.0378
36 20 -8 8.9580 0.0256
36 20 -5 2.4569 -0.0390
36 20 -2 11.6758 0.0478
36 20 1 9.5096 -0.0994
36 20 4 -13.7111 -0.2263
36 20 7 10.0936 -0.0164
36 20 10 9.1019 0.1289
36 20 13 1.5246 -0.0646
36 20 16 -18.7853 -0.0537
36 20 19 5.0847 0.0650
36 20 22 2.1878 0.1829
36 21 -21 16.4283 0.0574
36 21 -18 18.1230 -0.0164
36 21 -15 -3.9264 0.0001
36 21 -12 15.6086 0.0873
36 21 -9 4.7852 -0.1721
36 21 -6 -12.2010 -0.1806
36 21 -3 1.5399 -0.0219
36 21 0 2.1501 -0.1102
36 21 3 -0.9029 -0.0215
36 21 6 -2.8887 -0.1640
36 21 9 -3.5175 0.2206
36 21 12 -4.6977 0.2624
36 21 15 -15.4728 -0.1324
36 21 18 -3.2861 0.0320
36 21 21 -15.2246 0.1209
36 22 -19 11.7890 -0.0613
36 22 -16 0.3477 -0.0822
36 22 -13 0.3619 -0.0480
36 22 -10 -1.7450 0.1547
36 22 -7 2.3337 0.0278
36 22 -4 -0.0261 -0.0526
36 22 -1 -5.8389 -0.0158
36 22 2 6.9406 0.0086
36 22 5 2.0597 0.0022
36 22 8 1.2787 -0.0208
36 22 11 1.6092 0.0749
36 22 14 11.5192 0.0244
36 22 17 15.6983 -0.0963
36 23 -17 1.8664 -0.0226
36 23 -14 2.7278 -0.0258
36 23 -11 12.6700 -0.0886
36 23 -8 5.3407 0.1878
36 23 -5 -5.1691 -0.0021
36 23 -2 0.9513 -0.0990
36 23 1 6.0971 0.0915
36 23 4 7.2071 -0.0291
36 23 7 -2.5731 0.0732
36 23 10 -6.4684 -0.1583
36 23 13 5.2805 -0.1121
36 23 16 -6.9789 0.3443
36 24 -15 -6.0744 -0.0091
36 24 -12 14.6156 -0.1745
36 24 -9 1.3677 -0.1325
36 24 -6 4.5186 0.0519
36 24 -3 0.1343 -0.0755
36 24 0 4.8583 0.0985
36 24 3 0.1771 0.0312
36 24 6 -0.4795 -0.0205
36 24 9 -4.9540 0.0645
36 24 12 -0.9115 -0.1846
36 24 15 6.5719 -0.0530
36 25 -13 -2.0102 0.0793
36 25 -10 1.8439 -0.0738
36 25 -7 5.1010 -0.2409
36 25 -4 9.8755 -0.0341
36 25 -1 2.8189 -0.0037
36 25 2 -11.2545 -0.0001
36 25 5 -15.6946 0.0746
36 25 8 -4.5516 0.0149
36 25 11 -4.3680 0.1974
36 25 14 1.9336 -0.0196
36 26 -11 -6.6626 0.1760
36 26 -8 2.6578 0.0059
36 26 -5 -8.7302 -0.1948
36 26 -2 0.3428 0.0917
36 26 1 -6.2367 -0.0252
36 26 4 2.1459 -0.1621
36 26 7 -3.4206 0.0651
36 26 10 -0.1902 0.0112
36 27 -6 -1.8275 0.1600
36 27 -3 2.9652 -0.1314
36 27 0 8.3827 0.0258
36 27 3 3.7868 0.0617
36 27 6 3.2401 -0.0690
37 0 -32 6.0553 0.0722
37 0 -26 -3.7941 0.5011
37 0 -20 -16.8150 -1.1376
37 0 -14 2.3995 0.0939
37 0 -8 -3.6809 0.4872
37 0 -2 12.0071 3.2511
37 0 4 0.9762 -3.7662
37 0 10 -3.0146 -0.2226
37 0 16 -6.6183 -1.3554
37 0 22 -5.4492 2.6960
37 0 28 -3.2903 -0.8777
37 0 34 4.0986 0.0346
37 1 -36 -1.9878 -0.1465
37 1 -33 -3.1750 -0.1968
37 1 -30 5.4468 -0.0813
37 1 -27 10.9455 0.1883
37 1 -24 -8.9207 0.2785
37 1 -21 8.2471 -0.0735
37 1 -18 -7.0463 0.3291
37 1 -15 1.4938 0.4700
37 1 -12 -4.4948 -0.2274
37 1 -9 1.3450 -0.6651
37 1 -6 9.9863 -0.4193
37 1 -3 -0.3008 -0.3081
37 1 0 19.8313 -0.0776
37 1 3 10.6687 0.0894
37 1 6 -5.6624 0.3305
37 1 9 1.9783 1.1195
37 1 12 -14.6451 0.0636
37 1 15 1.5427 0.0022
37 1 18 4.4365 0.0383
37 1 21 -0.1752 -0.2530
37 1 24 17.4750 -0.2001
37 1 27 -14.7899 -0.1272
37 1 30 -1.2971 -0.0253
37 1 33 0.3248 0.0974
37 1 36 -1.3998 0.0648
37 2 -34 -2.2356 0.1107
37 2 -31 -0.6696 0.0205
37 2 -28 12.7873 -0.0828
37 2 -25 -6.9883 0.1326
37 2 -22 5.8531 0.0078
37 2 -19 -2.0577 -0.2489
37 2 -16 -2.1437 -0.4349
37 2 -13 -14.7149 0.0878
37 2 -10 -0.2398 0.2508
37 2 -7 -7.2632 -0.5125
37 2 -4 2.8422 0.1677
37 2 -1 -3.2907 0.5224
37 2 2 -4.7400 0.8774
37 2 5 -12.4124 -0.0878
37 2 8 -3.0576 -0.8952
37 2 11 17.0547 0.3760
37 2 14 9.0093 -0.0584
37 2 17 -1.7970 -0.3690
37 2 20 7.4762 -0.1043
37 2 23 -21.2109 -0.0210
37 2 26 0.7452 0.6045
37 2 29 0.9242 -0.0203
37 2 32 -2.9884 -0.1715
37 3 -35 3.9144 0.1366
37 3 -32 1.9017 0.1482
37 3 -29 -15.5173 -0.0783
37 3 -26 -3.4838 0.0078
37 3 -23 -3.6124 -0.2022
37 3 -20 11.5314 0.0532
37 3 -17 6.8571 0.1126
37 3 -14 8.5087 -0.1248
37 3 -11 -0.7507 0.4012
37 3 -8 -3.2122 -0.0557
37 3 -5 -3.3059 -0.2983
37 3 -2 -2.3035 0.1653
37 3 1 9.9852 -0.5677
37 3 4 2.5448 0.2221
37 3 7 4.4164 -0.2689
37 3 10 12.1252 -0.1280
37 3 13 -20.5290 0.3625
37 3 16 8.1527 -0.2554
37 3 19 -0.0324 0.2611
37 3 22 2.7096 0.0055
37 3 25 4.8267 -0.1748
37 3 28 -7.2251 0.1666
37 3 31 4.8304 -0.1727
37 3 34 -8.7956 -0.0571
37 4 -33 -11.1358 0.0231
37 4 -30 2.1305 0.0906
37 4 -27 9.3333 0.1192
37 4 -24 -5.7892 0.0785
37 4 -21 -7.4249 0.0796
37 4 -18 7.4355 -0.1199
37 4 -15 10.6920 -0.1498
37 4 -12 -0.2243 0.0364
37 4 -9 6.9652 0.1271
37 4 -6 -11.5113 -0.0177
37 4 -3 13.2233 -0.1063
37 4 0 -3.4890 0.2573
37 4 3 -1.1866 0.3957
37 4 6 -4.0011 -0.3384
37 4 9 1.9669 -0.2559
37 4 12 -8.6859 0.3203
37 4 15 3.0214 0.3036
37 4 18 -10.9690 -0.1378
37 4 21 14.5245 -0.0900
37 4 24 3.6925 0.1521
37 4 27 14.3635 0.0922
37 4 30 1.5700 -0.0708
37 4 33 0.7114 -0.0750
37 5 -34 -4.2467 0.0035
37 5 -31 2.6626 0.0617
37 5 -28 -3.4729 0.0290
37 5 -25 18.4644 -0.1778
37 5 -22 17.6249 -0.1672
37 5 -19 1.8317 -0.0942
37 5 -16 -2.9737 0.0706
37 5 -13 -19.4403 0.1724
37 5 -10 9.1572 0.2053
37 5 -7 1.7038 0.2673
37 5 -4 5.1442 0.1999
37 5 -1 2.4211 -0.3423
37 5 2 -5.3583 -0.4603
37 5 5 10.8899 -0.4662
37 5 8 -3.8959 0.1704
37 5 11 -17.1408 0.0005
37 5 14 -15.0656 0.1055
37 5 17 -12.4297 0.3007
37 5 20 -3.4556 0.1127
37 5 23 -5.2652 -0.0916
37 5 26 -11.6904 -0.1624
37 5 29 3.1486 0.0177
37 5 32 -7.0835 0.0147
37 6 -32 -1.9306 0.1246
37 6 -29 -0.8050 -0.0287
37 6 -26 -0.3353 0.0915
37 6 -23 -4.1787 -0.1505
37 6 -20 -10.2308 0.2085
37 6 -17 -12.9526 0.2555
37 6 -14 -3.2000 -0.2391
37 6 -11 -0.7941 -0.2489
37 6 -8 2.8549 -0.3066
37 6 -5 6.1712 0.3024
37 6 -2 3.8639 -0.2818
37 6 1 -1.3493 -0.2936
37 6 4 2.8341 0.3410
37 6 7 11.4508 0.3036
37 6 10 -5.4673 0.3366
37 6 13 -4.7155 -0.4469
37 6 16 13.4177 0.0086
37 6 19 7.2604 0.1822
37 6 22 -8.4261 -0.2567
37 6 25 12.1106 -0.1582
37 6 28 -18.9957 0.0145
37 6 31 -12.7653 0.2080
37 7 -33 -1.6920 0.1788
37 7 -30 -14.1864 0.0370
37 7 -27 9.9094 0.0760
37 7 -24 11.6885 0.1389
37 7 -21 -9.5265 -0.1355
37 7 -18 16.3208 0.0260
37 7 -15 -4.5071 -0.1514
37 7 -12 -13.1501 -0.2597
37 7 -9 11.8003 -0.1216
37 7 -6 5.5191 0.0834
37 7 -3 1.6750 0.3834
37 7 0 -4.8493 0.3138
37 7 3 -11.2315 0.0819
37 7 6 3.4044 0.1159
37 7 9 1.1383 -0.2279
37 7 12 10.6396 -0.3908
37 7 15 9.6353 -0.2164
37 7 18 -25.7592 -0.0492
37 7 21 12.3096 0.1099
37 7 24 4.5404 0.1448
37 7 27 1.4320 0.1181
37 7 30 -9.6896 0.0296
37 7 33 1.6180 -0.1046
37 8 -31 5.3701 -0.1266
37 8 -28 -2.7849 -0.1019
37 8 -25 3.2472 0.1065
37 8 -22 -14.4871 0.0933
37 8 -19 8.6551 -0.1519
37 8 -16 5.1653 0.1138
37 8 -13 9.6800 0.2583
37 8 -10 4.7275 0.1176
37 8 -7 0.5955 -0.2389
37 8 -4 7.2750 -0.3604
37 8 -1 -3.4831 0.1691
37 8 2 3.0983 -0.0416
37 8 5 -3.3210 -0.2500
37 8 8 8.7047 -0.1659
37 8 11 -1.3758 0.0576
37 8 14 17.5992 0.3304
37 8 17 -7.5233 -0.1238
37 8 20 -10.4946 0.0839
37 8 23 7.8143 0.1006
37 8 26 -10.3229 -0.1104
37 8 29 2.5261 -0.0922
37 8 32 -13.4524 -0.1192
37 9 -32 3.8484 -0.0294
37 9 -29 -0.6113 0.0063
37 9 -26 3.8316 0.0204
37 9 -23 -19.4668 0.0342
37 9 -20 19.4885 -0.0084
37 9 -17 -7.1887 -0.1358
37 9 -14 11.4868 -0.0250
37 9 -11 8.5203 0.1209
37 9 -8 -1.1502 -0.2395
37 9 -5 0.4924 -0.2308
37 9 -2 5.2945 0.2946
37 9 1 2.1161 0.0946
37 9 4 0.5028 -0.1419
37 9 7 4.0263 0.0060
37 9 10 0.6489 0.3096
37 9 13 4.2501 0.2813
37 9 16 -6.8094 -0.2079
37 9 19 0.7102 -0.1908
37 9 22 -11.5442 0.1154
37 9 25 -4.1656 -0.1514
37 9 28 12.7219 -0.2161
37 9 31 -5.4805 -0.0419
37 10 -30 0.0709 0.1191
37 10 -27 0.0629 -0.0027
37 10 -24 -2.5255 -0.0357
37 10 -21 3.9658 -0.1992
37 10 -18 8.5107 0.1777
37 10 -15 -0.8043 0.0055
37 10 -12 -2.8820 -0.1227
37 10 -9 -7.6111 0.1134
37 10 -6 -17.3139 0.0278
37 10 -3 -4.4209 -0.0074
37 10 0 9.3629 -0.1775
37 10 3 -3.6324 0.0938
37 10 6 12.7150 0.2091
37 10 9 -4.6238 -0.1581
37 10 12 9.1075 -0.0185
37 10 15 -1.0310 0.0338
37 10 18 -2.3769 -0.0995
37 10 21 -12.3482 -0.1579
37 10 24 1.7041 0.0298
37 10 27 -5.5052 0.1041
37 10 30 3.0124 0.1187
37 11 -28 -7.0590 0.0622
37 11 -25 2.5812 -0.0135
37 11 -22 -15.8750 0.0412
37 11 -19 -4.9840 0.1122
37 11 -16 13.3303 -0.0317
37 11 -13 -2.3322 -0.1301
37 11 -10 2.2743 -0.1266
37 11 -7 2.7704 0.1223
37 11 -4 11.1039 0.1988
37 11 -1 -4.4850 -0.2648
37 11 2 -8.5740 -0.0325
37 11 5 -3.8473 0.3293
37 11 8 0.1763 -0.1665
37 11 11 3.1543 -0.2999
37 11 14 -16.5540 -0.0731
37 11 17 10.0713 0.2453
37 11 20 -5.0695 0.1123
37 11 23 -3.2674 -0.1094
37 11 26 -12.1627 0.1142
37 11 29 -12.0198 0.1765
37 12 -29 22.3971 0.0064
37 12 -26 -0.3713 -0.0034
37 12 -23 -0.6086 -0.0903
37 12 -20 -0.7411 0.0525
37 12 -17 17.7629 0.0109
37 12 -14 13.7257 -0.0521
37 12 -11 16.2932 0.1297
37 12 -8 -7.3933 -0.0141
37 12 -5 14.1858 0.0846
37 12 -2 -2.1757 0.0677
37 12 1 -1.7250 -0.0658
37 12 4 6.1741 0.0632
37 12 7 0.3478 -0.2774
37 12 10 5.7275 0.0613
37 12 13 12.1960 0.0253
37 12 16 -5.8216 0.1411
37 12 19 1.2913 0.1459
37 12 22 -5.2878 0.0012
37 12 25 9.6700 0.0364
37 12 28 -13.6248 -0.1297
37 13 -27 -4.2208 0.1002
37 13 -24 2.9507 0.0876
37 13 -21 12.5453 -0.0336
37 13 -18 2.0556 -0.0184
37 13 -15 2.4770 -0.0189
37 13 -12 1.8059 0.0388
37 13 -9 8.4080 -0.0879
37 13 -6 1.3881 -0.2716
37 13 -3 -23.8205 0.0388
37 13 0 -11.5536 0.2581
37 13 3 17.6934 0.0908
37 13 6 -5.3401 -0.1855
37 13 9 -12.7634 -0.0425
37 13 12 -0.3932 0.1549
37 13 15 -1.5984 -0.0155
37 13 18 10.2910 -0.1388
37 13 21 -8.6580 -0.0806
37 13 24 -8.1380 -0.0538
37 13 27 1.0780 -0.0469
37 14 -28 -7.5624 0.0995
37 14 -25 -2.8235 -0.0310
37 14 -22 -7.3586 -0.0561
37 14 -19 -11.6873 -0.0842
37 14 -16 -14.2982 0.1706
37 14 -13 -4.0706 0.1242
37 14 -10 3.8217 -0.1838
37 14 -7 12.0630 -0.0711
37 14 -4 1.9779 -0.1046
37 14 -1 6.9814 0.0840
37 14 2 11.1719 0.0188
37 14 5 -1.2944 -0.1357
37 14 8 8.4225 0.2084
37 14 11 -2.9592 0.1014
37 14 14 0.3060 -0.0709
37 14 17 1.8644 -0.0681
37 14 20 -0.5651 -0.2120
37 14 23 0.7910 0.1076
37 14 26 9.3332 0.0549
37 15 -26 7.8021 -0.0518
37 15 -23 -1.7147 -0.0993
37 15 -20 -0.3079 0.0852
37 15 -17 -11.6182 0.2004
37 15 -14 -1.1926 0.2291
37 15 -11 6.2659 0.0118
37 15 -8 6.5654 -0.1514
37 15 -5 3.1223 0.0457
37 15 -2 -9.5418 0.0258
37 15 1 12.2616 -0.1939
37 15 4 12.2023 -0.0212
37 15 7 8.0492 0.2096
37 15 10 14.7707 0.1208
37 15 13 7.6887 -0.2781
37 15 16 -11.7091 -0.0788
37 15 19 -2.2515 0.1431
37 15 22 -10.4114 0.1502
37 15 25 11.1129 0.0849
37 16 -24 3.7254 -0.0549
37 16 -21 -4.3914 -0.0661
37 16 -18 -7.7556 0.0238
37 16 -15 -1.6307 -0.1017
37 16 -12 -0.9557 -0.0821
37 16 -9 4.8088 0.3313
37 16 -6 0.2871 0.2067
37 16 -3 -3.9874 -0.0443
37 16 0 -8.2203 -0.2429
37 16 3 5.9619 -0.0836
37 16 6 0.6020 0.1174
37 16 9 -7.2013 -0.1620
37 16 12 -31.4184 -0.2649
37 16 15 -5.8943 0.1903
37 16 18 4.1727 0.2500
37 16 21 -0.5664 0.0518
37 16 24 -13.0153 -0.1984
37 17 -22 12.9164 -0.0470
37 17 -19 0.0060 0.0218
37 17 -16 -2.1968 0.0608
37 17 -13 3.5173 -0.0793
37 17 -10 7.7909 -0.0051
37 17 -7 -4.3148 0.2367
37 17 -4 -11.1720 -0.0191
37 17 -1 -5.4579 -0.3146
37 17 2 7.4042 -0.1232
37 17 5 12.4322 0.0682
37 17 8 13.4943 0.0117
37 17 11 6.6858 -0.0341
37 17 14 4.9369 0.1787
37 17 17 20.9430 0.1750
37 17 20 -10.2891 -0.0414
37 17 23 -6.5159 -0.2274
37 18 -23 -15.1281 0.1374
37 18 -20 -16.0154 0.1462
37 18 -17 -11.9266 -0.0035
37 18 -14 -3.0864 -0.0745
37 18 -11 -10.5088 -0.0377
37 18 -8 -17.1907 -0.1545
37 18 -5 13.9815 0.0875
37 18 -2 -6.5429 0.0779
37 18 1 20.8995 0.0671
37 18 4 6.1709 0.1706
37 18 7 4.1268 -0.0010
37 18 10 -0.6342 -0.0787
37 18 13 -8.7164 0.0214
37 18 16 -2.3336 -0.1118
37 18 19 -12.9847 -0.0829
37 18 22 3.3974 0.0054
37 19 -21 -2.1969 0.0300
37 19 -18 1.4503 -0.0031
37 19 -15 4.7238 0.0420
37 19 -12 10.4497 0.1854
37 19 -9 14.7244 0.0988
37 19 -6 -2.6589 -0.0689
37 19 -3 11.8474 0.0160
37 19 0 -3.9707 0.0370
37 19 3 -16.8507 -0.0335
37 19 6 18.7080 -0.1355
37 19 9 -6.0851 -0.1373
37 19 12 4.4326 0.0834
37 19 15 3.5226 -0.0798
37 19 18 -0.2767 -0.0216
37 19 21 -2.4341 0.0269
37 20 -19 4.9674 0.0165
37 20 -16 -9.3918 0.0901
37 20 -13 -9.1854 0.0933
37 20 -10 -7.4307 -0.1285
37 20 -7 12.0554 -0.0099
37 20 -4 -5.7017 -0.1471
37 20 -1 10.3639 -0.0250
37 20 2 -7.6705 0.0040
37 20 5 -1.7334 -0.1147
37 20 8 6.3952 0.2228
37 20 11 3.9122 0.1378
37 20 14 10.8169 -0.0131
37 20 17 -0.0616 0.1359
37 20 20 0.7215 0.0573
37 21 -17 13.5733 -0.0981
37 21 -14 1.8979 0.0119
37 21 -11 0.6173 -0.0818
37 21 -8 -12.6504 0.0221
37 21 -5 -0.5016 0.1829
37 21 -2 -6.7931 -0.0559
37 21 1 3.1987 0.1150
37 21 4 6.6596 -0.0008
37 21 7 5.5501 0.0482
37 21 10 2.8350 0.1564
37 21 13 -5.5937 -0.1629
37 21 16 -7.4231 -0.1674
37 21 19 8.3961 0.1299
37 22 -15 3.9313 -0.0734
37 22 -12 12.0332 -0.0000
37 22 -9 -6.8315 0.1766
37 22 -6 8.7089 0.1453
37 22 -3 4.6902 -0.0178
37 22 0 9.3779 -0.1168
37 22 3 3.0865 -0.0088
37 22 6 8.1336 0.1959
37 22 9 11.9882 -0.2012
37 22 12 11.2103 -0.0994
37 22 15 -20.8176 -0.0825
37 23 -13 3.4107 -0.2199
37 23 -10 7.7117 0.0474
37 23 -7 7.7466 0.1860
37 23 -4 -11.2216 -0.0540
37 23 -1 2.7013 0.0669
37 23 2 -10.2628 -0.0093
37 23 5 2.2105 0.0505
37 23 8 -12.9473 -0.0469
37 23 11 6.8261 -0.1956
37 23 14 9.3619 0.2131
37 24 -11 9.6719 -0.1463
37 24 -8 -4.6416 -0.0157
37 24 -5 -4.0509 0.1298
37 24 -2 -3.1869 0.1035
37 24 1 -2.9459 0.0495
37 24 4 -21.6017 -0.0479
37 24 7 -3.0553 -0.0024
37 24 10 -3.5647 0.0424
37 24 13 -5.5771 -0.1908
37 25 -9 2.7612 -0.3844
37 25 -6 0.9041 -0.0166
37 25 -3 0.0496 0.2489
37 25 0 1.3488 -0.0914
37 25 3 -6.7429 -0.0754
37 25 6 -1.2203 0.0565
37 25 9 3.4070 0.1844
37 26 -4 8.1298 0.0794
37 26 -1 -19.4081 0.0855
37 26 2 13.9185 -0.2372
37 26 5 3.0191 -0.0365
38 0 -34 4.8770 -0.0956
38 0 -28 -4.6550 -0.3120
38 0 -22 -4.1938 -0.0516
38 0 -16 -4.4349 1.1872
38 0 -10 -4.1727 -0.3870
38 0 -4 8.0419 0.7543
38 0 2 -8.6196 -3.2916
38 0 8 12.7803 2.2093
38 0 14 -7.4464 -0.8973
38 0 20 -1.2630 1.5797
38 0 26 -14.3186 -1.3830
38 0 32 -27.8449 0.2179
38 1 -35 4.3278 -0.1327
38 1 -32 3.5287 0.1473
38 1 -29 2.6759 -0.0061
38 1 -26 5.5639 -0.1208
38 1 -23 3.1087 0.4325
38 1 -20 2.3742 0.1447
38 1 -17 -2.3490 -0.3202
38 1 -14 6.4288 -0.0663
38 1 -11 -11.2674 -0.2190
38 1 -8 -1.9110 -0.0027
38 1 -5 -0.7228 -0.1352
38 1 -2 -4.9159 -0.2391
38 1 1 -2.1719 1.6093
38 1 4 -3.9015 0.4396
38 1 7 7.1677 0.0452
38 1 10 -2.1967 -0.1852
38 1 13 -26.5821 -0.0964
38 1 16 5.4252 -0.1144
38 1 19 -4.9034 -0.8812
38 1 22 -9.7391 -0.1019
38 1 25 4.9053 0.5480
38 1 28 -13.3799 0.2020
38 1 31 2.1630 0.2282
38 1 34 -4.6929 -0.0372
38 2 -33 -3.8233 -0.0022
38 2 -30 1.7004 -0.0698
38 2 -27 -3.8795 -0.0820
38 2 -24 -10.9817 -0.0323
38 2 -21 5.1467 -0.0069
38 2 -18 -8.5867 -0.1768
38 2 -15 -10.2729 0.1287
38 2 -12 2.8247 0.5781
38 2 -9 9.6365 -0.0669
38 2 -6 3.5861 -0.1605
38 2 -3 2.1931 0.3056
38 2 0 17.6810 -0.0116
38 2 3 23.4609 0.0555
38 2 6 5.3639 -0.9720
38 2 9 5.3946 -0.2089
38 2 12 -0.9829 0.4494
38 2 15 -3.6690 -0.3003
38 2 18 -5.9821 0.1152
38 2 21 13.7737 -0.0430
38 2 24 23.2880 0.1775
38 2 27 8.1129 0.1707
38 2 30 -15.1995 -0.1770
38 2 33 -7.5621 -0.0783
38 3 -34 5.3444 -0.1387
38 3 -31 -0.0621 -0.0236
38 3 -28 1.9070 -0.0147
38 3 -25 -3.4055 0.0341
38 3 -22 -8.9712 0.1439
38 3 -19 -4.8493 0.1590
38 3 -16 -1.8704 0.0014
38 3 -13 -9.0008 -0.2758
38 3 -10 5.0104 0.0387
38 3 -7 3.8621 -0.2262
38 3 -4 -7.5941 -0.3763
38 3 -1 -3.4928 -0.1272
38 3 2 4.0385 0.1685
38 3 5 -1.9946 0.6156
38 3 8 0.8651 -0.1220
38 3 11 -13.6382 -0.0689
38 3 14 -14.6128 0.1761
38 3 17 9.1494 0.0332
38 3 20 2.4659 -0.1171
38 3 23 4.0889 -0.3326
38 3 26 3.0025 -0.1735
38 3 29 12.3273 0.1653
38 3 32 5.3867 -0.0005
38 4 -32 4.1037 0.0286
38 4 -29 -2.8890 0.2318
38 4 -26 2.2821 -0.0884
38 4 -23 -1.7184 -0.0601
38 4 -20 -7.1689 -0.2486
38 4 -17 13.3585 0.2286
38 4 -14 -1.2121 0.3169
38 4 -11 -11.5703 -0.0523
38 4 -8 -6.7947 0.2451
38 4 -5 0.8038 -0.0718
38 4 -2 0.8668 -0.0927
38 4 1 6.7456 -0.0779
38 4 4 -7.3051 -0.4761
38 4 7 -7.8721 0.1613
38 4 10 -26.0592 0.1779
38 4 13 -6.1695 0.3254
38 4 16 -6.6155 0.1295
38 4 19 4.3790 -0.0639
38 4 22 3.3302 0.1895
38 4 25 -8.2283 -0.2005
38 4 28 -2.3810 -0.2460
38 4 31 12.4160 0.1061
38 4 34 13.2169 0.0167
38 5 -33 -3.9794 -0.2552
38 5 -30 -14.5995 0.0479
38 5 -27 2.4490 -0.0111
38 5 -24 -4.1876 -0.0856
38 5 -21 -0.3267 0.0589
38 5 -18 10.2506 0.2058
38 5 -15 -15.5540 0.2635
38 5 -12 8.0659 -0.1682
38 5 -9 -0.8054 -0.0420
38 5 -6 11.3711 0.0737
38 5 -3 -14.9656 -0.4750
38 5 0 -8.9899 -0.4250
38 5 3 3.3791 -0.1365
38 5 6 5.0130 0.6771
38 5 9 -1.8429 0.2924
38 5 12 0.7647 -0.3247
38 5 15 -7.1632 0.1074
38 5 18 15.9532 -0.0716
38 5 21 15.6085 -0.0771
38 5 24 -13.6692 -0.1796
38 5 27 7.3608 -0.1910
38 5 30 7.4833 0.1355
38 5 33 -6.4530 -0.0351
38 6 -31 9.6790 0.0021
38 6 -28 5.3639 0.0846
38 6 -25 -6.0589 -0.0366
38 6 -22 -3.6559 0.0278
38 6 -19 -0.4722 0.0747
38 6 -16 7.4183 -0.3407
38 6 -13 2.2212 -0.3127
38 6 -10 -2.7239 -0.0886
38 6 -7 8.0725 0.3241
38 6 -4 11.2340 0.2493
38 6 -1 -4.7227 0.1129
38 6 2 1.0632 0.2777
38 6 5 -4.3872 0.1520
38 6 8 1.8309 -0.0581
38 6 11 3.6628 -0.5330
38 6 14 3.0897 -0.3524
38 6 17 -9.4226 0.2037
38 6 20 -12.4882 -0.0169
38 6 23 3.6345 0.1888
38 6 26 0.9770 0.1289
38 6 29 -21.4413 0.0749
38 6 32 10.8598 -0.1634
38 7 -32 -12.1687 -0.0666
38 7 -29 0.4270 -0.0496
38 7 -26 2.9401 0.0350
38 7 -23 5.1960 0.0534
38 7 -20 3.2047 -0.1955
38 7 -17 -11.1624 0.0833
38 7 -14 20.9852 0.0239
38 7 -11 5.3299 0.1198
38 7 -8 -0.8198 0.2203
38 7 -5 -3.8861 -0.2180
38 7 -2 4.1051 0.2045
38 7 1 6.7540 -0.0819
38 7 4 2.9236 -0.1555
38 7 7 -21.5543 -0.1346
38 7 10 12.7523 -0.2375
38 7 13 2.4938 0.2223
38 7 16 7.5395 0.0784
38 7 19 -15.8295 -0.0511
38 7 22 -12.9340 0.2444
38 7 25 -0.5662 0.1456
38 7 28 1.7625 -0.0387
38 7 31 -3.8204 -0.0231
38 8 -30 0.2534 0.0269
38 8 -27 -10.0465 0.0145
38 8 -24 6.1968 0.1227
38 8 -21 -7.0650 0.0595
38 8 -18 4.1541 -0.0716
38 8 -15 -1.9824 0.1807
38 8 -12 -6.0900 0.0018
38 8 -9 2.1648 -0.2734
38 8 -6 17.5129 -0.3481
38 8 -3 0.0895 0.1307
38 8 0 0.9288 0.1539
38 8 3 -2.5892 -0.0755
38 8 6 2.8921 0.2072
38 8 9 -13.5091 0.1932
38 8 12 -0.1258 0.1560
38 8 15 13.5551 -0.1152
38 8 18 -28.3109 -0.1375
38 8 21 -1.7610 -0.0250
38 8 24 -13.4111 -0.2059
38 8 27 -0.2074 -0.0292
38 8 30 5.7285 0.1851
38 9 -28 -13.6449 -0.0062
38 9 -25 2.8762 0.0209
38 9 -22 0.8832 -0.1445
38 9 -19 2.5662 -0.1485
38 9 -16 -3.3383 0.0300
38 9 -13 5.5385 0.0968
38 9 -10 7.9235 0.0765
38 9 -7 4.4970 -0.0137
38 9 -4 -13.6100 0.1924
38 9 -1 -0.4434 0.1605
38 9 2 -3.0593 -0.1624
38 9 5 1.7448 0.0135
38 9 8 9.0857 0.2350
38 9 11 1.2666 -0.0573
38 9 14 -1.0192 -0.2712
38 9 17 2.5226 -0.1066
38 9 20 5.0219 0.0587
38 9 23 -13.1284 0.0069
38 9 26 -2.0338 -0.1235
38 9 29 -4.5697 0.1254
38 10 -29 9.7647 -0.0921
38 10 -26 -4.2219 -0.1535
38 10 -23 0.2744 0.0313
38 10 -20 -8.6374 0.0701
38 10 -17 3.6252 -0.0833
38 10 -14 -4.7826 -0.0209
38 10 -11 18.5736 0.1779
38 10 -8 -6.0725 0.1500
38 10 -5 -4.2181 -0.2206
38 10 -2 2.6956 -0.3260
38 10 1 3.9141 0.1806
38 10 4 -10.6556 0.0228
38 10 7 -11.4735 -0.1296
38 10 10 25.2562 0.0125
38 10 13 -20.4879 -0.0381
38 10 16 9.5041 0.0827
38 10 19 4.4392 -0.0082
38 10 22 -2.7067 0.0330
38 10 25 16.5899 0.0882
38 10 28 -4.2463 -0.0626
38 11 -27 -1.3496 0.0116
38 11 -24 5.3380 -0.0837
38 11 -21 6.1288 0.0538
38 11 -18 1.5104 -0.1336
38 11 -15 6.9848 -0.0609
38 11 -12 10.8661 -0.0445
38 11 -9 -0.1516 0.1890
38 11 -6 -9.2217 0.3197
38 11 -3 2.1942 -0.2088
38 11 0 3.9145 -0.0714
38 11 3 -7.2483 0.0969
38 11 6 0.8936 -0.1138
38 11 9 11.3400 -0.0618
38 11 12 8.0166 -0.0615
38 11 15 6.2999 0.2224
38 11 18 -10.4949 0.1794
38 11 21 0.6561 -0.0922
38 11 24 -2.7128 0.0292
38 11 27 -2.2616 -0.0249
38 12 -28 -1.4432 0.1290
38 12 -25 -0.7746 0.0586
38 12 -22 -10.6433 -0.0233
38 12 -19 7.0157 -0.0353
38 12 -16 1.9483 -0.0569
38 12 -13 -4.6633 0.1364
38 12 -10 6.7408 0.0179
38 12 -7 -0.7534 0.0847
38 12 -4 0.0530 0.1349
38 12 -1 -0.1269 -0.0015
38 12 2 8.1682 -0.1439
38 12 5 0.9008 -0.1535
38 12 8 -8.6954 0.0869
38 12 11 2.2807 0.1390
38 12 14 -0.9820 -0.1027
38 12 17 -7.1705 0.0653
38 12 20 -8.6718 0.0625
38 12 23 -2.8968 -0.0147
38 12 26 18.9600 -0.0480
38 13 -26 10.0690 0.1000
38 13 -23 6.6857 0.0529
38 13 -20 7.7092 -0.1112
38 13 -17 -3.9646 0.0368
38 13 -14 18.8006 -0.0650
38 13 -11 5.9312 -0.2006
38 13 -8 3.8890 -0.0216
38 13 -5 7.3303 -0.0823
38 13 -2 11.8079 0.2439
38 13 1 16.1749 0.0345
38 13 4 -3.0916 -0.2155
38 13 7 15.2620 0.2092
38 13 10 -8.7492 -0.0283
38 13 13 -0.4056 -0.1339
38 13 16 2.4763 -0.1452
38 13 19 -1.6022 -0.1266
38 13 22 -14.7175 0.0948
38 13 25 7.7606 0.0211
38 14 -24 1.8757 -0.0579
38 14 -21 -0.7659 -0.0225
38 14 -18 -1.2738 0.0037
38 14 -15 10.4730 0.2568
38 14 -12 -8.0179 -0.1198
38 14 -9 4.5105 -0.1917
38 14 -6 -6.0496 0.1129
38 14 -3 -3.1466 0.0861
38 14 0 7.7451 0.0215
38 14 3 2.9802 -0.2035
38 14 6 -7.8244 0.1737
38 14 9 -20.5193 0.2776
38 14 12 -6.8236 -0.2621
38 14 15 10.8174 -0.2282
38 14 18 -12.0749 0.0247
38 14 21 3.2900 0.1459
38 14 24 -10.8168 0.1374
38 15 -25 -9.8735 0.0754
38 15 -22 -4.1397 -0.0415
38 15 -19 0.7079 0.0664
38 15 -16 1.9221 -0.0100
38 15 -13 19.5203 -0.0102
38 15 -10 16.6748 -0.0377
38 15 -7 9.0826 -0.1454
38 15 -4 -1.0265 0.2938
38 15 -1 5.8251 -0.0404
38 15 2 -8.3531 -0.2439
38 15 5 -1.8239 0.0376
38 15 8 0.2915 0.1012
38 15 11 2.2000 -0.0034
38 15 14 -14.4313 -0.1960
38 15 17 8.8391 0.1419
38 15 20 -16.9541 0.2608
38 15 23 7.2455 -0.0465
38 16 -23 9.4200 -0.0805
38 16 -20 -9.3619 -0.1264
38 16 -17 -4.8575 0.0014
38 16 -14 -14.1778 -0.1384
38 16 -11 -3.7448 0.1962
38 16 -8 -6.3534 0.0490
38 16 -5 -3.3995 -0.1931
38 16 -2 -6.9803 -0.0763
38 16 1 10.2032 0.0050
38 16 4 0.6012 0.0624
38 16 7 -3.4607 -0.0927
38 16 10 2.2041 0.1388
38 16 13 -7.3384 0.2494
38 16 16 -3.9127 -0.0173
38 16 19 -1.0599 -0.1380
38 16 22 6.3549 -0.3666
38 17 -21 7.5855 0.0862
38 17 -18 -5.2746 -0.0019
38 17 -15 4.5044 -0.1476
38 17 -12 -2.6646 -0.0499
38 17 -9 -2.4039 -0.0124
38 17 -6 -13.9729 -0.0963
38 17 -3 -0.1202 -0.1048
38 17 0 -6.7556 0.1508
38 17 3 12.0880 0.2360
38 17 6 -2.4223 -0.1542
38 17 9 -3.4888 0.0098
38 17 12 16.9346 0.1828
38 17 15 -0.1102 -0.0876
38 17 18 8.0298 -0.1758
38 17 21 -11.3733 -0.0618
38 18 -22 4.5452 -0.0327
38 18 -19 16.8144 -0.0304
38 18 -16 -15.0245 -0.1463
38 18 -13 -7.7578 0.0870
38 18 -10 -12.6215 0.0215
38 18 -7 1.8094 -0.0115
38 18 -4 -5.9294 0.1522
38 18 -1 12.5053 0.0187
38 18 2 7.7639 0.2100
38 18 5 -3.5452 -0.2184
38 18 8 -1.4418 -0.3291
38 18 11 -8.0497 0.1413
38 18 14 10.3260 -0.0222
38 18 17 5.0263 -0.0007
38 18 20 -9.6420 0.2153
38 19 -20 -0.2172 -0.0612
38 19 -17 1.7973 0.1568
38 19 -14 -9.4943 0.1191
38 19 -11 -9.0672 -0.1115
38 19 -8 -1.4664 -0.2713
38 19 -5 -9.5419 0.0395
38 19 -2 -1.5333 0.0625
38 19 1 16.4069 -0.0832
38 19 4 -11.2655 -0.0357
38 19 7 -11.3833 0.0554
38 19 10 15.1614 0.1794
38 19 13 1.3245 -0.0034
38 19 16 -3.0526 0.0431
38 19 19 -4.9140 -0.0186
38 20 -18 3.6362 -0.0175
38 20 -15 -2.4625 0.1265
38 20 -12 4.7799 -0.2215
38 20 -9 3.3287 -0.2785
38 20 -6 8.1474 0.0496
38 20 -3 -9.0039 0.1549
38 20 0 -7.1971 0.1040
38 20 3 6.3166 -0.1563
38 20 6 -2.3231 0.1752
38 20 9 3.9833 0.3519
38 20 12 -3.5009 -0.2489
38 20 15 -0.3069 -0.0564
38 20 18 2.3728 0.0820
38 21 -16 -12.5261 0.1007
38 21 -13 -1.8417 0.0999
38 21 -10 11.3392 -0.0375
38 21 -7 -8.4866 -0.0309
38 21 -4 -14.5730 0.0297
38 21 -1 -5.9605 -0.0862
38 21 2 -3.5469 -0.0568
38 21 5 -3.5343 -0.0497
38 21 8 12.7570 0.0630
38 21 11 -0.4812 0.0013
38 21 14 9.4968 -0.2210
38 21 17 3.2858 -0.0429
38 22 -14 -1.7546 -0.0077
38 22 -11 5.7167 0.2093
38 22 -8 -3.7533 -0.0722
38 22 -5 -2.5783 -0.2574
38 22 -2 -10.1382 -0.0257
38 22 1 -1.4591 -0.0036
38 22 4 7.9185 0.0818
38 22 7 10.0011 -0.2351
38 22 10 -4.9186 0.0052
38 22 13 0.2915 0.2818
38 23 -12 18.7552 0.1235
38 23 -9 5.9298 0.2695
38 23 -6 11.0321 -0.1705
38 23 -3 -4.0162 0.0220
38 23 0 3.4297 0.1115
38 23 3 1.4617 -0.0023
38 23 6 3.7949 -0.2419
38 23 9 9.3599 -0.1629
38 23 12 -2.8361 0.2617
38 24 -10 1.8821 -0.0918
38 24 -7 7.3454 0.1733
38 24 -4 -0.5890 0.0921
38 24 -1 8.9373 -0.0968
38 24 2 10.8962 0.0261
38 24 5 -5.8149 0.0045
38 24 8 -12.0195 -0.0928
38 25 -5 7.3675 0.2769
38 25 -2 -0.5929 -0.0015
38 25 1 -2.2537 -0.2286
38 25 4 1.8272 0.2024
39 0 -30 -2.8408 0.3725
39 0 -24 -2.0302 -0.7178
39 0 -18 -15.6785 0.5660
39 0 -12 2.1280 -1.1332
39 0 -6 15.2647 1.7314
39 0 0 5.0514 -1.4819
39 0 6 -2.5220 2.1446
39 0 12 3.4175 -1.7224
39 0 18 19.4789 0.9658
39 0 24 -5.0940 -0.5618
39 0 30 8.9365 0.5073
39 1 -34 -1.6078 -0.0192
39 1 -31 -8.9968 0.1062
39 1 -28 6.4447 0.2654
39 1 -25 0.6073 -0.0713
39 1 -22 9.2640 -0.1569
39 1 -19 -8.4826 -0.2491
39 1 -16 2.5091 -0.2175
39 1 -13 -9.2360 0.2100
39 1 -10 -10.0709 -0.2376
39 1 -7 -2.9030 0.3649
39 1 -4 -8.8272 0.3818
39 1 -1 15.6053 0.7640
39 1 2 -2.6025 0.3998
39 1 5 -6.3584 -1.4876
39 1 8 8.3415 -0.1752
39 1 11 -7.6056 0.1785
39 1 14 -8.8648 -0.2653
39 1 17 -7.2410 -0.1847
39 1 20 5.9203 0.0088
39 1 23 -14.4873 0.8887
39 1 26 12.7543 0.0908
39 1 29 0.7578 -0.3885
39 1 32 -17.9517 -0.0240
39 2 -32 -13.1549 -0.3873
39 2 -29 1.6089 -0.0159
39 2 -26 -11.2067 0.3013
39 2 -23 3.1103 -0.0475
39 2 -20 7.3960 0.0357
39 2 -17 -3.4562 0.0591
39 2 -14 7.4012 0.4004
39 2 -11 -2.7859 -0.2888
39 2 -8 -2.6923 -0.8490
39 2 -5 -0.0267 0.2539
39 2 -2 0.0908 0.0286
39 2 1 2.4493 -0.0650
39 2 4 5.1021 -0.2882
39 2 7 -11.9297 -0.2733
39 2 10 4.1909 0.7870
39 2 13 -1.5464 -0.2374
39 2 16 -17.5778 -0.1456
39 2 19 -3.6334 0.0240
39 2 22 -2.8224 -0.1143
39 2 25 -4.6605 0.3338
39 2 28 9.9758 -0.2599
39 2 31 -5.1529 -0.0914
39 2 34 0.1023 0.1731
39 3 -33 1.9310 -0.0891
39 3 -30 1.4014 -0.1434
39 3 -27 14.4149 0.0977
39 3 -24 11.8990 0.1114
39 3 -21 -4.6228 -0.1963
39 3 -18 -2.2244 -0.2404
39 3 -15 -0.7487 -0.0638
39 3 -12 -2.2824 0.1953
39 3 -9 -2.4144 -0.0394
39 3 -6 -17.2833 -0.4057
39 3 -3 -0.1779 0.1109
39 3 0 8.4242 0.5446
39 3 3 3.7123 0.1736
39 3 6 -10.4167 -0.1702
39 3 9 -25.7196 -0.0567
39 3 12 -6.6968 0.2256
39 3 15 -0.7436 0.0771
39 3 18 -3.2522 -0.3860
39 3 21 7.4494 -0.0900
39 3 24 8.3221 0.1156
39 3 27 4.9823 0.1756
39 3 30 -0.7174 0.0218
39 3 33 10.2890 -0.0506
39 4 -31 -1.4702 0.0004
39 4 -28 -1.5026 -0.1550
39 4 -25 -7.8261 0.0417
39 4 -22 5.4781 0.0316
39 4 -19 -9.9908 -0.0609
39 4 -16 -5.1158 0.1843
39 4 -13 -4.4777 0.1241
39 4 -10 4.7480 0.0680
39 4 -7 5.9407 0.0447
39 4 -4 0.1418 -0.5178
39 4 -1 14.1881 -0.0530
39 4 2 0.5084 0.0347
39 4 5 7.8097 0.1134
39 4 8 -9.1483 0.1749
39 4 11 9.0421 0.1285
39 4 14 -7.6236 0.2134
39 4 17 7.6575 -0.1885
39 4 20 -6.9977 -0.1399
39 4 23 2.6646 -0.0333
39 4 26 16.3876 -0.0332
39 4 29 -13.0851 0.1139
39 4 32 6.5899 0.1702
39 5 -32 4.8238 0.0303
39 5 -29 -0.5683 0.1438
39 5 -26 23.8760 -0.0225
39 5 -23 6.3895 0.0609
39 5 -20 -11.1612 0.1920
39 5 -17 10.6105 -0.3990
39 5 -14 -6.1635 -0.3585
39 5 -11 -10.2630 -0.0464
39 5 -8 -1.3305 0.3036
39 5 -5 -3.9857 0.0474
39 5 -2 8.2340 -0.1239
39 5 1 -0.1990 0.4097
39 5 4 -4.8786 0.4754
39 5 7 -1.0921 -0.1646
39 5 10 1.0412 -0.6513
39 5 13 14.6956 -0.0197
39 5 16 5.4866 0.1803
39 5 19 -5.7163 -0.1344
39 5 22 -14.0390 -0.1049
39 5 25 4.5606 0.1430
39 5 28 15.5104 0.1198
39 5 31 14.0170 0.0128
39 6 -30 -6.7161 -0.1437
39 6 -27 1.9479 0.0257
39 6 -24 9.3120 -0.0061
39 6 -21 12.4695 -0.0338
39 6 -18 3.7388 -0.1942
39 6 -15 -8.8274 -0.0741
39 6 -12 -5.3611 0.2500
39 6 -9 0.5109 0.2998
39 6 -6 -4.5492 0.2022
39 6 -3 -10.0165 0.0022
39 6 0 -1.9246 -0.1778
39 6 3 3.7946 -0.1937
39 6 6 21.0924 -0.3349
39 6 9 -2.6854 -0.1224
39 6 12 1.8724 0.0051
39 6 15 0.2148 0.3639
39 6 18 -22.6721 0.3163
39 6 21 -7.1194 -0.0643
39 6 24 -0.9872 0.0453
39 6 27 18.1002 -0.0488
39 6 30 -9.5641 -0.2061
39 7 -31 -0.9042 -0.0763
39 7 -28 -5.8140 -0.0108
39 7 -25 -2.8409 0.0401
39 7 -22 -19.3745 0.1111
39 7 -19 4.1818 0.1491
39 7 -16 7.4345 -0.0229
39 7 -13 -5.9012 -0.0756
39 7 -10 11.2544 -0.0370
39 7 -7 -1.7215 -0.2971
39 7 -4 -18.5389 0.0252
39 7 -1 -1.9855 0.0223
39 7 2 -9.6490 -0.0086
39 7 5 -4.6570 0.0951
39 7 8 -2.8634 0.0903
39 7 11 3.1904 0.4416
39 7 14 8.2629 -0.1019
39 7 17 6.6228 -0.1509
39 7 20 -11.7022 0.0620
39 7 23 -5.2967 -0.0327
39 7 26 -13.0005 -0.0788
39 7 29 2.2654 -0.1367
39 8 -29 1.3690 0.1609
39 8 -26 16.5506 0.0621
39 8 -23 -8.7353 -0.1313
39 8 -20 -0.8009 -0.0773
39 8 -17 1.8991 0.0545
39 8 -14 9.7536 -0.0264
39 8 -11 -9.3268 -0.2552
39 8 -8 0.2445 -0.0909
39 8 -5 -2.3559 0.4647
39 8 -2 -3.5582 0.1299
39 8 1 9.0896 -0.0174
39 8 4 -5.2939 0.0795
39 8 7 12.6903 -0.0517
39 8 10 -13.6903 0.0612
39 8 13 -0.6842 -0.2847
39 8 16 11.3386 -0.1785
39 8 19 -14.4270 0.1745
39 8 22 0.5886 -0.1444
39 8 25 -8.8750 0.1136
39 8 28 13.1370 0.1224
39 9 -27 -1.8668 0.1041
39 9 -24 -1.0654 0.0132
39 9 -21 -13.5369 -0.0073
39 9 -18 -3.5361 0.1432
39 9 -15 3.6581 0.0585
39 9 -12 -6.0605 0.0974
39 9 -9 -15.3480 -0.1175
39 9 -6 2.1102 -0.0636
39 9 -3 -9.7073 -0.0180
39 9 0 13.1142 -0.1063
39 9 3 5.1707 -0.0736
39 9 6 14.6863 -0.0215
39 9 9 1.5882 -0.0313
39 9 12 8.0026 -0.0376
39 9 15 -2.0210 -0.1071
39 9 18 -9.7774 0.0975
39 9 21 11.7569 0.1529
39 9 24 11.7702 0.0307
39 9 27 -14.2400 -0.0039
39 10 -28 -8.0343 -0.1540
39 10 -25 -5.6305 0.0190
39 10 -22 -5.2670 0.0923
39 10 -19 -4.7542 -0.0040
39 10 -16 8.5018 0.0061
39 10 -13 7.9359 -0.0108
39 10 -10 -3.3592 -0.0402
39 10 -7 -7.2266 -0.0509
39 10 -4 -1.7373 -0.2886
39 10 -1 -2.3358 0.0982
39 10 2 -12.0781 0.1870
39 10 5 -1.9946 -0.1733
39 10 8 -6.3427 0.1269
39 10 11 10.1933 0.1443
39 10 14 -10.1344 0.1423
39 10 17 1.5469 -0.0331
39 10 20 3.0729 -0.1920
39 10 23 3.9230 0.1212
39 10 26 10.9355 0.0281
39 10 29 -5.8849 -0.2651
39 11 -26 1.9364 -0.0488
39 11 -23 5.3419 -0.0129
39 11 -20 -3.2544 -0.0077
39 11 -17 4.8691 -0.0979
39 11 -14 9.6010 0.0848
39 11 -11 2.0845 0.1146
39 11 -8 -11.2407 0.1766
39 11 -5 2.9863 0.0815
39 11 -2 -4.7041 -0.3048
39 11 1 -7.8587 0.0073
39 11 4 -2.6549 0.0139
39 11 7 7.1066 -0.0886
39 11 10 -9.0995 0.0373
39 11 13 2.8911 0.1863
39 11 16 11.8189 0.0851
39 11 19 -7.9823 -0.1873
39 11 22 13.8557 -0.1930
39 11 25 0.2721 0.1009
39 11 28 -24.6464 0.0061
39 12 -24 3.9344 0.1053
39 12 -21 5.9353 0.0033
39 12 -18 -0.4283 0.0342
39 12 -15 -2.6159 -0.1070
39 12 -12 0.2932 0.0188
39 12 -9 0.6828 -0.0900
39 12 -6 18.9279 -0.0733
39 12 -3 -2.6641 0.1075
39 12 0 -6.2817 -0.0618
39 12 3 3.6920 -0.0050
39 12 6 -12.1641 0.0609
39 12 9 11.2254 0.0329
39 12 12 -3.8755 0.0735
39 12 15 7.0290 -0.0730
39 12 18 2.2724 0.0008
39 12 21 -0.0115 -0.0097
39 12 24 -8.2146 -0.0719
39 12 27 7.5166 0.1289
39 13 -25 -6.0429 0.1094
39 13 -22 -1.1030 -0.0040
39 13 -19 0.2234 -0.0812
39 13 -16 11.3347 0.0911
39 13 -13 0.5160 -0.0573
39 13 -10 1.5465 -0.0124
39 13 -7 7.5494 -0.1218
39 13 -4 -12.9447 0.0518
39 13 -1 14.2827 0.3160
39 13 2 -4.2852 -0.0820
39 13 5 -3.4641 -0.0105
39 13 8 4.8812 -0.0679
39 13 11 2.4820 -0.0901
39 13 14 2.6148 0.0679
39 13 17 -6.5983 -0.2017
39 13 20 7.3712 0.1881
39 13 23 22.9223 0.0226
39 13 26 -25.3562 -0.0256
39 14 -23 4.6363 0.0227
39 14 -20 -17.8070 0.0422
39 14 -17 -12.3702 0.0724
39 14 -14 2.8390 0.0662
39 14 -11 3.0480 -0.1247
39 14 -8 2.2309 0.0296
39 14 -5 -5.9782 -0.0095
39 14 -2 13.3301 -0.0785
39 14 1 -5.5257 -0.0548
39 14 4 -3.9331 -0.0040
39 14 7 15.6004 0.0525
39 14 10 -8.6416 -0.1063
39 14 13 -11.6288 0.0887
39 14 16 20.4463 0.1444
39 14 19 -4.7251 0.1930
39 14 22 0.3662 0.0960
39 14 25 -7.6654 -0.2905
39 15 -24 -4.2770 -0.0313
39 15 -21 1.2590 0.0052
39 15 -18 -4.5456 0.0677
39 15 -15 16.8657 -0.1194
39 15 -12 -14.8285 0.0507
39 15 -9 8.4746 0.0376
39 15 -6 16.3963 0.0286
39 15 -3 -1.2598 -0.1572
39 15 0 -6.6452 -0.2408
39 15 3 1.3134 0.2709
39 15 6 18.9512 0.0663
39 15 9 10.4778 -0.0996
39 15 12 -15.6541 0.2257
39 15 15 6.0512 0.0708
39 15 18 -14.6826 0.0504
39 15 21 -3.0183 -0.1851
39 15 24 0.4883 -0.0357
39 16 -22 12.3474 0.0651
39 16 -19 2.0985 0.0075
39 16 -16 -13.2465 0.0411
39 16 -13 4.1455 0.0196
39 16 -10 21.3903 0.1493
39 16 -7 -15.4177 -0.0776
39 16 -4 -1.7374 -0.1824
39 16 -1 -11.1516 0.1093
39 16 2 -1.5103 0.1621
39 16 5 -0.7284 0.1699
39 16 8 11.1283 -0.1066
39 16 11 -6.2714 0.0030
39 16 14 -13.7188 0.0358
39 16 17 1.9743 -0.3006
39 16 20 -4.4445 -0.3069
39 16 23 4.1585 0.0059
39 17 -20 -0.9038 -0.1048
39 17 -17 -2.7703 -0.2538
39 17 -14 3.5922 0.1623
39 17 -11 9.5611 0.1191
39 17 -8 3.9250 0.0646
39 17 -5 -8.3248 -0.0435
39 17 -2 1.7907 0.1259
39 17 1 7.0089 0.0561
39 17 4 -1.3788 -0.3234
39 17 7 -1.3956 -0.1452
39 17 10 4.1843 -0.0084
39 17 13 -10.1483 -0.0040
39 17 16 -0.3945 -0.0752
39 17 19 -0.3557 0.2057
39 18 -18 1.2294 -0.1145
39 18 -15 -6.6421 0.0496
39 18 -12 8.6882 0.0884
39 18 -9 -8.0936 0.0202
39 18 -6 -15.0874 0.0136
39 18 -3 0.8975 0.1153
39 18 0 16.7569 0.0261
39 18 3 0.2304 -0.2544
39 18 6 -12.7798 -0.1130
39 18 9 2.5995 0.1360
39 18 12 2.1738 0.0794
39 18 15 -2.6504 -0.0809
39 18 18 -0.6623 0.1018
39 19 -16 -12.9360 0.0503
39 19 -13 -5.0731 -0.2548
39 19 -10 -4.5136 -0.0897
39 19 -7 1.8747 0.0548
39 19 -4 -1.9458 0.1397
39 19 -1 8.9599 0.0916
39 19 2 -13.4018 -0.0732
39 19 5 -15.8107 0.1540
39 19 8 -6.3845 0.1054
39 19 11 5.2635 -0.1043
39 19 14 -1.9224 -0.0299
39 19 17 -2.1532 -0.2327
39 20 -17 -0.7531 0.0648
39 20 -14 -10.4625 -0.0987
39 20 -11 -13.7655 -0.0328
39 20 -8 -14.9577 0.2377
39 20 -5 -3.4240 -0.0212
39 20 -2 16.5644 -0.0242
39 20 1 -11.4053 -0.0844
39 20 4 9.8417 0.0777
39 20 7 -3.9486 0.0903
39 20 10 -8.9303 -0.3349
39 20 13 -3.5218 0.0561
39 20 16 -6.2869 0.2281
39 21 -15 -9.9140 0.0128
39 21 -12 -7.3859 0.0809
39 21 -9 -7.1168 0.0254
39 21 -6 -8.2306 -0.0312
39 21 -3 0.6935 -0.1698
39 21 0 1.1156 -0.0744
39 21 3 1.9351 0.1527
39 21 6 11.0764 0.0136
39 21 9 12.2994 -0.1743
39 21 12 13.6181 0.0048
39 21 15 -2.3367 0.1220
39 22 -10 -9.1842 0.1079
39 22 -7 -1.0758 -0.1867
39 22 -4 -13.3258 0.0580
39 22 -1 5.7003 0.1750
39 22 2 9.0921 -0.0352
39 22 5 -8.2808 -0.0268
39 22 8 8.4448 -0.0080
39 22 11 -12.0281 0.1187
39 23 -8 12.0461 0.0129
39 23 -5 13.0309 -0.0582
39 23 -2 -14.5703 0.0426
39 23 1 6.2496 0.0111
39 23 4 -0.3727 -0.1744
39 23 7 8.1159 0.1032
39 24 -3 1.6307 -0.1113
39 24 0 1.3775 0.0533
39 24 3 3.6114 -0.0116
40 0 -32 -17.9053 -0.0108
40 0 -26 -11.9475 0.2841
40 0 -20 -4.2812 -0.3187
40 0 -14 3.6653 -0.5248
40 0 -8 0.6632 1.1364
40 0 -2 12.1594 0.0763
40 0 4 7.8226 -0.0039
40 0 10 0.8379 -1.5787
40 0 16 9.8002 1.1240
40 0 22 -2.3761 0.3164
40 0 28 -13.9871 0.0465
40 0 34 -26.4011 -0.3798
40 1 -33 2.0470 0.0839
40 1 -30 8.4290 -0.2667
40 1 -27 3.1927 -0.0098
40 1 -24 -5.3479 0.3555
40 1 -21 -10.8714 -0.0850
40 1 -18 2.8128 -0.1602
40 1 -15 3.0926 0.4052
40 1 -12 -9.8899 0.1322
40 1 -9 8.6394 -0.3058
40 1 -6 -18.3879 -0.2979
40 1 -3 5.2280 0.2786
40 1 0 -8.5229 0.3977
40 1 3 -2.0822 -1.2761
40 1 6 -14.1059 -0.4649
40 1 9 -10.4584 0.8823
40 1 12 7.2771 0.0384
40 1 15 -6.0366 -0.3437
40 1 18 0.4686 -0.0564
40 1 21 -10.5064 0.4641
40 1 24 6.4531 0.2229
40 1 27 7.8214 -0.5057
40 1 30 10.9570 -0.1083
40 1 33 -5.9242 0.1991
40 2 -31 -6.4243 -0.0606
40 2 -28 12.6189 0.1197
40 2 -25 6.9310 0.0521
40 2 -22 -21.4010 0.0921
40 2 -19 -1.6303 0.1472
40 2 -16 -3.4090 -0.1306
40 2 -13 4.7201 -0.1172
40 2 -10 10.7749 -0.2550
40 2 -7 -2.4094 -0.2028
40 2 -4 1.6565 0.2772
40 2 -1 0.1529 0.0065
40 2 2 -11.0533 0.4875
40 2 5 -3.5058 -0.0191
40 2 8 -10.4638 0.1287
40 2 11 4.0881 0.1419
40 2 14 -10.6241 -0.2236
40 2 17 14.6726 -0.1168
40 2 20 4.7276 -0.2238
40 2 23 -4.3727 0.1145
40 2 26 8.6008 0.2482
40 2 29 -2.6946 -0.1378
40 2 32 12.9693 0.2366
40 3 -32 -11.2948 0.0425
40 3 -29 -16.8318 -0.2472
40 3 -26 8.0855 0.0244
40 3 -23 13.2497 0.0287
40 3 -20 -6.8831 -0.1275
40 3 -17 -12.5812 0.1506
40 3 -14 3.2849 0.0048
40 3 -11 -10.9693 0.2554
40 3 -8 -0.3880 -0.0836
40 3 -5 5.7070 -0.2798
40 3 -2 -4.0925 0.4053
40 3 1 -1.4153 -0.0972
40 3 4 -17.1086 0.1109
40 3 7 3.8303 0.0759
40 3 10 10.6376 -0.1637
40 3 13 -1.7026 0.0683
40 3 16 2.2088 -0.2861
40 3 19 1.9146 -0.0623
40 3 22 5.7012 0.0143
40 3 25 -5.1287 -0.0577
40 3 28 -9.4568 0.2382
40 3 31 16.8902 -0.0714
40 4 -30 1.0606 0.0086
40 4 -27 11.8834 -0.1362
40 4 -24 -0.0548 0.0303
40 4 -21 -9.0638 0.1899
40 4 -18 3.9504 0.1545
40 4 -15 -3.8112 -0.2825
40 4 -12 -7.2408 -0.2045
40 4 -9 -11.5631 0.1506
40 4 -6 -7.8946 -0.0743
40 4 -3 1.3873 -0.1442
40 4 0 3.7623 0.0619
40 4 3 -0.5470 0.3054
40 4 6 -7.0569 0.1731
40 4 9 9.3365 -0.2657
40 4 12 8.4736 -0.1267
40 4 15 -4.4093 -0.0534
40 4 18 7.8913 0.1628
40 4 21 1.3893 0.0563
40 4 24 -3.0276 -0.1265
40 4 27 5.0715 0.0605
40 4 30 10.9931 0.1193
40 5 -31 -8.8552 0.1229
40 5 -28 0.2580 0.0326
40 5 -25 -1.4549 -0.1213
40 5 -22 -10.7612 -0.0267
40 5 -19 -5.8196 -0.0542
40 5 -16 4.8978 -0.0270
40 5 -13 6.7615 0.1434
40 5 -10 4.1091 0.2579
40 5 -7 0.8340 0.2534
40 5 -4 4.1808 0.0580
40 5 -1 -6.9168 -0.1929
40 5 2 -2.6716 -0.2341
40 5 5 11.6899 -0.2866
40 5 8 -6.8139 -0.2930
40 5 11 19.0165 0.0866
40 5 14 -2.6029 0.2583
40 5 17 0.4213 0.1260
40 5 20 -20.1295 0.1373
40 5 23 10.1506 -0.0006
40 5 26 -7.2056 -0.0725
40 5 29 3.5676 -0.2366
40 6 -29 -2.4234 -0.1673
40 6 -26 1.5249 0.0738
40 6 -23 -7.2777 0.0620
40 6 -20 0.7568 0.1091
40 6 -17 -3.0481 0.1901
40 6 -14 -7.4903 0.2286
40 6 -11 -11.7627 0.1004
40 6 -8 6.0018 -0.2905
40 6 -5 2.9781 -0.1316
40 6 -2 5.3932 -0.2759
40 6 1 7.6623 -0.3415
40 6 4 10.5059 -0.0673
40 6 7 -7.3551 0.2671
40 6 10 -6.7316 0.4602
40 6 13 10.7110 0.0308
40 6 16 13.3641 -0.0282
40 6 19 -8.8169 -0.0075
40 6 22 0.5752 -0.0655
40 6 25 6.8737 -0.1712
40 6 28 -3.8366 -0.2223
40 7 -30 10.0750 0.0026
40 7 -27 -4.3829 -0.0094
40 7 -24 0.3741 0.0447
40 7 -21 -6.3256 -0.1098
40 7 -18 -2.3942 -0.1121
40 7 -15 -23.1617 -0.0261
40 7 -12 -2.7368 -0.1149
40 7 -9 0.5796 -0.1319
40 7 -6 16.8360 0.2374
40 7 -3 -4.2699 0.3238
40 7 0 1.4289 0.1677
40 7 3 -3.9416 -0.0111
40 7 6 11.7332 -0.1280
40 7 9 3.6033 0.1855
40 7 12 11.2247 -0.1757
40 7 15 10.0409 -0.3828
40 7 18 2.3358 0.0083
40 7 21 -3.3894 0.0640
40 7 24 -11.2721 0.1091
40 7 27 -0.7098 0.0895
40 7 30 5.4184 -0.0148
40 8 -28 -3.9649 -0.0267
40 8 -25 -4.9615 -0.0435
40 8 -22 11.4640 -0.0401
40 8 -19 -4.4577 0.0309
40 8 -16 2.2483 0.0858
40 8 -13 1.3142 0.0679
40 8 -10 2.2806 -0.1098
40 8 -7 -4.1343 0.1504
40 8 -4 3.3254 0.1085
40 8 -1 -0.1342 -0.1936
40 8 2 -8.7870 -0.0800
40 8 5 16.2383 -0.1820
40 8 8 6.5073 -0.1376
40 8 11 2.5305 -0.0672
40 8 14 1.1073 -0.0226
40 8 17 -4.6710 0.1968
40 8 20 6.5448 0.0067
40 8 23 -5.2535 -0.0433
40 8 26 -4.8347 0.2252
40 8 29 5.4758 0.1637
40 9 -26 1.2685 0.0399
40 9 -23 -13.7827 0.0800
40 9 -20 -0.4070 0.1890
40 9 -17 -0.5428 0.1438
40 9 -14 -8.2147 -0.1223
40 9 -11 0.3407 -0.1872
40 9 -8 -6.9104 -0.1459
40 9 -5 -11.7456 -0.1289
40 9 -2 -2.2149 0.1343
40 9 1 2.8314 -0.0745
40 9 4 2.2427 0.0999
40 9 7 -11.7695 0.2202
40 9 10 -11.4358 -0.1107
40 9 13 6.8093 0.0483
40 9 16 5.0227 0.0842
40 9 19 -5.4058 0.0536
40 9 22 2.1618 -0.0255
40 9 25 -5.3965 -0.1674
40 9 28 -7.7762 0.0100
40 10 -27 8.1549 -0.1618
40 10 -24 3.6946 0.0141
40 10 -21 2.1123 0.0193
40 10 -18 3.9399 -0.1131
40 10 -15 5.3900 0.0811
40 10 -12 -4.1358 0.0919
40 10 -9 16.3825 0.1976
40 10 -6 -9.8599 -0.1161
40 10 -3 7.5045 -0.0788
40 10 0 19.6617 0.1773
40 10 3 1.5565 -0.1303
40 10 6 5.7662 0.0285
40 10 9 5.4561 0.1283
40 10 12 8.8784 0.0273
40 10 15 12.6426 0.0322
40 10 18 2.8893 -0.2192
40 10 21 1.8105 0.0200
40 10 24 -8.4458 0.0673
40 10 27 3.4138 -0.1758
40 11 -25 -0.9605 -0.1029
40 11 -22 0.0946 0.1325
40 11 -19 11.8879 -0.0463
40 11 -16 8.7810 -0.1506
40 11 -13 -2.4228 0.0693
40 11 -10 -3.3926 0.1935
40 11 -7 -4.0181 -0.1101
40 11 -4 12.3000 -0.2406
40 11 -1 0.5406 -0.0195
40 11 2 19.0476 0.1713
40 11 5 -5.7980 -0.1731
40 11 8 13.7874 -0.0614
40 11 11 10.1040 0.1389
40 11 14 8.6908 -0.0161
40 11 17 -8.2652 -0.1394
40 11 20 -4.7233 -0.0413
40 11 23 2.4372 0.1030
40 11 26 10.7240 0.0201
40 12 -23 -6.1500 0.0008
40 12 -20 6.2374 -0.0437
40 12 -17 -7.3445 -0.1316
40 12 -14 -2.6522 -0.1817
40 12 -11 -9.4728 0.0799
40 12 -8 -4.3648 -0.0394
40 12 -5 -7.9056 0.2052
40 12 -2 10.9507 0.1686
40 12 1 -0.9055 0.0447
40 12 4 2.9838 0.1456
40 12 7 7.2096 -0.2542
40 12 10 -10.4811 -0.0304
40 12 13 14.1506 -0.0356
40 12 16 -11.6481 -0.0731
40 12 19 12.5068 0.1676
40 12 22 7.3837 -0.0303
40 12 25 -15.5063 0.1721
40 13 -24 -7.2620 0.0193
40 13 -21 -7.2138 -0.0618
40 13 -18 -3.1917 0.1460
40 13 -15 4.9710 0.1058
40 13 -12 -9.2832 -0.1325
40 13 -9 8.6260 -0.0177
40 13 -6 0.4613 0.0644
40 13 -3 -15.4761 0.2047
40 13 0 -14.2704 -0.1605
40 13 3 2.1902 -0.1549
40 13 6 -2.8655 0.0040
40 13 9 1.5456 -0.1945
40 13 12 4.4338 0.0196
40 13 15 15.6657 0.0964
40 13 18 0.7415 0.0508
40 13 21 20.6867 0.1061
40 13 24 -2.5716 -0.1555
40 14 -22 14.0293 0.0629
40 14 -19 -2.6493 0.0006
40 14 -16 20.3358 -0.0819
40 14 -13 -3.7121 -0.0152
40 14 -10 6.1862 -0.1645
40 14 -7 -7.2008 0.1360
40 14 -4 1.8083 -0.0468
40 14 -1 -10.0750 -0.1791
40 14 2 5.6916 0.1786
40 14 5 -9.5805 0.0613
40 14 8 5.1281 0.0448
40 14 11 1.4365 -0.0065
40 14 14 -7.0302 0.1010
40 14 17 -14.8980 0.1361
40 14 20 8.4062 -0.1200
40 14 23 9.4745 -0.1918
40 15 -20 18.5297 0.1632
40 15 -17 0.8910 -0.1277
40 15 -14 -3.6412 0.0149
40 15 -11 -4.3906 0.0648
40 15 -8 -1.5723 -0.1075
40 15 -5 1.2875 -0.0142
40 15 -2 2.8645 -0.0157
40 15 1 -11.2183 0.3411
40 15 4 10.0648 0.0254
40 15 7 9.0212 -0.1219
40 15 10 -1.0197 0.1375
40 15 13 -6.4685 -0.1698
40 15 16 7.9621 -0.1332
40 15 19 -1.1400 -0.2443
40 15 22 7.4779 0.2182
40 16 -21 -10.7371 0.0809
40 16 -18 -8.7797 -0.0480
40 16 -15 -7.7419 0.1042
40 16 -12 -9.3805 0.0825
40 16 -9 20.3143 -0.1202
40 16 -6 10.0159 -0.1483
40 16 -3 2.2701 0.0629
40 16 0 3.7191 0.2673
40 16 3 5.8601 -0.1444
40 16 6 3.4920 -0.2400
40 16 9 -5.2855 0.0429
40 16 12 -7.6416 0.0447
40 16 15 4.9556 -0.0645
40 16 18 -0.2932 -0.2277
40 16 21 -7.1278 -0.0404
40 17 -19 -17.2150 -0.1501
40 17 -16 -1.6473 0.1264
40 17 -13 5.8857 0.1794
40 17 -10 -4.3776 -0.0586
40 17 -7 3.1934 -0.0411
40 17 -4 0.1491 -0.1030
40 17 -1 -4.9958 0.0664
40 17 2 -6.1925 -0.2015
40 17 5 2.1281 -0.1824
40 17 8 5.9889 0.1465
40 17 11 -7.9254 0.1394
40 17 14 0.7917 0.1681
40 17 17 11.5336 0.1789
40 18 -17 -20.7641 0.0643
40 18 -14 3.1290 -0.0979
40 18 -11 12.8225 -0.0855
40 18 -8 -4.1541 0.0485
40 18 -5 8.9577 0.0578
40 18 -2 -5.4434 -0.0351
40 18 1 -4.3018 0.0085
40 18 4 -6.0903 0.1800
40 18 7 -1.0891 0.0827
40 18 10 -3.7548 -0.1422
40 18 13 14.4050 -0.1134
40 18 16 -9.2140 0.0456
40 19 -15 -2.6058 -0.1412
40 19 -12 -4.5273 -0.1070
40 19 -9 -3.0855 0.1538
40 19 -6 8.6310 0.1107
40 19 -3 -4.4050 -0.0795
40 19 0 -1.2494 -0.0651
40 19 3 -0.3605 0.1987
40 19 6 -5.6785 0.0531
40 19 9 11.7808 -0.2849
40 19 12 -14.4171 -0.1079
40 19 15 -5.2860 0.0584
40 20 -13 -3.2454 0.0520
40 20 -10 -0.2051 -0.0060
40 20 -7 -9.4607 0.0098
40 20 -4 2.6680 -0.1536
40 20 -1 3.7169 -0.1814
40 20 2 -20.9228 0.1084
40 20 5 6.0561 0.1026
40 20 8 -3.2014 -0.1268
40 20 11 3.2166 0.0298
40 20 14 -0.3610 0.2602
40 21 -11 -0.9211 0.0661
40 21 -8 11.0591 -0.1840
40 21 -5 4.7902 0.0702
40 21 -2 -3.0504 0.0131
40 21 1 -3.8786 0.0611
40 21 4 12.9040 0.0141
40 21 7 -3.2134 -0.1060
40 21 10 -3.1771 0.1893
40 22 -9 -4.8893 -0.1317
40 22 -6 -3.8336 -0.1416
40 22 -3 5.6644 0.1110
40 22 0 9.5002 0.0066
40 22 3 7.9180 -0.0176
40 22 6 1.2335 0.0161
40 22 9 -5.5086 0.1077
40 23 -1 0.8741 -0.0091
40 23 2 9.2433 0.0370
41 0 -28 15.0894 -0.5274
41 0 -22 2.9936 0.1572
41 0 -16 19.2817 0.2483
41 0 -10 -8.8908 1.2114
41 0 -4 11.5900 -1.1627
41 0 2 8.6947 -1.5007
41 0 8 -16.8680 -0.1822
41 0 14 -14.9737 1.3535
41 0 20 17.3427 0.2142
41 0 26 5.5913 -0.5776
41 0 32 15.2237 -0.3081
41 1 -32 -4.9791 0.0791
41 1 -29 -4.5631 0.1009
41 1 -26 -7.2204 -0.1832
41 1 -23 2.7465 0.0607
41 1 -20 4.1063 -0.0349
41 1 -17 -19.3304 0.0205
41 1 -14 -8.3886 0.0519
41 1 -11 -8.3824 -0.5122
41 1 -8 -19.5774 0.0393
41 1 -5 8.1913 0.4250
41 1 -2 -6.8488 0.1128
41 1 1 -0.9894 -0.4730
41 1 4 -9.9373 -0.3087
41 1 7 4.1258 1.1740
41 1 10 2.9786 0.3770
41 1 13 -11.4820 -0.7771
41 1 16 6.0095 -0.0932
41 1 19 9.0160 0.5044
41 1 22 -0.0250 0.0285
41 1 25 1.7844 -0.4549
41 1 28 26.8627 -0.1367
41 1 31 -9.2179 0.3020
41 2 -30 10.6686 0.1828
41 2 -27 5.3188 0.0099
41 2 -24 -3.7859 -0.1311
41 2 -21 -11.5325 0.0096
41 2 -18 14.5462 -0.0532
41 2 -15 19.5971 0.0880
41 2 -12 10.7229 0.0172
41 2 -9 -3.0245 -0.1711
41 2 -6 -5.4847 0.2958
41 2 -3 -2.1301 0.3636
41 2 0 -6.9145 0.2108
41 2 3 -4.4684 -0.0772
41 2 6 -13.0599 -0.3857
41 2 9 -10.1786 0.1844
41 2 12 0.0287 -0.0173
41 2 15 14.4585 -0.4336
41 2 18 17.3868 0.0582
41 2 21 -10.2740 0.1372
41 2 24 -3.2331 0.1917
41 2 27 -18.7893 -0.0267
41 2 30 0.2442 -0.0934
41 3 -31 -3.4515 -0.0644
41 3 -28 8.8012 -0.0451
41 3 -25 -10.1071 0.0648
41 3 -22 -12.6988 -0.2046
41 3 -19 0.5856 0.1075
41 3 -16 -5.7203 0.1657
41 3 -13 11.3248 -0.0600
41 3 -10 3.0461 -0.0609
41 3 -7 -13.1825 -0.4228
41 3 -4 1.4633 0.3065
41 3 -1 -0.6333 0.2157
41 3 2 9.9610 -0.2621
41 3 5 -2.4080 0.1064
41 3 8 1.9354 -0.3073
41 3 11 -6.5110 0.1422
41 3 14 -0.4346 -0.1197
41 3 17 -1.0536 -0.2164
41 3 20 -8.2746 0.2032
41 3 23 -3.8104 0.0160
41 3 26 -2.1266 0.1751
41 3 29 1.0608 -0.0689
41 4 -29 -10.4400 -0.0680
41 4 -26 20.4933 -0.1090
41 4 -23 4.2472 0.0298
41 4 -20 0.9435 -0.1267
41 4 -17 5.2276 -0.1706
41 4 -14 -5.9066 0.0887
41 4 -11 2.7793 0.1733
41 4 -8 -1.5202 0.1043
41 4 -5 -6.8967 -0.2174
41 4 -2 2.1523 -0.0085
41 4 1 0.2503 0.3247
41 4 4 2.4597 -0.1682
41 4 7 -10.6089 -0.3998
41 4 10 0.7201 0.0160
41 4 13 -11.3393 0.3270
41 4 16 5.8686 0.1337
41 4 19 -7.5738 -0.0443
41 4 22 -9.1685 -0.0533
41 4 25 13.7743 0.1521
41 4 28 -9.2202 0.1634
41 4 31 5.3195 -0.0760
41 5 -30 -3.9356 -0.0163
41 5 -27 12.1626 -0.1531
41 5 -24 -4.3086 0.0307
41 5 -21 -14.2646 0.1532
41 5 -18 1.6163 -0.0176
41 5 -15 -14.1121 0.0843
41 5 -12 -7.8177 0.2456
41 5 -9 19.8621 0.0118
41 5 -6 -6.6161 -0.2698
41 5 -3 3.1234 -0.4772
41 5 0 -3.1286 -0.1961
41 5 3 9.9451 0.2306
41 5 6 10.8001 0.1129
41 5 9 8.6940 0.0306
41 5 12 -8.9902 0.3662
41 5 15 7.2529 0.1029
41 5 18 -8.9081 -0.1940
41 5 21 -11.6342 -0.2055
41 5 24 12.0809 -0.0695
41 5 27 13.2235 -0.0075
41 5 30 -2.9250 0.0859
41 6 -28 2.9121 0.0211
41 6 -25 3.4946 0.0453
41 6 -22 2.2515 -0.0260
41 6 -19 13.4271 -0.0549
41 6 -16 13.5266 -0.0878
41 6 -13 2.3703 -0.1520
41 6 -10 9.8286 -0.0934
41 6 -7 -8.8008 0.0558
41 6 -4 12.3116 -0.0315
41 6 -1 7.0297 0.0201
41 6 2 4.8476 0.3469
41 6 5 1.9223 0.3028
41 6 8 -6.3937 0.0865
41 6 11 -2.8947 -0.3744
41 6 14 -10.2306 -0.0986
41 6 17 2.9933 0.0395
41 6 20 -6.1538 -0.1231
41 6 23 -1.5024 -0.1304
41 6 26 -2.4184 -0.0304
41 6 29 20.3727 0.1908
41 7 -26 -3.2997 -0.0974
41 7 -23 -0.0837 -0.1096
41 7 -20 -17.4835 -0.1515
41 7 -17 -2.6437 -0.0037
41 7 -14 7.5162 0.0498
41 7 -11 -5.2288 -0.0392
41 7 -8 -9.6696 0.2940
41 7 -5 -6.6317 0.2994
41 7 -2 -1.7910 0.0123
41 7 1 -5.3138 -0.1838
41 7 4 -1.8474 -0.2618
41 7 7 -0.4864 0.0258
41 7 10 6.6828 -0.2354
41 7 13 6.4400 -0.1256
41 7 16 6.8784 0.1960
41 7 19 -5.6582 0.1298
41 7 22 -2.6651 0.0983
41 7 25 -10.0898 -0.0288
41 7 28 6.4893 0.1133
41 8 -27 -2.0950 -0.0313
41 8 -24 -0.5265 -0.1302
41 8 -21 2.9220 0.2079
41 8 -18 -0.6035 0.1896
41 8 -15 -0.1038 -0.1412
41 8 -12 9.3647 -0.2261
41 8 -9 -7.9065 -0.1163
41 8 -6 3.1044 -0.0197
41 8 -3 -14.9549 -0.1137
41 8 0 0.8683 -0.0333
41 8 3 0.2310 0.1043
41 8 6 1.8802 0.0970
41 8 9 -0.2204 0.0972
41 8 12 -1.6048 0.0809
41 8 15 -4.5390 0.0727
41 8 18 8.5459 -0.0170
41 8 21 9.8073 -0.0721
41 8 24 -1.1614 -0.0739
41 8 27 -2.0841 0.0187
41 9 -25 4.9202 -0.0806
41 9 -22 0.4693 -0.0116
41 9 -19 -7.1323 0.1385
41 9 -16 -18.4277 -0.0907
41 9 -13 25.3229 -0.2105
41 9 -10 -3.5889 0.1210
41 9 -7 14.3298 0.0385
41 9 -4 1.1215 0.0377
41 9 -1 -5.0221 0.0817
41 9 2 15.5603 0.1032
41 9 5 0.1705 0.3222
41 9 8 2.2110 -0.2827
41 9 11 -7.4312 -0.0668
41 9 14 -7.1237 0.1944
41 9 17 -3.1629 -0.1855
41 9 20 2.4969 0.0067
41 9 23 16.6048 -0.0467
41 9 26 -8.2134 -0.0250
41 10 -26 -6.4981 -0.0181
41 10 -23 8.1744 -0.0228
41 10 -20 -7.0527 -0.0790
41 10 -17 -0.4887 0.1917
41 10 -14 -20.6112 0.2017
41 10 -11 2.7284 0.0228
41 10 -8 -11.2934 -0.0591
41 10 -5 -4.7682 -0.3227
41 10 -2 5.4897 0.0283
41 10 1 -12.2203 0.0077
41 10 4 -4.2385 -0.0505
41 10 7 -3.2092 0.1084
41 10 10 2.1088 -0.0135
41 10 13 0.2175 0.0613
41 10 16 -0.3660 -0.1462
41 10 19 4.0455 -0.0958
41 10 22 10.1945 0.2625
41 11 -24 -10.0432 -0.0056
41 11 -21 4.9944 -0.0645
41 11 -18 13.1031 -0.1683
41 11 -15 -4.8766 0.0267
41 11 -12 -1.9849 0.1017
41 11 -9 -2.8820 -0.1616
41 11 -6 -12.5194 -0.0176
41 11 -3 0.5271 0.1185
41 11 0 0.4652 0.0646
41 11 3 -7.1983 0.0272
41 11 6 -5.5572 -0.0507
41 11 9 16.9339 0.0019
41 11 12 11.0934 -0.0689
41 11 15 13.3100 -0.0775
41 11 18 12.0618 0.0894
41 11 21 1.7745 0.0134
41 11 24 -8.5648 -0.0170
41 12 -22 8.1636 -0.1698
41 12 -19 3.1335 0.0867
41 12 -16 7.8812 0.0468
41 12 -13 1.0087 0.0783
41 12 -10 -13.3648 0.1036
41 12 -7 -1.2380 0.0744
41 12 -4 -6.7328 0.1406
41 12 -1 -8.7851 -0.2344
41 12 2 7.8972 -0.1493
41 12 5 -3.9722 0.0805
41 12 8 -1.2062 -0.1233
41 12 11 -1.7673 -0.0028
41 12 14 -10.2307 0.0477
41 12 17 7.8264 0.2276
41 12 20 1.3196 -0.0858
41 12 23 8.3917 0.0186
41 13 -23 1.9964 -0.0559
41 13 -20 -9.7377 0.1317
41 13 -17 -3.0703 0.1161
41 13 -14 3.9391 -0.1235
41 13 -11 -5.1986 0.0284
41 13 -8 -6.1019 0.0573
41 13 -5 -19.8388 -0.0721
41 13 -2 14.3026 -0.1520
41 13 1 4.8554 -0.1408
41 13 4 5.2247 0.1665
41 13 7 -15.9866 0.0306
41 13 10 7.9456 -0.0361
41 13 13 -17.1955 0.1000
41 13 16 1.8171 0.0012
41 13 19 11.9850 -0.0982
41 13 22 9.5951 -0.2398
41 14 -21 -1.2181 0.0683
41 14 -18 12.4746 -0.1377
41 14 -15 2.3484 -0.1020
41 14 -12 9.4697 0.0190
41 14 -9 8.6724 0.1867
41 14 -6 -1.3305 0.0472
41 14 -3 -15.4327 -0.1123
41 14 0 4.2944 0.2748
41 14 3 -2.0767 0.1565
41 14 6 8.6793 -0.0577
41 14 9 0.2011 -0.0723
41 14 12 16.3771 -0.1783
41 14 15 -3.5832 0.0772
41 14 18 8.1486 -0.0777
41 14 21 5.8822 -0.0311
41 15 -19 -2.7786 0.0788
41 15 -16 -10.5269 -0.0681
41 15 -13 -16.1409 0.0508
41 15 -10 0.0158 0.0339
41 15 -7 -13.8353 -0.1118
41 15 -4 4.4052 -0.0198
41 15 -1 16.6209 0.0409
41 15 2 -16.5504 -0.0014
41 15 5 -1.4255 -0.1561
41 15 8 -3.8848 0.0205
41 15 11 -2.5851 -0.0903
41 15 14 10.1569 -0.0849
41 15 17 -13.4383 0.0625
41 15 20 1.4799 0.2088
41 16 -17 -11.5018 0.1795
41 16 -14 -11.7878 0.0092
41 16 -11 12.8002 -0.0265
41 16 -8 -0.6428 0.0319
41 16 -5 12.0859 -0.0643
41 16 -2 -3.5333 -0.0816
41 16 1 10.8346 -0.2297
41 16 4 -5.7948 0.0804
41 16 7 2.7712 0.2421
41 16 10 12.7929 0.0594
41 16 13 2.2172 0.0623
41 16 16 -11.0248 0.0811
41 16 19 -8.6147 -0.1141
41 17 -15 -7.2859 0.1161
41 17 -12 -6.0765 0.0106
41 17 -9 0.6642 0.0050
41 17 -6 -12.2143 0.1177
41 17 -3 -2.4363 0.0088
41 17 0 -2.9992 -0.3200
41 17 3 4.8929 0.0406
41 17 6 5.6341 0.3478
41 17 9 3.5603 -0.0009
41 17 12 -17.4889 -0.0935
41 17 15 5.6581 0.1228
41 18 -16 17.9023 -0.2189
41 18 -13 4.0734 -0.0604
41 18 -10 5.8365 0.1267
41 18 -7 -8.6081 0.0308
41 18 -4 10.6501 0.1465
41 18 -1 -7.6178 0.0006
41 18 2 3.5810 -0.0661
41 18 5 13.1156 0.0706
41 18 8 8.0320 -0.1249
41 18 11 -7.4827 -0.2713
41 18 14 -10.1352 -0.1107
41 19 -14 -4.9125 -0.1657
41 19 -11 -1.4109 0.1192
41 19 -8 -4.3409 0.0429
41 19 -5 4.5419 -0.1087
41 19 -2 1.0740 0.0187
41 19 1 0.2580 0.0738
41 19 4 3.9478 -0.1361
41 19 7 -3.3614 -0.0073
41 19 10 14.7062 0.0878
41 19 13 5.3451 0.0216
41 20 -9 2.2380 0.0385
41 20 -6 4.0941 -0.0659
41 20 -3 -3.6736 -0.0726
41 20 0 -0.2060 0.1789
41 20 3 -13.7766 -0.0102
41 20 6 -3.8233 -0.1565
41 20 9 -6.7956 0.2237
41 21 -7 -5.0769 0.0303
41 21 -4 -1.2351 0.1004
41 21 -1 -2.3798 -0.0454
41 21 2 9.4095 0.0878
41 21 5 -1.6135 -0.1064
41 21 8 10.3003 -0.0877
42 0 -30 -1.8659 0.1215
42 0 -24 -1.0924 -0.2621
42 0 -18 12.7598 0.5337
42 0 -12 4.7710 -0.3193
42 0 -6 -7.0164 -0.0504
42 0 0 -19.0231 -1.6811
42 0 6 -18.5227 1.6275
42 0 12 4.7154 0.1264
42 0 18 -7.8338 0.2308
42 0 24 -7.6423 -0.9414
42 0 30 6.8863 0.1368
42 1 -31 -9.5179 0.1003
42 1 -28 6.1731 0.1900
42 1 -25 -5.5870 -0.1168
42 1 -22 -0.9805 -0.0529
42 1 -19 6.3735 -0.0910
42 1 -16 -3.3059 -0.0231
42 1 -13 -12.1451 -0.1895
42 1 -10 22.9916 -0.4611
42 1 -7 -8.2914 0.8185
42 1 -4 16.9061 0.5504
42 1 -1 10.0327 -0.1403
42 1 2 -5.6614 -0.0212
42 1 5 -11.9289 0.3738
42 1 8 -5.9694 0.4027
42 1 11 -1.3848 -0.8840
42 1 14 13.5908 -0.5539
42 1 17 -7.4913 0.5393
42 1 20 5.3800 0.1350
42 1 23 -8.1534 -0.1155
42 1 26 -19.1609 -0.0667
42 1 29 -3.3367 0.3944
42 2 -29 2.4051 0.1055
42 2 -26 2.9407 -0.0497
42 2 -23 15.2354 -0.0910
42 2 -20 10.4035 0.2199
42 2 -17 -7.7759 0.0243
42 2 -14 0.3585 0.0346
42 2 -11 12.4231 -0.0543
42 2 -8 13.1530 -0.1698
42 2 -5 -5.5521 0.4697
42 2 -2 -4.9246 -0.2346
42 2 1 -5.0591 -0.2705
42 2 4 5.1056 -0.3379
42 2 7 -1.0860 -0.1824
42 2 10 8.5689 0.4471
42 2 13 -6.4986 -0.2528
42 2 16 -0.1669 0.0247
42 2 19 -4.0447 0.1408
42 2 22 -11.9380 0.0096
42 2 25 7.7426 0.0890
42 2 28 -11.2153 -0.1358
42 2 31 2.2442 0.0025
42 3 -30 12.0230 0.1240
42 3 -27 10.3533 0.0657
42 3 -24 -4.8200 -0.1490
42 3 -21 -3.3791 -0.0239
42 3 -18 -5.7005 0.1413
42 3 -15 9.2881 -0.1563
42 3 -12 -0.0021 -0.1520
42 3 -9 -8.9168 0.0322
42 3 -6 3.2707 0.0667
42 3 -3 16.9492 0.2705
42 3 0 0.1474 -0.1508
42 3 3 -5.4609 0.0435
42 3 6 -15.4272 -0.0584
42 3 9 4.9402 -0.0895
42 3 12 2.2615 0.2074
42 3 15 -2.2328 -0.1262
42 3 18 -8.1059 -0.0775
42 3 21 5.9933 0.0560
42 3 24 -3.3260 -0.0401
42 3 27 -5.9142 0.0784
42 3 30 5.1343 -0.1003
42 4 -28 2.8678 -0.0494
42 4 -25 -0.9157 -0.0069
42 4 -22 -8.1135 0.1826
42 4 -19 16.1854 -0.0866
42 4 -16 12.4995 0.0750
42 4 -13 13.2975 0.1194
42 4 -10 9.5578 -0.1005
42 4 -7 11.5157 -0.1812
42 4 -4 24.3533 -0.2741
42 4 -1 8.2063 0.1251
42 4 2 -17.9305 0.0498
42 4 5 -10.0013 -0.0350
42 4 8 -3.4246 0.3437
42 4 11 5.7660 0.1478
42 4 14 -8.2507 0.0975
42 4 17 11.4740 -0.0848
42 4 20 2.7388 -0.1591
42 4 23 -1.6526 0.0260
42 4 26 -9.0215 -0.0430
42 4 29 0.6892 0.0621
42 5 -29 3.6861 0.1491
42 5 -26 3.5407 0.0712
42 5 -23 -2.6177 -0.0148
42 5 -20 -11.4565 0.0277
42 5 -17 10.8807 -0.0661
42 5 -14 0.4298 -0.0875
42 5 -11 -13.5286 -0.1198
42 5 -8 -9.9336 -0.1331
42 5 -5 2.1135 -0.0858
42 5 -2 -16.3280 0.0788
42 5 1 -3.3484 0.3221
42 5 4 -17.1758 0.2499
42 5 7 14.5559 0.0716
42 5 10 15.1327 -0.0353
42 5 13 6.6877 -0.1975
42 5 16 -3.0811 -0.1593
42 5 19 -9.6504 -0.0906
42 5 22 9.3617 0.0703
42 5 25 14.1210 -0.0400
42 5 28 -8.9587 -0.0545
42 6 -27 6.7336 0.1794
42 6 -24 -1.7175 -0.1220
42 6 -21 -13.9263 -0.2755
42 6 -18 -11.7950 0.0480
42 6 -15 0.2385 0.0729
42 6 -12 1.1511 0.0489
42 6 -9 -4.5094 0.2322
42 6 -6 -10.7014 0.1912
42 6 -3 -4.0791 0.1133
42 6 0 5.8998 -0.0355
42 6 3 1.0151 -0.3012
42 6 6 -9.2397 -0.1760
42 6 9 -1.6790 -0.2069
42 6 12 9.8576 -0.0722
42 6 15 -3.5222 0.3035
42 6 18 10.2469 0.0620
42 6 21 -5.8666 0.1542
42 6 24 9.7041 0.0325
42 6 27 11.5560 -0.0587
42 7 -25 6.6387 0.0062
42 7 -22 -6.9596 -0.0938
42 7 -19 1.1913 0.0858
42 7 -16 -3.7904 0.2021
42 7 -13 3.6272 -0.0758
42 7 -10 -0.9940 -0.0682
42 7 -7 -7.2321 0.1473
42 7 -4 -3.0172 -0.0208
42 7 -1 5.7274 -0.1632
42 7 2 9.7442 -0.3129
42 7 5 4.4891 0.0105
42 7 8 -2.9994 0.1525
42 7 11 -2.6296 0.0458
42 7 14 -9.1960 0.1189
42 7 17 -0.2122 0.0138
42 7 20 -0.1057 0.0255
42 7 23 7.6714 0.0491
42 7 26 4.0728 -0.0655
42 8 -26 -0.9557 0.0385
42 8 -23 -9.1676 0.0809
42 8 -20 -28.1890 -0.0470
42 8 -17 2.8227 -0.3001
42 8 -14 -4.3631 -0.0855
42 8 -11 0.9745 0.0952
42 8 -8 -10.4255 -0.0996
42 8 -5 -8.6262 0.1433
42 8 -2 5.0485 0.1961
42 8 1 8.4680 0.1399
42 8 4 0.7191 0.0919
42 8 7 -0.5424 -0.1460
42 8 10 -16.7384 0.1201
42 8 13 -9.4350 -0.1078
42 8 16 -8.4361 -0.1815
42 8 19 -1.3857 -0.0454
42 8 22 -14.6014 -0.0669
42 8 25 5.0786 0.2173
42 9 -24 -3.7776 0.1188
42 9 -21 7.3827 -0.0735
42 9 -18 -0.2251 -0.0274
42 9 -15 5.3103 0.0535
42 9 -12 3.1194 0.2139
42 9 -9 -10.1327 0.0510
42 9 -6 -0.1950 -0.2283
42 9 -3 4.2016 0.1236
42 9 0 6.7406 0.0415
42 9 3 6.4135 -0.0424
42 9 6 -0.7822 -0.1719
42 9 9 7.0616 -0.1464
42 9 12 6.9230 0.1685
42 9 15 3.0383 -0.0479
42 9 18 8.8423 -0.0789
42 9 21 -2.7150 0.1307
42 9 24 0.4692 0.0505
42 10 -22 2.6132 -0.0039
42 10 -19 5.2626 -0.1029
42 10 -16 -2.8282 0.0599
42 10 -13 9.6094 0.0334
42 10 -10 -4.7539 -0.1797
42 10 -7 7.7699 -0.1056
42 10 -4 -8.8617 0.0713
42 10 -1 6.1799 0.1842
42 10 2 -5.5556 -0.0279
42 10 5 1.6734 0.0036
42 10 8 15.1288 0.1666
42 10 11 3.1022 -0.0942
42 10 14 -3.0157 -0.1599
42 10 17 6.5778 0.0818
42 10 20 11.7258 0.1353
42 10 23 -9.8576 -0.1900
42 11 -23 -1.0587 -0.1056
42 11 -20 -5.1943 -0.0591
42 11 -17 9.2292 -0.0301
42 11 -14 -0.9197 0.1446
42 11 -11 -1.0369 -0.0417
42 11 -8 -20.3188 0.1234
42 11 -5 -9.0202 0.1301
42 11 -2 -8.5222 -0.1715
42 11 1 12.4212 -0.0424
42 11 4 10.4328 -0.1417
42 11 7 -8.5997 0.0476
42 11 10 7.5664 0.0477
42 11 13 -3.2509 -0.0092
42 11 16 8.1832 0.2679
42 11 19 9.0762 -0.0487
42 11 22 1.4428 -0.0750
42 12 -21 14.6789 0.0051
42 12 -18 12.8659 0.1702
42 12 -15 -15.7378 -0.0542
42 12 -12 7.4285 -0.0175
42 12 -9 -13.1079 0.0155
42 12 -6 -14.9244 -0.0557
42 12 -3 -9.0707 -0.2992
42 12 0 -3.8044 -0.0516
42 12 3 13.9098 0.1533
42 12 6 -0.8550 0.0599
42 12 9 9.0435 0.1086
42 12 12 4.2106 0.1459
42 12 15 2.3591 0.0824
42 12 18 3.4024 -0.0753
42 12 21 4.8006 -0.1331
42 13 -19 4.0568 -0.0816
42 13 -16 -4.4410 -0.0742
42 13 -13 -8.5762 -0.2407
42 13 -10 -9.3256 0.1186
42 13 -7 -18.0476 0.2328
42 13 -4 4.2366 -0.0609
42 13 -1 -2.3737 0.1417
42 13 2 -5.6290 0.0675
42 13 5 -5.9897 0.0313
42 13 8 4.1165 -0.0672
42 13 11 12.7358 -0.1191
42 13 14 9.7110 -0.0893
42 13 17 -12.3962 -0.0663
42 13 20 4.3715 -0.0806
42 14 -20 -6.0355 -0.0126
42 14 -17 7.9772 0.0054
42 14 -14 -0.4701 -0.0040
42 14 -11 -6.3148 -0.1500
42 14 -8 9.6125 0.1106
42 14 -5 -1.8557 0.1448
42 14 -2 0.9183 0.1033
42 14 1 -4.9928 -0.1377
42 14 4 12.7402 -0.1271
42 14 7 -8.9802 0.0270
42 14 10 -2.5248 -0.2110
42 14 13 -10.0206 -0.0173
42 14 16 1.4989 0.0878
42 14 19 -5.9424 0.2466
42 15 -18 -18.2733 0.0114
42 15 -15 -17.2786 0.0256
42 15 -12 0.0384 -0.0874
42 15 -9 -7.9607 -0.2156
42 15 -6 3.0311 -0.1280
42 15 -3 6.2747 0.1522
42 15 0 -2.9005 -0.0671
42 15 3 -2.9469 -0.1389
42 15 6 9.5849 0.1757
42 15 9 -6.4382 0.1819
42 15 12 2.7181 -0.0106
42 15 15 -1.4417 -0.0932
42 15 18 -2.1672 0.1305
42 16 -16 -3.5185 0.1698
42 16 -13 14.0523 -0.0070
42 16 -10 -19.7057 0.0168
42 16 -7 -2.0028 -0.0738
42 16 -4 -7.0828 -0.0287
42 16 -1 18.1215 0.0051
42 16 2 -1.2705 0.0647
42 16 5 5.3423 0.1322
42 16 8 2.2105 0.0894
42 16 11 -15.4015 0.1156
42 16 14 -14.5360 -0.1160
42 16 17 0.6643 -0.2505
42 17 -14 -5.9265 0.0741
42 17 -11 16.4100 -0.0140
42 17 -8 -0.6326 0.0159
42 17 -5 16.6858 0.0406
42 17 -2 12.3171 -0.1411
42 17 1 -2.7783 0.0942
42 17 4 -1.8191 0.0416
42 17 7 -2.8900 -0.3272
42 17 10 -6.2054 0.0553
42 17 13 1.2506 0.1869
42 18 -12 16.2661 0.0976
42 18 -9 -2.1535 0.0511
42 18 -6 -10.4870 -0.0200
42 18 -3 3.1243 -0.0666
42 18 0 0.8204 -0.0333
42 18 3 -5.1727 0.1297
42 18 6 -3.0339 -0.1772
42 18 9 0.5609 -0.2069
42 18 12 11.1390 0.1376
42 19 -10 -11.4452 0.0880
42 19 -7 -0.9138 0.0804
42 19 -4 7.8458 -0.1312
42 19 -1 12.7550 0.0611
42 19 2 -0.1069 0.0232
42 19 5 10.2428 0.0790
42 19 8 -4.3795 0.1150
42 20 -5 6.7710 0.0282
42 20 -2 3.1429 0.0013
42 20 1 0.9082 0.0761
42 20 4 1.4101 -0.1525
42 20 7 -6.1569 0.1757
43 0 -26 7.6133 0.2722
43 0 -20 0.6391 0.2089
43 0 -14 4.8709 -0.6623
43 0 -8 -5.0496 0.1618
43 0 -2 7.4160 -0.5027
43 0 4 11.6767 1.9488
43 0 10 -16.7170 -1.3923
43 0 16 2.6590 0.4503
43 0 22 -4.9478 -0.7083
43 0 28 7.3399 0.5949
43 1 -30 13.9309 -0.0033
43 1 -27 3.9134 -0.0127
43 1 -24 -0.5126 -0.0312
43 1 -21 0.4701 -0.1172
43 1 -18 -0.7026 -0.0083
43 1 -15 6.1763 0.2108
43 1 -12 16.4569 -0.0622
43 1 -9 -10.4462 0.2128
43 1 -6 17.9125 0.4949
43 1 -3 0.1449 -0.3515
43 1 0 3.3001 -0.0959
43 1 3 -10.5813 -0.3410
43 1 6 5.1089 -0.0556
43 1 9 5.0426 -0.3339
43 1 12 -15.0952 -0.4453
43 1 15 -3.3147 0.9410
43 1 18 2.3125 0.2134
43 1 21 0.7393 -0.1865
43 1 24 -3.6128 0.1439
43 1 27 2.7413 0.0043
43 1 30 -1.9391 0.0023
43 2 -28 5.1429 0.1149
43 2 -25 -12.0957 -0.0688
43 2 -22 -5.1922 -0.0012
43 2 -19 -2.2055 0.1354
43 2 -16 -13.9525 -0.0733
43 2 -13 -5.2014 0.0071
43 2 -10 10.4641 -0.1368
43 2 -7 3.6900 0.0850
43 2 -4 6.4595 0.0271
43 2 -1 -13.2838 -0.3637
43 2 2 -2.0234 0.0412
43 2 5 -8.2929 -0.2005
43 2 8 3.7837 0.4341
43 2 11 -9.9301 0.0857
43 2 14 -0.0886 -0.2733
43 2 17 -9.7084 0.1575
43 2 20 -6.2958 -0.0806
43 2 23 -8.3442 0.0218
43 2 26 -6.9728 -0.1590
43 2 29 4.9579 -0.0706
43 3 -29 6.2332 -0.0396
43 3 -26 -9.8830 0.0901
43 3 -23 17.4583 0.1228
43 3 -20 6.3851 -0.0396
43 3 -17 10.6024 -0.0225
43 3 -14 -11.6281 -0.0542
43 3 -11 13.5933 0.1061
43 3 -8 4.7328 -0.1911
43 3 -5 -10.4780 -0.0266
43 3 -2 3.4204 0.4608
43 3 1 -3.9677 -0.0031
43 3 4 -16.1168 -0.1317
43 3 7 12.2249 -0.0986
43 3 10 -12.4450 0.1888
43 3 13 -3.8828 0.0877
43 3 16 -1.6053 -0.3835
43 3 19 -5.7057 0.0739
43 3 22 13.1438 0.1840
43 3 25 7.0281 -0.0051
43 3 28 -18.7240 -0.1874
43 4 -27 -5.1956 0.0477
43 4 -24 -8.0541 0.2712
43 4 -21 -16.4623 -0.0178
43 4 -18 -1.9680 -0.1021
43 4 -15 3.0204 0.1754
43 4 -12 0.0866 -0.1400
43 4 -9 8.5864 -0.2922
43 4 -6 0.8435 -0.2768
43 4 -3 18.2075 0.0922
43 4 0 -6.6439 0.6038
43 4 3 -2.2914 0.0730
43 4 6 0.8928 0.0102
43 4 9 5.4990 0.0358
43 4 12 10.4323 -0.2307
43 4 15 3.6569 -0.0980
43 4 18 11.8613 -0.2460
43 4 21 -10.4230 0.0444
43 4 24 10.8925 0.1724
43 4 27 10.4599 -0.0390
43 5 -25 -5.9337 0.0163
43 5 -22 3.1205 -0.0805
43 5 -19 15.9979 -0.1159
43 5 -16 -2.6344 -0.0788
43 5 -13 9.2744 0.2547
43 5 -10 3.1106 0.1658
43 5 -7 -0.6941 -0.0662
43 5 -4 3.1178 0.0137
43 5 -1 10.8155 0.1629
43 5 2 -8.2075 0.0702
43 5 5 -10.4763 -0.2158
43 5 8 6.0572 -0.3774
43 5 11 5.6658 -0.0683
43 5 14 9.8044 0.1988
43 5 17 0.9120 0.0694
43 5 20 -5.4926 -0.0189
43 5 23 -6.0280 0.0813
43 5 26 1.7817 0.0840
43 6 -26 -5.0302 -0.0058
43 6 -23 -2.8420 -0.0448
43 6 -20 2.0985 0.0854
43 6 -17 -5.1517 0.1403
43 6 -14 2.6147 0.0088
43 6 -11 0.7796 0.1497
43 6 -8 5.2058 0.1125
43 6 -5 0.4031 -0.3309
43 6 -2 0.2443 -0.2858
43 6 1 -5.0350 -0.1603
43 6 4 2.7073 0.0399
43 6 7 -10.5317 0.0934
43 6 10 10.6038 -0.0053
43 6 13 -2.2584 0.3874
43 6 16 -5.6313 0.1677
43 6 19 15.4358 -0.1233
43 6 22 3.9354 -0.1343
43 6 25 -13.6431 -0.1070
43 7 -24 6.9730 0.0762
43 7 -21 -8.7051 0.1673
43 7 -18 -6.9937 -0.1182
43 7 -15 -2.8898 -0.2355
43 7 -12 2.1685 -0.1431
43 7 -9 8.2684 0.1232
43 7 -6 6.3597 0.0977
43 7 -3 -4.9592 -0.1484
43 7 0 7.0798 -0.0595
43 7 3 -13.2393 0.3240
43 7 6 -12.7542 0.2293
43 7 9 -11.3189 -0.1232
43 7 12 5.6434 -0.1810
43 7 15 -4.0462 -0.0871
43 7 18 -2.9574 0.1062
43 7 21 -0.7933 -0.1859
43 7 24 6.0768 -0.0226
43 8 -25 -11.1433 -0.0190
43 8 -22 -13.3606 0.0801
43 8 -19 -12.3817 -0.0723
43 8 -16 -15.1785 -0.0372
43 8 -13 8.1382 0.1467
43 8 -10 0.5433 0.0135
43 8 -7 1.3313 0.0282
43 8 -4 0.4598 0.1602
43 8 -1 -5.3471 -0.1476
43 8 2 19.7861 -0.0802
43 8 5 -4.8096 -0.0875
43 8 8 9.6449 0.1558
43 8 11 -1.7500 -0.0446
43 8 14 0.2418 -0.2961
43 8 17 1.8435 0.1708
43 8 20 -4.6270 0.1065
43 8 23 4.3485 0.1739
43 9 -23 5.6955 0.0183
43 9 -20 9.6013 0.0493
43 9 -17 8.0802 0.0918
43 9 -14 -14.5772 -0.0645
43 9 -11 7.0023 -0.0809
43 9 -8 -2.9713 -0.1995
43 9 -5 5.9642 0.0697
43 9 -2 2.2330 0.1300
43 9 1 -7.6687 -0.0587
43 9 4 2.2944 -0.0860
43 9 7 -11.3839 0.0630
43 9 10 18.1743 0.0904
43 9 13 -9.6882 -0.1094
43 9 16 12.2233 -0.0815
43 9 19 -5.3499 0.2321
43 9 22 0.7882 0.0220
43 10 -21 -1.5316 -0.0180
43 10 -18 10.5650 -0.0238
43 10 -15 13.9602 0.0468
43 10 -12 -11.2523 -0.1645
43 10 -9 -4.6703 0.0156
43 10 -6 -0.6430 0.2768
43 10 -3 4.5176 -0.0909
43 10 0 1.4972 0.0218
43 10 3 3.2843 -0.0380
43 10 6 1.3249 -0.0044
43 10 9 15.8259 0.0410
43 10 12 -4.0671 -0.1859
43 10 15 -17.6329 0.0995
43 10 18 7.5395 0.1023
43 10 21 -6.2478 -0.2504
43 11 -22 1.7718 -0.0789
43 11 -19 0.6173 0.1454
43 11 -16 -6.5125 0.2084
43 11 -13 4.7985 0.0625
43 11 -10 2.2349 -0.2308
43 11 -7 -9.5602 -0.0732
43 11 -4 5.4309 -0.1492
43 11 -1 13.3490 -0.1863
43 11 2 -5.2901 0.0915
43 11 5 9.8281 0.0133
43 11 8 0.3996 0.2052
43 11 11 15.1129 0.1444
43 11 14 -18.0549 0.0789
43 11 17 0.4825 -0.1633
43 11 20 0.6294 -0.0963
43 12 -20 -7.9845 -0.1174
43 12 -17 6.1416 -0.0887
43 12 -14 -1.1295 0.0182
43 12 -11 -0.0545 -0.0103
43 12 -8 3.2174 -0.1247
43 12 -5 -8.7764 0.0169
43 12 -2 -2.6048 0.1748
43 12 1 5.0761 0.0919
43 12 4 1.6214 -0.0432
43 12 7 -20.8684 0.1090
43 12 10 -2.6380 0.0467
43 12 13 5.0135 -0.1314
43 12 16 -11.8062 -0.1072
43 12 19 7.7739 -0.0201
43 13 -18 -4.3669 -0.1729
43 13 -15 -7.7293 -0.0317
43 13 -12 12.6354 0.1962
43 13 -9 -9.8787 0.2217
43 13 -6 -5.8932 0.0192
43 13 -3 -14.2270 0.0239
43 13 0 13.9932 -0.1188
43 13 3 10.8175 -0.2521
43 13 6 -6.4988 -0.0810
43 13 9 6.4552 -0.0883
43 13 12 11.6232 -0.0203
43 13 15 4.6066 -0.0079
43 13 18 -7.4670 0.0712
43 14 -16 -5.0483 -0.1330
43 14 -13 -1.2190 -0.0143
43 14 -10 -9.6390 -0.0744
43 14 -7 5.3318 -0.0171
43 14 -4 -5.9419 0.0351
43 14 -1 7.4025 -0.0705
43 14 2 -8.2388 -0.0215
43 14 5 9.0670 0.0356
43 14 8 1.3010 0.0205
43 14 11 17.9912 0.0150
43 14 14 0.8732 0.0489
43 14 17 2.2385 0.0939
43 15 -14 -7.0917 -0.0507
43 15 -11 -1.6111 0.0368
43 15 -8 2.0780 -0.1518
43 15 -5 0.4581 0.1099
43 15 -2 5.1915 0.1501
43 15 1 3.2077 0.0712
43 15 4 17.0711 0.0411
43 15 7 -6.2298 0.0624
43 15 10 8.2671 -0.0519
43 15 13 -3.6489 -0.1523
43 15 16 -14.3448 -0.1378
43 16 -12 0.0433 -0.1763
43 16 -9 -4.7821 -0.0090
43 16 -6 -4.7165 0.0982
43 16 -3 7.9514 -0.0433
43 16 0 -1.6019 0.0541
43 16 3 -4.1002 -0.0124
43 16 6 15.9888 -0.0631
43 16 9 -6.2310 0.0008
43 16 12 -5.6105 -0.1385
43 17 -10 -10.6019 -0.1860
43 17 -7 2.2529 0.0732
43 17 -4 2.9894 0.0134
43 17 -1 -12.6527 -0.1306
43 17 2 -6.7960 0.1009
43 17 5 1.8662 -0.2218
43 17 8 -5.3452 0.0687
43 17 11 -17.8305 0.3077
43 18 -8 -10.6045 -0.0399
43 18 -5 4.5820 -0.0178
43 18 -2 -6.6258 0.0122
43 18 1 -0.2561 -0.0491
43 18 4 3.4986 0.0812
43 18 7 -4.8999 -0.0686
43 19 -3 -1.8767 0.1811
43 19 0 14.3067 -0.0303
43 19 3 -9.7274 -0.1812
44 0 -28 8.4814 -0.2580
44 0 -22 -2.2286 0.1665
44 0 -16 8.8669 -0.3611
44 0 -10 15.2031 1.2811
44 0 -4 -7.7781 -1.2210
44 0 8 -9.1365 -1.5239
44 0 14 -8.8468 1.5659
44 0 20 1.5557 -0.5135
44 0 26 2.4855 0.3405
44 1 -29 6.4185 -0.1369
44 1 -26 -7.2275 -0.1684
44 1 -23 8.4179 -0.0683
44 1 -20 -5.2701 -0.0280
44 1 -17 -2.6942 0.0999
44 1 -14 -7.1566 0.2041
44 1 -11 7.5862 -0.0075
44 1 -8 14.6630 0.5150
44 1 -5 0.1999 -0.5251
44 1 -2 8.7868 -0.4045
44 1 1 -22.6848 0.0482
44 1 4 30.2263 -0.3866
44 1 7 4.1553 0.2698
44 1 10 -8.7856 0.0342
44 1 13 11.8010 0.4551
44 1 16 11.3710 0.2360
44 1 19 4.5900 -0.4833
44 1 22 2.9696 0.2773
44 1 25 3.8257 -0.0037
44 1 28 -11.1201 -0.2210
44 2 -27 1.1913 -0.0474
44 2 -24 6.5316 -0.0661
44 2 -21 -6.5226 0.1181
44 2 -18 -7.2345 -0.1226
44 2 -15 2.0174 -0.2020
44 2 -12 -7.8121 0.1728
44 2 -9 -5.3118 0.0098
44 2 -6 3.1627 0.1873
44 2 -3 12.8474 -0.1124
44 2 0 1.9512 -0.0330
44 2 3 6.0966 0.1812
44 2 6 1.5157 -0.0168
44 2 9 -8.8169 0.2021
44 2 12 3.4696 -0.2374
44 2 15 6.3096 -0.1243
44 2 18 8.1179 0.1794
44 2 21 -5.6337 -0.0976
44 2 24 1.5209 0.0977
44 2 27 -8.5533 -0.0107
44 3 -28 1.2185 -0.0776
44 3 -25 0.4575 0.1649
44 3 -22 12.3344 -0.0622
44 3 -19 0.5668 -0.0496
44 3 -16 7.3379 0.0021
44 3 -13 -2.7910 -0.0453
44 3 -10 3.6407 0.0041
44 3 -7 -9.8232 -0.0880
44 3 -4 18.0168 0.3780
44 3 -1 5.1382 0.1779
44 3 2 6.2287 -0.2979
44 3 5 4.3639 -0.0297
44 3 8 10.7140 -0.1142
44 3 11 -3.9680 0.1457
44 3 14 -0.8036 -0.3383
44 3 17 -8.6722 -0.0924
44 3 20 -19.4971 0.3086
44 3 23 -15.8612 -0.0698
44 3 26 9.6007 -0.0262
44 4 -26 1.0360 -0.0087
44 4 -23 -1.0351 0.0392
44 4 -20 -4.7823 -0.0533
44 4 -17 -2.8086 0.0496
44 4 -14 0.9345 0.0532
44 4 -11 -7.2683 -0.0596
44 4 -8 10.5270 -0.0056
44 4 -5 4.1636 0.0441
44 4 -2 2.8541 0.1685
44 4 1 1.5160 0.0109
44 4 4 -2.9035 -0.1474
44 4 7 1.0164 -0.0927
44 4 10 -0.7180 -0.0993
44 4 13 -4.9582 -0.0689
44 4 16 -1.7539 0.0524
44 4 19 1.1216 0.0676
44 4 22 3.0276 0.0084
44 4 25 -16.7900 0.0185
44 5 -24 19.2211 -0.2096
44 5 -21 -2.7785 0.0260
44 5 -18 -0.5754 0.1278
44 5 -15 6.1465 0.1768
44 5 -12 7.6086 0.1617
44 5 -9 -11.5774 -0.1029
44 5 -6 -13.6679 -0.1130
44 5 -3 -7.2629 -0.0108
44 5 0 4.2858 -0.2638
44 5 3 -6.6811 -0.1407
44 5 6 -2.7817 0.0533
44 5 9 -8.2854 0.1715
44 5 12 -3.2859 0.3832
44 5 15 3.5650 -0.0042
44 5 18 -13.3434 -0.0373
44 5 21 -4.6863 -0.0743
44 5 24 18.9752 -0.1004
44 6 -25 -3.9745 0.0079
44 6 -22 -16.2805 -0.0065
44 6 -19 -2.5472 0.0561
44 6 -16 -4.5274 -0.0894
44 6 -13 -8.4052 -0.1373
44 6 -10 -15.8236 0.0229
44 6 -7 -6.6797 -0.2231
44 6 -4 -6.3349 -0.1403
44 6 -1 8.0419 0.1154
44 6 2 16.8411 0.1568
44 6 5 -9.4627 0.0900
44 6 8 6.0282 0.0623
44 6 11 9.9587 0.2363
44 6 14 -13.7393 -0.1037
44 6 17 -4.3128 -0.2312
44 6 20 -8.0119 -0.0846
44 6 23 -0.5738 -0.0617
44 7 -23 15.7036 0.0786
44 7 -20 -5.2427 -0.0184
44 7 -17 -10.3734 -0.0830
44 7 -14 -2.3447 0.0469
44 7 -11 13.1291 0.0705
44 7 -8 2.3416 0.1921
44 7 -5 5.4618 0.0068
44 7 -2 2.8843 -0.2375
44 7 1 8.6167 0.1715
44 7 4 -1.5659 -0.0277
44 7 7 -12.1104 -0.2630
44 7 10 1.4260 -0.0476
44 7 13 -2.4665 0.0143
44 7 16 11.5850 0.1710
44 7 19 2.2679 -0.0859
44 7 22 -17.7351 0.0561
44 8 -21 15.8200 -0.0600
44 8 -18 -7.8033 0.0890
44 8 -15 -9.2352 0.0984
44 8 -12 1.2893 0.0482
44 8 -9 10.2402 -0.1331
44 8 -6 2.8291 0.0635
44 8 -3 -1.1012 -0.0378
44 8 0 -4.4111 -0.1782
44 8 3 9.8934 0.0314
44 8 6 11.9117 0.0523
44 8 9 8.3332 0.0435
44 8 12 9.9252 -0.0396
44 8 15 -7.9207 0.0395
44 8 18 -6.1085 0.1504
44 8 21 -8.8047 0.1171
44 9 -22 0.8052 -0.0198
44 9 -19 -10.1604 -0.1271
44 9 -16 -7.0772 -0.0861
44 9 -13 6.0533 -0.0443
44 9 -10 -9.5243 0.0099
44 9 -7 5.8485 0.0297
44 9 -4 -12.7169 0.1747
44 9 -1 16.8944 0.1715
44 9 2 10.6862 -0.1756
44 9 5 3.7058 -0.0526
44 9 8 -5.2620 -0.1096
44 9 11 -2.8104 -0.0583
44 9 14 -8.5528 0.0581
44 9 17 -14.4954 0.0790
44 9 20 -6.9222 -0.0448
44 10 -20 19.2591 0.0563
44 10 -17 -4.8011 0.0545
44 10 -14 12.6036 0.0152
44 10 -11 6.3883 0.0279
44 10 -8 -6.7439 -0.0155
44 10 -5 8.4900 -0.2230
44 10 -2 -18.3795 0.0616
44 10 1 9.6163 0.1275
44 10 4 -4.2114 -0.0238
44 10 7 -7.9716 -0.0651
44 10 10 -7.0901 -0.0073
44 10 13 -17.7892 0.1138
44 10 16 1.5095 -0.1670
44 10 19 7.8115 -0.2212
44 11 -18 7.1798 0.0980
44 11 -15 -6.3764 -0.0810
44 11 -12 -15.5034 -0.0957
44 11 -9 6.4912 -0.0886
44 11 -6 -12.1468 -0.1573
44 11 -3 -8.1594 0.1560
44 11 0 5.1719 0.1276
44 11 3 -4.4399 0.1380
44 11 6 2.2098 -0.0327
44 11 9 -2.0180 0.0595
44 11 12 -12.4469 0.0581
44 11 15 0.3365 -0.2316
44 11 18 9.9330 -0.0914
44 12 -19 1.6852 0.0128
44 12 -16 21.3140 -0.0633
44 12 -13 -5.9527 0.0939
44 12 -10 13.6914 0.3151
44 12 -7 -4.3012 -0.0405
44 12 -4 -1.6777 0.0293
44 12 -1 -15.3009 -0.0636
44 12 2 -2.4077 -0.1190
44 12 5 -8.6887 -0.0219
44 12 8 -9.8842 -0.2179
44 12 11 11.7271 0.1245
44 12 14 0.5467 0.1860
44 12 17 1.0869 -0.0322
44 13 -17 -6.2064 -0.0249
44 13 -14 6.0257 0.0499
44 13 -11 1.6265 0.1189
44 13 -8 8.8566 0.0118
44 13 -5 -8.2077 -0.2730
44 13 -2 9.1699 -0.1978
44 13 1 -2.6246 0.0175
44 13 4 11.0243 0.1487
44 13 7 -3.5440 -0.1055
44 13 10 3.8923 0.1191
44 13 13 -2.1222 0.1769
44 13 16 0.4953 0.0431
44 14 -15 10.1909 -0.0567
44 14 -12 -13.4749 0.0153
44 14 -9 -10.1016 -0.1021
44 14 -6 2.1482 0.1344
44 14 -3 5.4622 0.0987
44 14 0 13.6135 0.0085
44 14 3 -3.4635 0.2036
44 14 6 1.4308 -0.0033
44 14 9 -5.6580 -0.0566
44 14 12 -5.2905 -0.0428
44 14 15 -5.7742 0.0592
44 15 -13 11.0632 -0.0956
44 15 -10 -1.3032 -0.0173
44 15 -7 -12.2661 0.0537
44 15 -4 -12.3745 0.1603
44 15 -1 -0.5439 -0.0226
44 15 2 -0.3755 -0.1374
44 15 5 -4.6594 0.0395
44 15 8 -2.3278 -0.1258
44 15 11 -5.9904 -0.0978
44 15 14 -9.4360 -0.0286
44 16 -11 -13.7154 -0.2315
44 16 -8 -4.9875 0.0095
44 16 -5 0.8292 -0.0269
44 16 -2 13.8717 0.0634
44 16 1 8.6791 -0.0561
44 16 4 2.3407 -0.1169
44 16 7 1.4290 0.1777
44 16 10 -4.7025 0.0460
44 17 -6 -7.1474 -0.1626
44 17 -3 8.2803 -0.0427
44 17 0 9.9261 0.2829
44 17 3 15.0326 -0.1596
44 17 6 -6.3601 -0.2489
44 18 -1 -6.9796 -0.0323
44 18 2 -10.8219 0.1134
45 0 -24 -6.0452 0.1659
45 0 -18 -15.3939 -0.1343
45 0 -12 -9.3941 0.4226
45 0 -6 -10.7889 -1.2786
45 0 0 -9.6587 0.4440
45 0 6 -26.8599 -0.2266
45 0 12 11.3402 1.4149
45 0 18 -4.4572 -1.0081
45 0 24 5.9951 -0.0506
45 1 -28 -0.7529 -0.0135
45 1 -25 -17.3282 -0.0328
45 1 -22 -11.6090 0.1290
45 1 -19 -1.4735 0.0108
45 1 -16 -1.1019 0.0439
45 1 -13 -10.8098 -0.0540
45 1 -10 7.7516 -0.1919
45 1 -7 -5.6551 0.1357
45 1 -4 8.0644 -0.1879
45 1 -1 -4.3259 -0.0055
45 1 2 20.1371 0.0456
45 1 5 2.2088 0.3887
45 1 8 -5.5084 0.3101
45 1 11 1.0841 -0.3016
45 1 14 -0.8387 0.0393
45 1 17 -14.3798 -0.0945
45 1 20 18.8902 0.0316
45 1 23 0.8315 0.1166
45 1 26 4.2359 -0.1524
45 2 -26 -7.0987 -0.0053
45 2 -23 2.7470 -0.0432
45 2 -20 -16.1206 -0.0887
45 2 -17 -12.4694 -0.1756
45 2 -14 -0.6309 0.0835
45 2 -11 6.5083 0.0103
45 2 -8 -15.6552 0.0899
45 2 -5 -5.2934 0.3740
45 2 -2 -15.7643 -0.2052
45 2 1 -5.1110 -0.1234
45 2 4 1.1846 0.0587
45 2 7 -1.8644 0.0545
45 2 10 3.0417 -0.2175
45 2 13 2.0001 -0.2957
45 2 16 -15.7124 0.3548
45 2 19 -1.2352 0.2089
45 2 22 0.4616 -0.1351
45 2 25 -4.1670 -0.0641
45 3 -24 -11.5586 0.1087
45 3 -21 -9.4892 -0.2105
45 3 -18 13.9515 0.0355
45 3 -15 1.4510 -0.0188
45 3 -12 -2.1458 -0.0396
45 3 -9 3.3549 -0.0286
45 3 -6 15.4576 0.0904
45 3 -3 6.5675 0.2510
45 3 0 23.1677 -0.3857
45 3 3 -7.0368 -0.2337
45 3 6 -0.2225 0.0334
45 3 9 -18.3696 0.0540
45 3 12 -0.4590 -0.0305
45 3 15 -8.4258 -0.1224
45 3 18 1.1863 0.4023
45 3 21 -2.9375 0.0784
45 3 24 -4.8009 -0.2018
45 4 -25 2.7038 -0.0213
45 4 -22 -5.4290 0.0891
45 4 -19 19.4844 0.0072
45 4 -16 -9.4964 0.1194
45 4 -13 -5.1779 -0.0085
45 4 -10 17.0630 -0.0482
45 4 -7 1.7789 0.0436
45 4 -4 2.8123 -0.0477
45 4 -1 -1.8127 0.0324
45 4 2 6.9268 0.0320
45 4 5 -2.0141 -0.0670
45 4 8 -5.8576 0.1264
45 4 11 -4.2829 0.0580
45 4 14 -5.0393 0.0456
45 4 17 -2.4846 -0.0386
45 4 20 -14.3873 -0.0457
45 4 23 -6.3392 0.0288
45 5 -23 -0.7339 -0.0200
45 5 -20 -2.8478 0.0952
45 5 -17 0.9972 0.0585
45 5 -14 7.3374 -0.0846
45 5 -11 -19.8091 -0.1267
45 5 -8 14.4465 -0.1002
45 5 -5 -2.8742 0.0938
45 5 -2 8.2755 0.0017
45 5 1 -10.7593 0.0324
45 5 4 -12.2637 0.2487
45 5 7 -9.3258 0.0158
45 5 10 -13.9611 0.0764
45 5 13 5.6550 -0.0767
45 5 16 17.6904 -0.2539
45 5 19 -4.4327 -0.0381
45 5 22 -10.6724 -0.0050
45 5 25 3.1871 0.0782
45 6 -24 10.0121 -0.0025
45 6 -21 4.3144 0.0637
45 6 -18 2.6545 -0.0952
45 6 -15 3.4687 -0.1259
45 6 -12 -3.1959 0.0309
45 6 -9 -5.7632 0.1128
45 6 -6 5.2422 0.0369
45 6 -3 7.2718 0.0046
45 6 0 9.4718 0.1996
45 6 3 12.4442 -0.0600
45 6 6 0.5639 -0.0950
45 6 9 -3.3235 0.0298
45 6 12 3.6351 -0.2135
45 6 15 -3.3327 -0.0301
45 6 18 8.5864 -0.0255
45 6 21 6.4954 0.0974
45 6 24 13.4061 0.1079
45 7 -22 -3.7014 0.0943
45 7 -19 -10.0846 -0.0126
45 7 -16 5.1823 -0.0032
45 7 -13 -4.8611 0.1335
45 7 -10 1.8591 0.1249
45 7 -7 8.0990 0.0902
45 7 -4 0.8190 -0.3351
45 7 -1 8.0639 -0.1212
45 7 2 -9.0462 0.2229
45 7 5 6.8826 -0.0520
45 7 8 11.4253 -0.0379
45 7 11 4.6634 -0.0358
45 7 14 -19.2554 0.2594
45 7 17 -5.2307 0.0136
45 7 20 3.0568 -0.0546
45 7 23 -7.9912 -0.0748
45 8 -20 14.0632 0.0274
45 8 -17 24.9968 -0.1321
45 8 -14 9.5777 -0.0941
45 8 -11 -7.0700 0.0326
45 8 -8 5.6136 0.1343
45 8 -5 -3.4319 0.1016
45 8 -2 9.9056 -0.0996
45 8 1 13.8879 -0.0991
45 8 4 -12.1608 0.1808
45 8 7 -2.9794 0.0751
45 8 10 -0.7438 -0.1186
45 8 13 -5.5281 -0.0339
45 8 16 10.8573 0.1905
45 8 19 -20.7929 0.0804
45 8 22 3.2136 -0.1856
45 9 -21 2.2394 -0.0908
45 9 -18 -4.9691 0.0764
45 9 -15 -3.3699 -0.0327
45 9 -12 0.9390 -0.0884
45 9 -9 -3.1153 0.1411
45 9 -6 7.2527 0.0244
45 9 -3 1.8067 0.1634
45 9 0 -16.8041 -0.1488
45 9 3 -10.4047 -0.2077
45 9 6 -16.4661 0.1629
45 9 9 15.4237 -0.0633
45 9 12 -3.1836 0.0826
45 9 15 -12.6951 0.0258
45 9 18 8.8028 -0.1432
45 9 21 -3.8896 -0.0086
45 10 -19 -8.5489 0.0586
45 10 -16 -4.8549 0.0602
45 10 -13 -18.9200 -0.1837
45 10 -10 5.3506 -0.1668
45 10 -7 -10.0032 0.0291
45 10 -4 -11.5252 0.0569
45 10 -1 5.3689 0.1892
45 10 2 7.2536 0.0106
45 10 5 -8.5438 -0.0251
45 10 8 -1.5231 0.0766
45 10 11 3.3428 -0.1271
45 10 14 18.4419 -0.2128
45 10 17 -17.2138 -0.0979
45 11 -17 -1.3791 -0.0354
45 11 -14 12.6905 0.0397
45 11 -11 -14.9417 0.0775
45 11 -8 1.4215 0.0179
45 11 -5 6.7262 0.1974
45 11 -2 -6.3527 -0.0129
45 11 1 9.5517 -0.1036
45 11 4 8.5060 -0.0994
45 11 7 -15.9440 -0.0704
45 11 10 5.9790 0.0798
45 11 13 1.4815 -0.0426
45 11 16 16.4987 0.0545
45 12 -15 -13.6065 0.1776
45 12 -12 -4.0438 0.1072
45 12 -9 1.5632 -0.0952
45 12 -6 -2.3581 -0.1491
45 12 -3 -2.9659 -0.0764
45 12 0 2.4902 -0.0283
45 12 3 1.5921 -0.0123
45 12 6 -2.2155 -0.0528
45 12 9 5.6028 0.1258
45 12 12 -11.0021 0.2480
45 12 15 13.9104 -0.0748
45 13 -13 5.2493 0.1136
45 13 -10 -2.4116 -0.1497
45 13 -7 11.6204 -0.1154
45 13 -4 -0.4358 0.0083
45 13 -1 -4.8944 0.2285
45 13 2 -3.0061 0.1211
45 13 5 4.0857 -0.0471
45 13 8 -14.5566 0.0332
45 13 11 1.8518 -0.0765
45 13 14 -16.7363 -0.0645
45 14 -11 -14.6461 0.0977
45 14 -8 5.1192 0.1149
45 14 -5 10.7159 0.0548
45 14 -2 4.3179 -0.0715
45 14 1 8.4312 0.0074
45 14 4 13.1340 -0.1158
45 14 7 -3.6279 -0.1344
45 14 10 4.8188 -0.0379
45 14 13 10.4060 0.0742
45 15 -9 12.0783 0.1997
45 15 -6 3.3578 -0.0126
45 15 -3 7.4225 -0.1190
45 15 0 10.4356 -0.1002
45 15 3 8.1096 0.0997
45 15 6 -2.2165 0.0157
45 15 9 1.7638 -0.2222
45 16 -7 -13.2899 0.1968
45 16 -4 -8.8610 0.0804
45 16 -1 -4.3849 0.1523
45 16 2 0.1372 -0.1199
45 16 5 13.2469 0.0957
46 0 -20 -5.5825 0.1835
46 0 -14 -12.0569 -0.1314
46 0 -8 -33.2131 -1.0849
46 0 -2 -16.3541 0.7256
46 0 4 4.7873 0.4618
46 0 10 1.0304 0.5772
46 0 16 28.9925 -1.2337
46 0 22 -23.5422 0.0487
46 1 -24 -14.5310 0.0557
46 1 -21 0.6615 0.2016
46 1 -18 4.1479 -0.1480
46 1 -15 -15.9575 -0.0858
46 1 -12 2.6520 -0.0510
46 1 -9 15.6433 0.3281
46 1 -6 -33.7884 0.1800
46 1 -3 -5.7856 -0.0939
46 1 0 -1.1540 0.1720
46 1 3 -2.8758 0.0237
46 1 6 -4.2802 -0.0369
46 1 9 -1.9386 -0.3386
46 1 12 13.8726 -0.1651
46 1 15 -9.8662 0.1087
46 1 18 2.1435 0.0161
46 1 21 -4.7470 0.2121
46 1 24 -1.8160 -0.0491
46 2 -25 -2.4377 -0.0666
46 2 -22 17.6132 -0.0248
46 2 -19 1.3415 0.0653
46 2 -16 -10.1778 0.0350
46 2 -13 11.0142 -0.0359
46 2 -10 15.5476 -0.0174
46 2 -7 -2.9569 0.1351
46 2 -4 3.7174 -0.1467
46 2 -1 -11.0226 -0.4758
46 2 2 29.6246 0.0441
46 2 5 -10.5247 0.0903
46 2 8 -1.2315 -0.0228
46 2 11 -9.3722 -0.0526
46 2 14 2.8061 0.2831
46 2 17 -7.0237 0.2841
46 2 20 1.7022 -0.2245
46 2 23 12.5060 -0.1601
46 2 26 2.5776 -0.0015
46 3 -23 -15.9410 -0.1692
46 3 -20 -4.8097 0.0684
46 3 -17 15.3828 0.0776
46 3 -14 -18.8054 -0.1231
46 3 -11 -17.2304 -0.1561
46 3 -8 -11.0340 -0.0006
46 3 -5 -14.3908 0.1876
46 3 -2 12.1842 -0.1266
46 3 1 5.2879 -0.1023
46 3 4 6.6955 0.1814
46 3 7 -6.4138 0.0742
46 3 10 2.3499 -0.0176
46 3 13 3.5243 -0.0032
46 3 16 0.9667 0.1502
46 3 19 0.7354 -0.0262
46 3 22 -0.9624 -0.2316
46 3 25 -3.6173 0.1483
46 4 -24 -1.8637 -0.0313
46 4 -21 9.5408 0.0085
46 4 -18 7.7711 0.0558
46 4 -15 -3.1690 0.0559
46 4 -12 18.2158 -0.1840
46 4 -9 -6.6933 -0.0717
46 4 -6 17.7482 0.1609
46 4 -3 -6.7900 0.0588
46 4 0 -2.9700 0.1088
46 4 3 -11.3112 0.0543
46 4 6 -17.9876 -0.0345
46 4 9 -17.8560 -0.0009
46 4 12 11.6017 -0.0967
46 4 15 13.0743 -0.1308
46 4 18 -3.2086 -0.1720
46 4 21 -11.5376 0.0554
46 4 24 11.9260 0.0572
46 5 -22 -6.4713 0.0503
46 5 -19 7.1940 0.1085
46 5 -16 -9.2808 -0.1187
46 5 -13 14.8705 -0.1377
46 5 -10 7.5851 -0.0967
46 5 -7 -8.3889 0.0821
46 5 -4 -3.9472 0.2292
46 5 -1 1.5926 0.0107
46 5 2 -15.7709 -0.0592
46 5 5 4.4021 0.0087
46 5 8 -7.0910 -0.0682
46 5 11 -14.0314 -0.1404
46 5 14 0.6022 -0.1546
46 5 17 -12.0436 0.0497
46 5 20 10.7530 0.1572
46 5 23 7.4047 0.1110
46 6 -20 3.0894 -0.0973
46 6 -17 15.1311 0.0875
46 6 -14 -5.3330 0.0622
46 6 -11 -2.2806 0.0248
46 6 -8 -1.7799 -0.0642
46 6 -5 -20.1945 -0.1426
46 6 -2 16.2513 0.2359
46 6 1 -7.3897 -0.0763
46 6 4 4.9195 -0.1819
46 6 7 2.0244 0.2105
46 6 10 -9.4788 -0.0585
46 6 13 9.9774 0.0643
46 6 16 5.7523 -0.0819
46 6 19 -13.0605 0.1129
46 6 22 5.4176 0.1508
46 7 -21 21.8017 -0.0671
46 7 -18 -1.1095 -0.0786
46 7 -15 -1.5134 0.1751
46 7 -12 -7.4487 0.0517
46 7 -9 -12.8768 -0.1105
46 7 -6 17.4782 -0.2138
46 7 -3 1.7243 -0.1053
46 7 0 -4.3666 0.2695
46 7 3 -9.5837 0.0393
46 7 6 3.0480 -0.1636
46 7 9 0.1615 -0.0028
46 7 12 -4.8342 0.2103
46 7 15 4.2418 0.0972
46 7 18 11.3908 -0.1767
46 7 21 -3.9932 -0.1938
46 8 -19 -5.0687 0.0038
46 8 -16 -7.4648 -0.0462
46 8 -13 8.8133 0.0805
46 8 -10 -3.7719 0.1578
46 8 -7 9.0806 -0.0466
46 8 -4 -14.0588 0.0217
46 8 -1 -15.3628 -0.1240
46 8 2 17.9178 0.0708
46 8 5 -4.7202 0.0303
46 8 8 3.6384 -0.2161
46 8 11 2.4515 0.1201
46 8 14 -0.4440 0.2096
46 8 17 -9.3115 -0.0649
46 8 20 -0.8800 -0.2348
46 9 -17 37.2269 0.0806
46 9 -14 -4.2913 -0.1475
46 9 -11 9.6661 -0.0543
46 9 -8 17.4218 0.0524
46 9 -5 -8.3341 -0.0040
46 9 -2 -14.4920 -0.0018
46 9 1 -2.3730 -0.0650
46 9 4 -5.9735 0.1878
46 9 7 3.8393 -0.0198
46 9 10 1.8399 -0.1296
46 9 13 -2.8596 0.0467
46 9 16 -7.9189 -0.0902
46 9 19 8.0093 -0.0345
46 10 -15 18.2430 -0.0977
46 10 -12 8.8911 0.0124
46 10 -9 5.9559 0.0057
46 10 -6 1.2826 0.1620
46 10 -3 -5.1970 -0.0338
46 10 0 11.0170 0.0747
46 10 3 -13.8602 -0.0472
46 10 6 9.8113 0.0288
46 10 9 -8.2975 -0.1456
46 10 12 -7.6871 -0.2703
46 10 15 -7.8130 0.1629
46 11 -16 30.7910 -0.0514
46 11 -13 -2.7048 0.1694
46 11 -10 9.2421 -0.0517
46 11 -7 8.7529 -0.0529
46 11 -4 -10.5610 -0.1242
46 11 -1 -3.7499 -0.1214
46 11 2 -7.3617 0.0823
46 11 5 -1.5080 0.0063
46 11 8 -19.8179 0.2267
46 11 11 -1.6229 0.0873
46 11 14 2.6392 -0.1167
46 12 -14 3.4844 -0.1516
46 12 -11 -13.7913 -0.1026
46 12 -8 6.0408 -0.0835
46 12 -5 4.2020 -0.0032
46 12 -2 10.5751 0.1095
46 12 1 5.9796 0.1553
46 12 4 -6.3991 0.0626
46 12 7 -10.5883 0.0635
46 12 10 4.6082 -0.1071
46 12 13 -5.2171 -0.1181
46 13 -12 -4.5507 -0.1008
46 13 -9 2.1714 0.1189
46 13 -6 7.4076 0.0425
46 13 -3 3.8010 -0.1176
46 13 0 0.0873 0.1262
46 13 3 10.6855 -0.0882
46 13 6 -8.2168 -0.0234
46 13 9 -4.4024 -0.1237
46 13 12 -9.3783 -0.0101
46 14 -7 -3.1792 -0.0411
46 14 -4 -0.8944 -0.2916
46 14 -1 2.8388 -0.1604
46 14 2 8.9152 0.0795
46 14 5 -2.8832 0.0332
46 14 8 10.3601 0.0181
46 15 -5 9.0581 0.0442
46 15 -2 16.0548 -0.0522
46 15 1 12.8981 -0.0458
46 15 4 3.3679 0.1816
47 0 -22 -7.2651 -0.1680
47 0 -16 -14.9280 -0.0924
47 0 -10 9.1328 0.0592
47 0 -4 13.1396 0.4998
47 0 2 6.4666 0.1053
47 0 8 20.4238 -0.2502
47 0 14 -4.4385 -0.6771
47 0 20 4.1915 0.4483
47 0 26 -4.4908 0.0508
47 1 -23 -11.9985 0.0859
47 1 -20 8.1167 -0.1934
47 1 -17 -8.5646 0.1078
47 1 -14 2.3671 0.2738
47 1 -11 -0.4240 0.2084
47 1 -8 -11.2552 0.2105
47 1 -5 -3.3223 -0.3721
47 1 -2 -5.9589 -0.1829
47 1 1 -5.6517 -0.1721
47 1 4 -4.2060 -0.3361
47 1 7 -5.1713 -0.0480
47 1 10 20.2061 0.0665
47 1 13 14.8951 0.3567
47 1 16 -21.0541 0.1607
47 1 19 3.0941 -0.0109
47 1 22 -2.4562 0.0222
47 1 25 17.8263 -0.3483
47 2 -24 0.7814 -0.1138
47 2 -21 15.8884 0.1060
47 2 -18 13.1815 0.1017
47 2 -15 -3.4694 -0.0729
47 2 -12 5.2716 -0.0785
47 2 -9 6.8567 -0.0812
47 2 -6 1.3356 0.0291
47 2 -3 0.6813 -0.2267
47 2 0 10.5103 0.0375
47 2 3 10.0466 0.3300
47 2 6 19.1123 0.2168
47 2 9 17.6479 0.0645
47 2 12 -6.2264 -0.1184
47 2 15 4.8953 0.1992
47 2 18 -10.6908 -0.1723
47 2 21 -6.8830 -0.2966
47 2 24 5.1596 0.1253
47 3 -22 -7.1699 -0.1740
47 3 -19 6.1004 -0.0039
47 3 -16 1.8101 -0.0426
47 3 -13 6.8529 0.0769
47 3 -10 5.7205 0.0827
47 3 -7 -8.2327 0.1066
47 3 -4 -1.1612 0.0778
47 3 -1 -3.2739 -0.0141
47 3 2 7.7410 -0.0747
47 3 5 6.5947 -0.1083
47 3 8 -0.0614 -0.0519
47 3 11 -2.3033 0.0142
47 3 14 -9.8823 -0.0192
47 3 17 -4.5548 -0.0078
47 3 20 4.9102 -0.0560
47 3 23 -3.7262 0.1019
47 4 -20 -0.0420 0.0458
47 4 -17 -4.6894 -0.0785
47 4 -14 -15.2925 0.0071
47 4 -11 -0.8580 0.0367
47 4 -8 4.2407 0.0281
47 4 -5 18.0024 -0.0040
47 4 -2 6.7050 0.0297
47 4 1 -9.2175 -0.0280
47 4 4 -6.1009 -0.2801
47 4 7 2.2157 0.0290
47 4 10 -3.3460 0.0906
47 4 13 -0.8063 -0.1662
47 4 16 2.9139 -0.0683
47 4 19 -6.9144 0.0834
47 4 22 0.0466 0.1903
47 5 -21 7.4417 0.0074
47 5 -18 -0.9311 -0.0343
47 5 -15 -5.9661 -0.1178
47 5 -12 -1.2439 0.0996
47 5 -9 -12.2366 0.0101
47 5 -6 -1.6416 -0.0884
47 5 -3 2.1983 0.1226
47 5 0 4.3948 -0.1257
47 5 3 3.8515 0.0022
47 5 6 10.9031 0.0497
47 5 9 -0.1134 -0.0387
47 5 12 -0.8700 0.0949
47 5 15 -5.2351 0.0493
47 5 18 9.0125 0.1415
47 5 21 -11.0927 0.1436
47 6 -19 5.5061 -0.0489
47 6 -16 -4.5075 0.1708
47 6 -13 -3.8902 -0.0012
47 6 -10 -21.8444 -0.0688
47 6 -7 13.1297 -0.1078
47 6 -4 -11.9754 -0.0545
47 6 -1 9.1735 0.0821
47 6 2 -6.2246 -0.1439
47 6 5 -0.4487 0.1799
47 6 8 -7.4435 0.0503
47 6 11 -2.4015 -0.0249
47 6 14 0.8909 -0.1052
47 6 17 9.7692 0.0748
47 6 20 12.4042 0.0350
47 7 -17 12.7742 0.0576
47 7 -14 -9.4041 0.1704
47 7 -11 -4.2129 -0.0979
47 7 -8 -1.1416 -0.1148
47 7 -5 -0.7755 0.0309
47 7 -2 3.9038 0.0216
47 7 1 -0.4959 0.0628
47 7 4 14.3551 -0.1974
47 7 7 4.3679 -0.0039
47 7 10 2.6175 0.1802
47 7 13 1.4390 -0.0468
47 7 16 -2.6043 -0.0314
47 7 19 3.5707 -0.2305
47 8 -18 0.3348 0.0433
47 8 -15 -0.3903 -0.0241
47 8 -12 3.4346 0.1194
47 8 -9 -7.6296 -0.0477
47 8 -6 15.0332 0.0340
47 8 -3 -4.5130 -0.0228
47 8 0 -9.1427 -0.1651
47 8 3 -6.6471 0.0991
47 8 6 -8.7927 -0.1398
47 8 9 -4.6818 0.1798
47 8 12 0.2161 0.1130
47 8 15 8.3939 -0.2355
47 8 18 -3.2497 0.0054
47 9 -16 3.3558 -0.0717
47 9 -13 -11.5616 -0.1616
47 9 -10 6.8532 0.1492
47 9 -7 7.9418 0.0438
47 9 -4 -15.3054 0.0239
47 9 -1 3.4274 -0.0678
47 9 2 14.8211 -0.0613
47 9 5 -6.2291 0.0866
47 9 8 -6.0734 -0.0719
47 9 11 -14.6971 0.0122
47 9 14 11.8377 -0.0245
47 10 -14 22.2668 0.0468
47 10 -11 12.4033 -0.1304
47 10 -8 -10.2261 0.1336
47 10 -5 -9.3985 0.0203
47 10 -2 10.7652 -0.1603
47 10 1 6.4970 -0.0753
47 10 4 0.9616 -0.0248
47 10 7 6.2654 0.1435
47 10 10 4.6068 0.0179
47 10 13 0.1724 -0.0192
47 11 -12 -0.5289 -0.1406
47 11 -9 9.6937 -0.1400
47 11 -6 7.0737 0.0790
47 11 -3 -4.1868 0.0683
47 11 0 -2.7738 -0.1001
47 11 3 5.1835 0.1400
47 11 6 5.3421 0.1405
47 11 9 -25.4201 0.0562
47 11 12 -4.6657 -0.2889
47 12 -10 18.0083 0.0250
47 12 -7 -1.7590 0.0756
47 12 -4 7.0359 0.2175
47 12 -1 -2.5409 -0.0003
47 12 2 -11.5874 -0.1621
47 12 5 -11.6724 -0.1259
47 12 8 -20.6389 -0.0682
47 13 -5 2.4499 -0.1869
47 13 -2 -10.1040 0.1133
47 13 1 -4.9150 0.0065
47 13 4 0.2278 -0.1774
47 13 7 -8.6810 0.0203
47 14 0 -10.0593 0.1860
48 0 -24 -6.6718 0.0769
48 0 -18 25.6326 -0.1283
48 0 -12 10.3841 0.2338
48 0 -6 -10.4382 -0.0842
48 0 0 2.1408 -0.1206
48 0 6 -8.7191 -0.2080
48 0 12 2.0711 0.0977
48 0 18 2.1976 0.3194
48 0 24 4.6307 -0.2648
48 1 -22 -7.9071 0.1015
48 1 -19 -3.6617 0.0267
48 1 -16 -1.4597 0.1204
48 1 -13 20.1498 -0.0229
48 1 -10 1.1913 -0.2356
48 1 -7 4.7014 -0.4264
48 1 -4 -12.7831 -0.1959
48 1 -1 -5.9386 0.3411
48 1 2 -11.7518 0.0591
48 1 5 3.6635 0.1205
48 1 8 -5.4701 0.2928
48 1 11 -5.9993 0.2613
48 1 14 2.4072 0.0749
48 1 17 2.8763 -0.4043
48 1 20 -5.2252 -0.1177
48 1 23 6.6124 -0.0751
48 2 -23 -5.7251 -0.0543
48 2 -20 -3.5179 -0.0121
48 2 -17 10.4506 -0.0968
48 2 -14 8.4366 -0.0692
48 2 -11 5.0555 0.1395
48 2 -8 2.4799 0.1574
48 2 -5 5.3541 -0.0288
48 2 -2 -12.4877 0.1845
48 2 1 4.3767 0.3322
48 2 4 0.4960 -0.0696
48 2 7 5.4775 -0.2519
48 2 10 20.7578 -0.0940
48 2 13 -1.2161 0.1583
48 2 16 -3.1147 -0.0142
48 2 19 -9.1987 -0.2465
48 2 22 8.3224 0.2867
48 3 -21 6.1648 0.0105
48 3 -18 1.0249 0.0221
48 3 -15 -17.2011 0.0512
48 3 -12 20.7581 0.0900
48 3 -9 5.8746 0.1303
48 3 -6 11.6911 -0.1124
48 3 -3 16.9541 -0.1677
48 3 0 20.6540 -0.0689
48 3 3 1.3841 -0.2137
48 3 6 4.9039 -0.1247
48 3 9 -2.0103 0.0029
48 3 12 -0.0302 0.1793
48 3 15 15.4188 0.1073
48 3 18 -6.2905 0.0345
48 3 21 -8.3478 -0.0643
48 4 -19 -4.2263 -0.0299
48 4 -16 -15.1344 -0.0130
48 4 -13 -16.3522 -0.0838
48 4 -10 -0.0358 -0.0204
48 4 -7 -7.5276 0.0506
48 4 -4 -12.8620 0.0694
48 4 -1 -10.4759 -0.0024
48 4 2 -17.7820 -0.0382
48 4 5 -3.8937 0.0587
48 4 8 8.1457 0.0920
48 4 11 -18.0375 -0.1114
48 4 14 2.0331 0.0788
48 4 17 0.0061 0.0089
48 4 20 -3.3154 0.1146
48 5 -17 -6.9354 -0.0140
48 5 -14 10.1321 0.0583
48 5 -11 -14.7030 0.0194
48 5 -8 15.8747 -0.0998
48 5 -5 -2.2684 0.0822
48 5 -2 6.5986 -0.0434
48 5 1 -0.1920 -0.0044
48 5 4 -7.8213 0.2620
48 5 7 -1.8255 -0.1460
48 5 10 4.0253 0.0406
48 5 13 -4.8522 0.0505
48 5 16 -11.8037 0.0617
48 5 19 -0.2786 0.0704
48 6 -18 -8.5194 0.0727
48 6 -15 -4.3294 0.0491
48 6 -12 4.5538 -0.1165
48 6 -9 5.3390 0.0237
48 6 -6 8.1603 -0.0630
48 6 -3 -1.7935 0.0658
48 6 0 -15.1062 0.1350
48 6 3 -13.3436 -0.0371
48 6 6 7.5203 0.0728
48 6 9 2.1144 -0.0901
48 6 12 -3.2129 -0.1719
48 6 15 9.5670 0.0366
48 6 18 2.0273 -0.0708
48 7 -16 -4.2060 0.0628
48 7 -13 -7.0274 0.0524
48 7 -10 11.5216 -0.2324
48 7 -7 7.5158 0.0948
48 7 -4 5.1280 0.0578
48 7 -1 -5.3319 0.0621
48 7 2 -4.3503 -0.0006
48 7 5 -0.7423 -0.2023
48 7 8 1.4660 0.2354
48 7 11 -0.9263 -0.0176
48 7 14 3.4846 -0.0890
48 7 17 2.9293 -0.0758
48 8 -14 6.8669 0.0231
48 8 -11 6.8269 0.0931
48 8 -8 8.2063 -0.1158
48 8 -5 13.8831 0.0285
48 8 -2 -5.7410 -0.0283
48 8 1 -16.9203 0.0459
48 8 4 -0.3897 -0.0630
48 8 7 -0.2079 -0.0412
48 8 10 6.1412 0.0905
48 8 13 -4.4795 -0.0311
48 9 -12 2.9746 0.0817
48 9 -9 0.7328 0.1351
48 9 -6 0.0071 -0.1257
48 9 -3 6.7121 -0.0764
48 9 0 2.7397 0.0496
48 9 3 10.6435 -0.0225
48 9 6 6.4741 0.0431
48 9 9 -2.4679 -0.0305
48 9 12 -1.4900 0.1407
48 10 -10 -5.6409 0.0970
48 10 -7 2.2134 0.0957
48 10 -4 -8.5068 -0.1557
48 10 -1 6.2478 0.0952
48 10 2 -0.9948 0.1030
48 10 5 17.0323 0.0534
48 10 8 -9.1535 -0.1200
48 10 11 15.8695 -0.2779
48 11 -8 -17.6781 0.1281
48 11 -5 -21.0929 0.0843
48 11 -2 13.5529 -0.0180
48 11 1 -7.5294 0.0161
48 11 4 5.3683 0.1100
48 11 7 -6.8311 -0.1547
48 12 -3 -10.1088 0.1074
48 12 0 -8.0573 -0.2327
48 12 3 2.8516 -0.1092
49 0 -20 16.6813 0.1320
49 0 -14 11.7703 0.0333
49 0 -8 6.9264 -0.5757
49 0 -2 7.8601 0.0525
49 0 4 3.5896 0.4321
49 0 10 2.0863 0.1225
49 0 16 -18.1384 -0.3184
49 0 22 -4.4281 -0.3467
49 1 -21 18.9495 -0.0550
49 1 -18 -5.9598 -0.0548
49 1 -15 -6.2427 -0.0202
49 1 -12 3.1930 -0.1152
49 1 -9 7.4539 -0.0431
49 1 -6 1.3686 0.0304
49 1 -3 2.6456 0.3032
49 1 0 -11.8295 0.2544
49 1 3 0.5844 0.0807
49 1 6 -0.6970 -0.0201
49 1 9 12.4104 -0.1255
49 1 12 -10.8182 -0.0835
49 1 15 16.6805 -0.2933
49 1 18 -6.5798 -0.1684
49 1 21 10.1057 0.2505
49 2 -19 0.3128 -0.0916
49 2 -16 -0.2476 0.1432
49 2 -13 -0.1771 0.2843
49 2 -10 14.1640 0.1034
49 2 -7 -27.8595 -0.0734
49 2 -4 -15.5627 -0.0984
49 2 -1 7.9080 -0.0916
49 2 2 -3.0428 -0.2471
49 2 5 12.1062 -0.1854
49 2 8 2.4832 0.1690
49 2 11 0.5046 0.1232
49 2 14 9.3771 -0.0700
49 2 17 -2.1037 0.0751
49 2 20 1.4937 0.1007
49 3 -20 3.3225 0.0482
49 3 -17 -5.6960 -0.0362
49 3 -14 -7.2637 -0.0476
49 3 -11 0.7779 -0.0518
49 3 -8 2.9922 -0.0663
49 3 -5 4.5878 -0.0955
49 3 -2 -3.3875 -0.0356
49 3 1 6.6226 -0.0653
49 3 4 11.6717 0.0460
49 3 7 -2.1508 0.1767
49 3 10 8.9354 0.0407
49 3 13 -8.7737 -0.0337
49 3 16 -5.0920 -0.0262
49 3 19 -5.2827 -0.0269
49 4 -18 -3.4452 -0.1689
49 4 -15 -1.9039 -0.0829
49 4 -12 10.4448 0.0559
49 4 -9 9.9926 0.0649
49 4 -6 -4.5440 0.2258
49 4 -3 -10.1716 -0.0802
49 4 0 3.2709 -0.0713
49 4 3 -1.8503 0.1285
49 4 6 -13.9092 -0.0174
49 4 9 2.6460 -0.0250
49 4 12 -4.9039 -0.0263
49 4 15 -7.4982 -0.1455
49 4 18 -0.1161 0.1552
49 5 -16 -0.5057 -0.0392
49 5 -13 5.4201 0.0015
49 5 -10 -13.0797 0.0765
49 5 -7 -5.7201 -0.1424
49 5 -4 -14.0441 -0.0217
49 5 -1 2.9705 -0.0152
49 5 2 -8.3014 0.2343
49 5 5 10.4831 -0.0642
49 5 8 -6.0348 -0.1483
49 5 11 -4.1568 0.1321
49 5 14 12.8430 -0.0334
49 5 17 6.0480 -0.0698
49 6 -14 -5.2843 -0.0881
49 6 -11 -13.3067 0.0176
49 6 -8 4.4317 0.0825
49 6 -5 -8.3565 0.0021
49 6 -2 0.5143 0.1299
49 6 1 -18.4741 -0.0072
49 6 4 5.6661 -0.0444
49 6 7 8.1288 -0.0934
49 6 10 15.1579 -0.1652
49 6 13 -9.8583 0.1022
49 6 16 -5.1779 -0.0093
49 7 -12 6.0385 -0.0968
49 7 -9 2.1400 -0.0291
49 7 -6 9.4153 0.1550
49 7 -3 2.4723 -0.0603
49 7 0 -0.0319 -0.0671
49 7 3 -13.1936 -0.0180
49 7 6 -2.3174 0.0919
49 7 9 -10.8770 0.0409
49 7 12 -12.4529 -0.1335
49 8 -10 -10.5571 -0.1022
49 8 -7 -1.7361 -0.0472
49 8 -4 -3.9215 0.0291
49 8 -1 -12.3441 -0.1118
49 8 2 -6.6260 -0.0015
49 8 5 -11.0821 0.0585
49 8 8 -11.9102 0.0722
49 8 11 -7.6819 0.1464
49 9 -8 -6.3250 -0.0891
49 9 -5 -7.3484 -0.1424
49 9 -2 8.8647 0.1830
49 9 1 -3.9784 0.0006
49 9 4 -7.9295 -0.0486
49 9 7 14.3889 0.0079
49 9 10 -11.8203 0.0204
49 10 -6 7.0888 -0.0687
49 10 -3 21.3476 0.0333
49 10 0 -7.2986 0.2458
49 10 3 -1.5278 -0.1498
49 10 6 15.8259 -0.4034
49 11 -1 -9.8520 -0.1137
49 11 2 1.2026 0.1297
50 0 -16 0.9063 -0.1753
50 0 -10 9.2487 -0.1560
50 0 -4 3.5877 0.5509
50 0 2 -24.6432 0.3250
50 0 8 -4.5239 -0.4998
50 0 14 -4.1675 -0.3800
50 0 20 1.1014 0.1097
50 1 -20 3.9620 0.0108
50 1 -17 -5.2533 -0.0226
50 1 -14 2.8228 0.0907
50 1 -11 -4.6222 0.0716
50 1 -8 5.9134 0.1176
50 1 -5 6.3833 0.0954
50 1 -2 -6.6815 -0.1187
50 1 1 -4.7820 -0.2511
50 1 4 1.8135 -0.1619
50 1 7 -8.6095 -0.0273
50 1 10 0.3178 0.0508
50 1 13 -13.7187 -0.0225
50 1 16 0.0939 0.0247
50 1 19 0.6098 0.2986
50 2 -18 6.4945 0.2251
50 2 -15 -2.6901 0.0609
50 2 -12 -2.9142 -0.2000
50 2 -9 -0.1297 -0.1219
50 2 -6 -15.1181 -0.0428
50 2 -3 -2.9634 -0.0501
50 2 0 6.2544 -0.1434
50 2 3 4.1658 0.0531
50 2 6 3.0046 0.4062
50 2 9 2.3586 0.1964
50 2 12 -4.0482 -0.1953
50 2 15 8.9709 0.0372
50 2 18 -5.1203 -0.0477
50 3 -16 -1.9569 -0.1827
50 3 -13 -8.4093 -0.0335
50 3 -10 -5.9956 0.0629
50 3 -7 3.2157 0.1749
50 3 -4 1.9809 -0.0314
50 3 -1 -5.1184 -0.0029
50 3 2 -15.0553 0.1221
50 3 5 7.0986 0.0456
50 3 8 -10.8442 -0.1879
50 3 11 7.6012 -0.0485
50 3 14 -2.0227 0.0659
50 3 17 -5.0442 0.0999
50 4 -14 -1.7299 0.0053
50 4 -11 -2.0130 0.0870
50 4 -8 -2.6113 0.1084
50 4 -5 4.7534 -0.1186
50 4 -2 16.7704 -0.2085
50 4 1 12.9125 0.1021
50 4 4 9.6971 0.0174
50 4 7 2.0414 -0.0143
50 4 10 -8.3674 -0.0776
50 4 13 -3.7994 -0.0484
50 4 16 2.5207 0.1780
50 5 -15 -9.2125 -0.0168
50 5 -12 7.3578 -0.0030
50 5 -9 13.6509 -0.0707
50 5 -6 0.7410 -0.0541
50 5 -3 1.0241 0.1301
50 5 0 -7.7432 0.0412
50 5 3 3.8106 -0.0028
50 5 6 -0.3379 -0.1050
50 5 9 -11.9913 -0.0511
50 5 12 -14.9771 0.0735
50 5 15 6.4145 0.0524
50 6 -13 -17.4325 -0.0324
50 6 -10 -3.8066 0.1458
50 6 -7 -2.5350 0.0490
50 6 -4 18.7169 0.0114
50 6 -1 0.5172 0.0659
50 6 2 -12.8189 -0.2515
50 6 5 -8.0634 -0.0349
50 6 8 -5.7230 -0.0283
50 6 11 0.2445 -0.0346
50 7 -11 -6.0876 -0.0948
50 7 -8 0.3068 0.0970
50 7 -5 -3.7516 -0.1113
50 7 -2 -13.5992 -0.1242
50 7 1 -14.7062 0.1312
50 7 4 8.7640 0.1617
50 7 7 6.2988 0.1077
50 7 10 -4.8888 -0.0056
50 8 -9 -4.4338 -0.0519
50 8 -6 5.1471 -0.0033
50 8 -3 1.1517 -0.0225
50 8 0 -4.7225 -0.0696
50 8 3 7.4348 0.2339
50 8 6 7.0572 0.1276
50 8 9 4.8018 -0.0641
50 9 -4 -14.4205 0.1208
50 9 -1 -10.3957 0.0346
50 9 2 -5.9474 -0.2105
50 9 5 -0.2559 -0.1533
51 0 -18 -9.8660 -0.0974
51 0 -12 -12.0088 0.0663
51 0 -6 -7.5705 0.4011
51 0 0 -25.6856 -0.1422
51 0 6 3.6524 -0.5410
51 0 12 3.0782 0.0454
51 0 18 9.4427 0.3879
51 1 -16 0.8713 0.0804
51 1 -13 0.7787 -0.1943
51 1 -10 15.1940 -0.0869
51 1 -7 6.5984 -0.0935
51 1 -4 3.0914 -0.1936
51 1 -1 -5.3229 -0.2252
51 1 2 13.4667 0.0573
51 1 5 2.6694 0.3197
51 1 8 8.6035 0.1634
51 1 11 -1.6738 -0.0709
51 1 14 13.6707 0.0641
51 1 17 -3.4141 0.0236
51 2 -14 3.3445 -0.1855
51 2 -11 2.3480 -0.0574
51 2 -8 -1.1171 0.1531
51 2 -5 18.1515 0.1759
51 2 -2 1.9392 0.0496
51 2 1 1.1085 0.0199
51 2 4 4.0538 0.3126
51 2 7 -20.8206 0.0130
51 2 10 6.9052 -0.3403
51 2 13 -16.1455 -0.0744
51 2 16 8.7834 -0.0045
51 3 -15 4.6709 0.1410
51 3 -12 13.7047 0.1239
51 3 -9 -5.3647 0.0065
51 3 -6 -1.8414 -0.0876
51 3 -3 -5.8073 -0.0626
51 3 0 -7.6292 0.0188
51 3 3 2.6748 -0.1451
51 3 6 -7.2725 -0.0780
51 3 9 -6.0648 0.1277
51 3 12 17.6324 0.0444
51 3 15 6.3867 0.1063
51 4 -13 -0.6816 0.0655
51 4 -10 6.8066 -0.1231
51 4 -7 18.0034 -0.0753
51 4 -4 -3.0604 -0.0306
51 4 -1 1.1242 0.0411
51 4 2 4.9114 0.0539
51 4 5 -1.2940 -0.0586
51 4 8 -11.6556 0.0074
51 4 11 3.4514 0.0190
51 4 14 -16.5853 -0.0095
51 5 -11 -3.8890 0.0543
51 5 -8 -5.4813 -0.0213
51 5 -5 0.0176 0.1552
51 5 -2 5.0521 0.0642
51 5 1 7.7947 -0.2146
51 5 4 -1.7467 -0.1377
51 5 7 -5.9513 0.0028
51 5 10 -2.5080 0.1473
51 6 -9 1.3930 0.0598
51 6 -6 5.8487 -0.0601
51 6 -3 -4.4983 -0.0290
51 6 0 14.8048 -0.0406
51 6 3 -9.2078 -0.1680
51 6 6 16.8141 0.1214
51 6 9 -12.4537 0.1124
51 7 -4 10.8112 -0.0761
51 7 -1 5.8890 0.0909
51 7 2 -2.2531 0.3146
51 7 5 -5.9969 0.1312
52 0 -14 -6.9895 0.1642
52 0 -8 25.8494 -0.0428
52 0 -2 6.0122 -0.3507
52 0 4 2.7359 -0.1476
52 0 10 -8.2109 0.2564
52 0 16 -14.0190 0.2214
52 1 -15 -1.7699 -0.2281
52 1 -12 0.6688 0.0012
52 1 -9 3.3767 0.0140
52 1 -6 24.1944 -0.0489
52 1 -3 -3.7210 0.0536
52 1 0 -18.8960 0.1735
52 1 3 4.0854 0.3669
52 1 6 3.7083 0.0014
52 1 9 -10.2058 -0.3520
52 1 12 4.5630 -0.0519
52 1 15 5.6425 -0.0657
52 2 -13 5.4155 0.1130
52 2 -10 2.3281 0.1704
52 2 -7 14.9619 -0.0064
52 2 -4 -8.2063 -0.0001
52 2 -1 9.4748 0.0581
52 2 2 5.6802 -0.1774
52 2 5 -5.7456 -0.0694
52 2 8 -0.9424 0.0379
52 2 11 -2.8237 -0.0359
52 2 14 -11.6035 0.1119
52 3 -11 -1.8210 -0.2132
52 3 -8 -14.9640 -0.1329
52 3 -5 9.7247 -0.0889
52 3 -2 0.6142 0.0696
52 3 1 11.6221 0.0902
52 3 4 6.9387 -0.1202
52 3 7 -14.3686 0.1899
52 3 10 -16.6303 0.1500
52 4 -9 -4.9572 -0.0395
52 4 -6 -5.0571 0.1426
52 4 -3 4.9153 0.0647
52 4 0 -3.3439 -0.0147
52 4 3 4.0569 -0.0475
52 4 6 12.1487 -0.1822
52 4 9 -5.0426 -0.0111
52 5 -7 5.6824 -0.0927
52 5 -4 -5.5422 0.1230
52 5 -1 5.9609 -0.2327
52 5 2 11.2820 -0.1667
52 5 5 -12.0915 0.2024
52 6 -2 -9.7777 0.1443
52 6 1 -5.2624 -0.0106
53 0 -10 0.7103 -0.0621
53 0 -4 21.5714 -0.0261
53 0 2 -6.8719 0.2977
53 0 8 9.8227 -0.1052
53 0 14 7.0210 -0.0636
53 1 -11 -0.7137 0.2652
53 1 -8 18.3354 -0.0690
53 1 -5 3.6219 -0.0297
53 1 -2 5.1548 0.1604
53 1 1 -7.8228 0.1917
53 1 4 -14.0912 -0.1207
53 1 7 -26.5530 -0.6366
53 1 10 -5.2936 0.0427
53 2 -9 2.8681 -0.0538
53 2 -6 7.1749 -0.1989
53 2 -3 3.2869 0.0147
53 2 0 -5.6632 -0.0062
53 2 3 3.4905 0.0291
53 2 6 -10.3285 0.3125
53 2 9 0.3933 -0.0215
53 3 -7 4.5679 0.1365
53 3 -4 -10.1549 -0.0141
53 3 -1 6.0847 0.1952
53 3 2 -2.3854 0.0217
53 3 5 6.2138 -0.0998
53 3 8 -12.4696 0.0261
53 4 -2 -5.5736 -0.1587
53 4 1 6.9152 -0.0713
53 4 4 1.2695 -0.0391
54 0 -6 23.4093 0.1794
54 0 0 -11.2590 0.1186
54 0 6 -12.1252 -0.5074
54 1 -7 -1.8608 -0.1321
54 1 -4 2.3219 0.0998
54 1 -1 -2.9893 -0.1255
54 1 2 -1.1174 -0.0093
54 1 5 2.6458 -0.0870
54 1 8 4.1820 -0.0618
54 2 -5 1.8571 -0.0829
54 2 -2 -7.0013 0.1657
54 2 1 0.3439 -0.0458
54 2 4 -2.8406 0.2010
55 0 -2 1.3973 -0.0839
55 0 4 11.0534 -0.4313
0 0 0 0.0 0.0
;
_shelx_fab_checksum              27866
_olex2_submission_special_instructions 'No special instructions were received'
_oxdiff_exptl_absorpt_empirical_details
;
Empirical correction (ABSPACK) includes:
- Absorption correction using spherical harmonics
- Frame scaling
;
_oxdiff_exptl_absorpt_empirical_full_max 1.734
_oxdiff_exptl_absorpt_empirical_full_min 0.473
loop_
_space_group_symop_operation_xyz
'x, y, z'
'-y, x-y, z'
'-x+y, -x, z'
'y, x, -z+1/2'
'x-y, -y, -z+1/2'
'-x, -x+y, -z+1/2'
'x+2/3, y+1/3, z+1/3'
'-y+2/3, x-y+1/3, z+1/3'
'-x+y+2/3, -x+1/3, z+1/3'
'y+2/3, x+1/3, -z+5/6'
'x-y+2/3, -y+1/3, -z+5/6'
'-x+2/3, -x+y+1/3, -z+5/6'
'x+1/3, y+2/3, z+2/3'
'-y+1/3, x-y+2/3, z+2/3'
'-x+y+1/3, -x+2/3, z+2/3'
'y+1/3, x+2/3, -z+7/6'
'x-y+1/3, -y+2/3, -z+7/6'
'-x+1/3, -x+y+2/3, -z+7/6'
'-x, -y, -z'
'y, -x+y, -z'
'x-y, x, -z'
'-y, -x, z-1/2'
'-x+y, y, z-1/2'
'x, x-y, z-1/2'
'-x+2/3, -y+1/3, -z+1/3'
'y+2/3, -x+y+1/3, -z+1/3'
'x-y+2/3, x+1/3, -z+1/3'
'-y+2/3, -x+1/3, z-1/6'
'-x+y+2/3, y+1/3, z-1/6'
'x+2/3, x-y+1/3, z-1/6'
'-x+1/3, -y+2/3, -z+2/3'
'y+1/3, -x+y+2/3, -z+2/3'
'x-y+1/3, x+2/3, -z+2/3'
'-y+1/3, -x+2/3, z+1/6'
'-x+y+1/3, y+2/3, z+1/6'
'x+1/3, x-y+2/3, z+1/6'
loop_
_atom_site_label
_atom_site_type_symbol
_atom_site_fract_x
_atom_site_fract_y
_atom_site_fract_z
_atom_site_U_iso_or_equiv
_atom_site_adp_type
_atom_site_occupancy
_atom_site_site_symmetry_order
_atom_site_calc_flag
_atom_site_refinement_flags_posn
_atom_site_refinement_flags_adp
_atom_site_refinement_flags_occupancy
Zn1 Zn 0.333333 0.23361(2) 0.416667 0.1699(5) Uani 1 2 d S T P
Zn2 Zn 0.36319(2) 0.29111(2) 0.46296(2) 0.1762(4) Uani 1 1 d . . .
Zn3 Zn 0.07193(2) 0.45607(2) 0.24653(3) 0.2196(5) Uani 1 1 d . . .
O4 O 0.14153(9) 0.36429(12) 0.58036(11) 0.1749(15) Uani 1 1 d . . .
O10 O 0.23547(9) 0.33953(11) 0.13465(13) 0.1835(16) Uani 1 1 d . . .
O1 O 0.36503(10) 0.27631(7) 0.42040(9) 0.1949(16) Uani 1 1 d . . .
O6 O 0.06588(11) 0.40787(9) 0.30059(11) 0.1895(15) Uani 1 1 d . . .
O11 O 0.24078(9) 0.30796(10) 0.16376(10) 0.1874(16) Uani 1 1 d . . .
O7 O 0.09173(9) 0.43643(10) 0.26105(13) 0.1982(17) Uani 1 1 d . . .
C38 C 0.23369(13) 0.32682(18) 0.1607(2) 0.176(2) Uani 1 1 d . . .
O2 O 0.33077(15) 0.29382(12) 0.45378(13) 0.241(3) Uani 1 1 d D . .
O5 O 0.14671(9) 0.40139(11) 0.55317(12) 0.2043(17) Uani 1 1 d . . .
C24 C 0.17653(11) 0.37129(11) 0.26890(12) 0.1466(15) Uani 1 1 d . . .
H24 H 0.170502 0.373210 0.248833 0.176 Uiso 1 1 calc R . .
C33 C 0.08732(18) 0.41871(15) 0.28314(18) 0.177(2) Uani 1 1 d . . .
C8 C 0.24518(14) 0.34443(12) 0.44224(16) 0.1545(17) Uani 1 1 d . . .
N1 N 0.21713(15) 0.35920(13) 0.36712(16) 0.221(3) Uani 1 1 d D . .
C35 C 0.20667(11) 0.36498(12) 0.21282(14) 0.1501(16) Uani 1 1 d . . .
H35 H 0.202182 0.379318 0.210716 0.180 Uiso 1 1 calc R . .
C27 C 0.14752(13) 0.38982(13) 0.29238(14) 0.1484(16) Uani 1 1 d . . .
C23 C 0.19493(12) 0.36073(12) 0.27152(14) 0.1529(16) Uani 1 1 d . . .
C5 C 0.26487(15) 0.33506(13) 0.44978(15) 0.1536(17) Uani 1 1 d . . .
C25 C 0.16686(13) 0.37908(12) 0.29544(14) 0.1524(16) Uani 1 1 d . . .
N2 N 0.20158(12) 0.36570(13) 0.36538(13) 0.192(2) Uani 1 1 d D . .
C18 C 0.15098(17) 0.38076(19) 0.5574(2) 0.184(3) Uani 1 1 d . . .
C34 C 0.20443(11) 0.35217(14) 0.24236(17) 0.1588(18) Uani 1 1 d . . .
C28 C 0.12530(15) 0.38191(13) 0.31420(13) 0.1625(18) Uani 1 1 d . . .
H28 H 0.123664 0.370189 0.331131 0.195 Uiso 1 1 calc R . .
C13 C 0.23091(13) 0.35055(12) 0.46505(15) 0.1559(17) Uani 1 1 d . . .
H13 H 0.234033 0.348141 0.486273 0.187 Uiso 1 1 calc R . .
C32 C 0.14965(13) 0.40783(14) 0.26815(15) 0.1647(18) Uani 1 1 d . . .
H32 H 0.163970 0.413181 0.253107 0.198 Uiso 1 1 calc R . .
C36 C 0.21561(11) 0.35605(13) 0.18692(14) 0.1579(17) Uani 1 1 d . . .
H36 H 0.216581 0.364255 0.167226 0.189 Uiso 1 1 calc R . .
C22 C 0.20562(13) 0.35950(13) 0.30231(16) 0.172(2) Uani 1 1 d . . .
H22 H 0.219017 0.353778 0.304765 0.206 Uiso 1 1 calc R . .
C14 C 0.19683(13) 0.36566(14) 0.48365(17) 0.1554(19) Uani 1 1 d . . .
C2 C 0.3037(2) 0.31739(18) 0.4632(3) 0.193(3) Uani 1 1 d . . .
C1 C 0.3265(3) 0.30972(19) 0.46655(18) 0.224(5) Uani 1 1 d D . .
C30 C 0.10919(13) 0.40907(12) 0.28710(17) 0.1546(17) Uani 1 1 d . . .
C29 C 0.10570(15) 0.39101(14) 0.31133(15) 0.1668(19) Uani 1 1 d . . .
H29 H 0.090639 0.384966 0.325513 0.200 Uiso 1 1 calc R . .
C37 C 0.22327(11) 0.33514(15) 0.18911(17) 0.1579(18) Uani 1 1 d . . .
C12 C 0.21248(14) 0.35992(13) 0.45838(16) 0.1639(18) Uani 1 1 d . . .
C21 C 0.19506(17) 0.36728(17) 0.32864(14) 0.190(2) Uani 1 1 d D . .
C40 C 0.21052(13) 0.32970(15) 0.24422(15) 0.175(2) Uani 1 1 d . . .
H40 H 0.207817 0.320074 0.263327 0.211 Uiso 1 1 calc R . .
C3 C 0.2909(3) 0.31122(17) 0.4381(2) 0.209(4) Uani 1 1 d . . .
H3 H 0.294491 0.300534 0.423555 0.251 Uiso 1 1 calc R . .
C16 C 0.17269(13) 0.35508(15) 0.53478(15) 0.1654(19) Uani 1 1 d . . .
H16 H 0.165957 0.343213 0.552426 0.198 Uiso 1 1 calc R . .
C20 C 0.19135(15) 0.38645(18) 0.48149(18) 0.186(2) Uani 1 1 d . . .
H20 H 0.197324 0.397616 0.463259 0.224 Uiso 1 1 calc R . .
O3 O 0.34067(16) 0.32016(14) 0.4923(2) 0.283(3) Uani 1 1 d D . .
C10 C 0.2216(2) 0.35699(16) 0.40375(14) 0.190(3) Uani 1 1 d D . .
C15 C 0.18774(13) 0.34997(14) 0.51117(17) 0.1621(18) Uani 1 1 d . . .
H15 H 0.191743 0.335384 0.514223 0.195 Uiso 1 1 calc R . .
C19 C 0.17759(15) 0.39286(15) 0.5039(3) 0.190(2) Uani 1 1 d . . .
H19 H 0.174472 0.408011 0.500678 0.228 Uiso 1 1 calc R . .
C9 C 0.24079(16) 0.34851(14) 0.4107(2) 0.181(2) Uani 1 1 d . . .
H9 H 0.250704 0.345533 0.394514 0.218 Uiso 1 1 calc R . .
C39 C 0.22033(14) 0.32198(15) 0.2182(2) 0.182(2) Uani 1 1 d . . .
H39 H 0.225059 0.307797 0.220146 0.218 Uiso 1 1 calc R . .
C17 C 0.16791(13) 0.37681(17) 0.5322(2) 0.168(2) Uani 1 1 d . . .
C26 C 0.17705(16) 0.37724(15) 0.32481(15) 0.181(2) Uani 1 1 d . . .
H26 H 0.171244 0.383093 0.342658 0.217 Uiso 1 1 calc R . .
C4 C 0.2711(2) 0.31923(17) 0.42983(16) 0.203(3) Uani 1 1 d . . .
H4 H 0.261928 0.313649 0.410288 0.243 Uiso 1 1 calc R . .
O12 O 0.23559(13) 0.35607(14) 0.35040(12) 0.246(2) Uani 1 1 d . . .
C11 C 0.20780(13) 0.36287(13) 0.42523(18) 0.169(2) Uani 1 1 d . . .
H11 H 0.195173 0.368839 0.419144 0.203 Uiso 1 1 calc R . .
C31 C 0.13155(15) 0.41793(13) 0.26562(15) 0.170(2) Uani 1 1 d . . .
H31 H 0.134000 0.430750 0.249606 0.204 Uiso 1 1 calc R . .
C6 C 0.28068(18) 0.34371(15) 0.4773(2) 0.198(2) Uani 1 1 d . . .
H6 H 0.277929 0.355260 0.491451 0.238 Uiso 1 1 calc R . .
O8 O 0.06710(16) 0.4524(2) 0.19797(18) 0.382(6) Uani 1 1 d . . .
C7 C 0.30047(17) 0.33579(16) 0.48449(19) 0.210(3) Uani 1 1 d . . .
H7 H 0.311426 0.342344 0.502830 0.252 Uiso 1 1 calc R . .
O9 O 0.11246(18) 0.49278(13) 0.2368(2) 0.358(5) Uani 1 1 d . . .
loop_
_atom_site_aniso_label
_atom_site_aniso_U_11
_atom_site_aniso_U_22
_atom_site_aniso_U_33
_atom_site_aniso_U_23
_atom_site_aniso_U_13
_atom_site_aniso_U_12
Zn1 0.2382(12) 0.1367(5) 0.1686(9) 0.0233(4) 0.0466(7) 0.1191(6)
Zn2 0.2201(8) 0.1224(5) 0.1951(7) 0.0284(4) 0.0619(6) 0.0925(6)
Zn3 0.2737(11) 0.1910(8) 0.2604(11) 0.0785(7) 0.1023(8) 0.1659(8)
O4 0.152(3) 0.237(5) 0.174(4) -0.034(3) -0.035(3) 0.126(3)
O10 0.178(3) 0.260(5) 0.167(3) -0.059(3) -0.019(3) 0.150(3)
O1 0.297(5) 0.123(2) 0.178(3) 0.019(2) 0.068(3) 0.115(3)
O6 0.234(4) 0.171(3) 0.195(4) 0.022(3) 0.053(3) 0.125(3)
O11 0.182(3) 0.241(4) 0.202(4) -0.052(3) -0.013(3) 0.153(3)
O7 0.222(4) 0.175(3) 0.241(4) 0.046(3) 0.083(3) 0.132(3)
C38 0.134(4) 0.236(7) 0.179(6) -0.056(6) -0.021(4) 0.110(5)
O2 0.379(8) 0.184(4) 0.195(4) 0.000(3) 0.067(5) 0.167(5)
O5 0.178(3) 0.234(4) 0.251(5) -0.027(3) -0.006(3) 0.140(3)
C24 0.169(4) 0.179(4) 0.131(4) -0.010(3) 0.000(3) 0.116(4)
C33 0.225(7) 0.146(5) 0.179(6) 0.015(4) 0.038(5) 0.107(5)
C8 0.176(5) 0.172(5) 0.118(4) -0.023(3) -0.003(4) 0.089(4)
N1 0.194(5) 0.241(6) 0.278(8) -0.048(5) 0.061(5) 0.146(5)
C35 0.176(5) 0.198(5) 0.122(4) -0.008(4) -0.005(3) 0.127(4)
C27 0.173(5) 0.166(4) 0.125(4) -0.018(3) 0.008(4) 0.099(4)
C23 0.160(4) 0.175(4) 0.147(5) -0.024(3) -0.006(3) 0.101(4)
C5 0.189(5) 0.169(5) 0.122(4) -0.009(4) 0.005(4) 0.105(4)
C25 0.186(5) 0.183(5) 0.122(4) -0.017(3) -0.004(4) 0.117(4)
N2 0.169(4) 0.229(5) 0.219(6) -0.006(4) 0.020(4) 0.130(4)
C18 0.177(6) 0.210(7) 0.220(8) -0.049(6) -0.056(6) 0.139(6)
C34 0.144(4) 0.185(5) 0.185(6) -0.026(4) -0.031(4) 0.110(4)
C28 0.194(5) 0.184(5) 0.126(4) -0.009(3) 0.011(4) 0.107(5)
C13 0.163(4) 0.172(5) 0.145(5) -0.003(3) -0.010(4) 0.093(4)
C32 0.189(5) 0.184(5) 0.150(5) 0.012(4) 0.033(4) 0.115(5)
C36 0.146(4) 0.211(5) 0.147(4) -0.014(4) -0.007(3) 0.112(4)
C22 0.192(5) 0.213(6) 0.142(5) 0.010(4) -0.027(4) 0.124(5)
C14 0.165(5) 0.160(5) 0.171(6) 0.010(4) -0.031(4) 0.104(4)
C2 0.244(8) 0.210(7) 0.193(8) 0.026(6) 0.056(7) 0.163(7)
C1 0.345(14) 0.186(7) 0.133(6) 0.002(5) -0.017(7) 0.126(8)
C30 0.181(5) 0.126(4) 0.176(5) -0.010(4) 0.018(4) 0.091(4)
C29 0.214(6) 0.175(5) 0.149(5) -0.003(4) 0.038(4) 0.126(5)
C37 0.146(4) 0.213(6) 0.160(5) -0.027(4) -0.015(3) 0.124(4)
C12 0.171(5) 0.173(5) 0.157(6) -0.023(4) -0.012(4) 0.093(4)
C21 0.233(7) 0.252(7) 0.110(5) -0.002(4) -0.014(4) 0.141(6)
C40 0.196(5) 0.229(6) 0.154(5) -0.010(4) -0.009(4) 0.145(5)
C3 0.310(11) 0.185(6) 0.146(6) 0.002(5) 0.022(7) 0.135(7)
C16 0.166(5) 0.202(6) 0.165(5) -0.017(4) -0.027(4) 0.121(5)
C20 0.159(5) 0.220(7) 0.198(6) 0.011(5) 0.012(4) 0.109(5)
O3 0.316(7) 0.276(7) 0.376(9) 0.065(6) 0.082(7) 0.237(6)
C10 0.213(7) 0.211(6) 0.092(4) -0.013(4) 0.008(5) 0.066(5)
C15 0.174(5) 0.185(5) 0.158(5) 0.002(4) -0.010(4) 0.112(4)
C19 0.169(5) 0.185(6) 0.246(8) 0.032(6) -0.012(5) 0.112(5)
C9 0.188(6) 0.184(5) 0.169(8) -0.011(4) -0.019(5) 0.091(5)
C39 0.198(6) 0.224(6) 0.188(6) -0.022(5) -0.023(5) 0.154(5)
C17 0.146(4) 0.188(6) 0.209(7) -0.023(5) -0.033(4) 0.111(5)
C26 0.225(6) 0.231(6) 0.127(5) -0.015(4) -0.026(4) 0.144(6)
C4 0.316(10) 0.208(6) 0.131(5) -0.015(4) -0.009(5) 0.166(7)
O12 0.262(5) 0.352(7) 0.194(4) -0.001(4) -0.015(4) 0.206(6)
C11 0.164(5) 0.205(6) 0.133(5) 0.010(4) -0.027(4) 0.088(4)
C31 0.187(5) 0.172(5) 0.183(5) 0.016(4) 0.051(4) 0.114(4)
C6 0.227(7) 0.205(6) 0.201(7) -0.041(5) -0.009(6) 0.137(6)
O8 0.317(8) 0.597(15) 0.302(7) 0.240(9) 0.121(6) 0.281(10)
C7 0.236(7) 0.231(7) 0.232(7) -0.025(6) 0.004(5) 0.169(6)
O9 0.351(9) 0.209(5) 0.505(12) 0.123(6) 0.191(9) 0.134(6)
loop_
_atom_type_symbol
_atom_type_description
_atom_type_scat_dispersion_real
_atom_type_scat_dispersion_imag
_atom_type_scat_source
C C 0.0181 0.0091 'International Tables Vol C Tables 4.2.6.8 and 6.1.1.4'
H H 0.0000 0.0000 'International Tables Vol C Tables 4.2.6.8 and 6.1.1.4'
N N 0.0311 0.0180 'International Tables Vol C Tables 4.2.6.8 and 6.1.1.4'
O O 0.0492 0.0322 'International Tables Vol C Tables 4.2.6.8 and 6.1.1.4'
Zn Zn -1.5491 0.6778 'International Tables Vol C Tables 4.2.6.8 and 6.1.1.4'
loop_
_geom_angle_atom_site_label_1
_geom_angle_atom_site_label_2
_geom_angle_atom_site_label_3
_geom_angle
_geom_angle_site_symmetry_1
_geom_angle_site_symmetry_3
O4 Zn1 O4 91.3(3) 20_556 28
O4 Zn1 O10 86.78(18) 20_556 4
O4 Zn1 O10 86.78(19) 28 8
O4 Zn1 O10 90.77(18) 20_556 8
O4 Zn1 O10 90.77(18) 28 4
O4 Zn1 O1 179.20(18) 20_556 12
O4 Zn1 O1 88.59(19) 28 12
O4 Zn1 O1 88.59(19) 20_556 .
O4 Zn1 O1 179.19(19) 28 .
O10 Zn1 O10 176.5(2) 8 4
O1 Zn1 O10 90.02(16) . 4
O1 Zn1 O10 90.01(16) 12 8
O1 Zn1 O10 92.43(16) 12 4
O1 Zn1 O10 92.43(16) . 8
O1 Zn1 O1 91.6(2) 12 .
O6 Zn2 O1 103.76(19) 36 .
O6 Zn2 O11 108.4(2) 36 8
O11 Zn2 O1 113.92(16) 8 .
O2 Zn2 O1 94.9(2) . .
O2 Zn2 O6 120.0(2) . 36
O2 Zn2 O11 114.8(2) . 8
O1 Zn3 O9 175.8(3) 30_455 .
O7 Zn3 O1 95.24(17) . 30_455
O7 Zn3 O5 113.6(2) . 10_455
O7 Zn3 O8 109.6(3) . .
O7 Zn3 O9 88.7(3) . .
O5 Zn3 O1 94.01(17) 10_455 30_455
O5 Zn3 O8 135.6(3) 10_455 .
O5 Zn3 O9 85.6(3) 10_455 .
O8 Zn3 O1 91.9(3) . 30_455
O8 Zn3 O9 85.5(4) . .
C18 O4 Zn1 122.0(4) . 21_556
C38 O10 Zn1 141.6(5) . 15_554
Zn2 O1 Zn1 109.68(17) . .
Zn2 O1 Zn3 109.3(2) . 36
Zn3 O1 Zn1 112.83(15) 36 .
C33 O6 Zn2 131.5(5) . 30_455
C38 O11 Zn2 117.4(5) . 15_554
C33 O7 Zn3 134.0(5) . .
O10 C38 C37 117.6(7) . .
O11 C38 O10 123.6(6) . .
O11 C38 C37 118.8(8) . .
C1 O2 Zn2 121.2(7) . .
C18 O5 Zn3 114.2(6) . 10_455
C23 C24 C25 121.7(5) . .
O6 C33 O7 124.4(7) . .
O6 C33 C30 118.5(7) . .
O7 C33 C30 117.0(7) . .
C13 C8 C5 122.9(6) . .
C13 C8 C9 117.8(7) . .
C9 C8 C5 119.2(7) . .
N2 N1 C10 105.7(7) . .
N2 N1 O12 142.5(8) . .
O12 N1 C10 111.0(7) . .
C36 C35 C34 119.0(5) . .
C28 C27 C25 120.6(6) . .
C32 C27 C25 122.3(6) . .
C32 C27 C28 117.1(6) . .
C24 C23 C34 119.9(5) . .
C24 C23 C22 119.0(5) . .
C22 C23 C34 121.1(5) . .
C4 C5 C8 123.7(7) . .
C4 C5 C6 115.1(7) . .
C6 C5 C8 121.0(6) . .
C24 C25 C27 121.1(5) . .
C26 C25 C24 118.1(6) . .
C26 C25 C27 120.7(6) . .
N1 N2 C21 108.5(7) . .
O4 C18 O5 123.8(9) . .
O4 C18 C17 120.9(7) . .
O5 C18 C17 115.3(8) . .
C35 C34 C23 122.1(5) . .
C35 C34 C40 118.5(5) . .
C40 C34 C23 119.3(6) . .
C29 C28 C27 122.1(6) . .
C12 C13 C8 123.8(6) . .
C31 C32 C27 121.9(5) . .
C35 C36 C37 122.5(5) . .
C21 C22 C23 117.5(5) . .
C20 C14 C12 122.2(7) . .
C20 C14 C15 115.4(7) . .
C15 C14 C12 122.5(6) . .
C3 C2 C1 116.4(10) . .
C3 C2 C7 119.1(9) . .
C7 C2 C1 123.4(10) . .
O2 C1 C2 132.8(9) . .
O2 C1 O3 115.5(10) . .
O3 C1 C2 110.5(9) . .
C29 C30 C33 118.5(7) . .
C29 C30 C31 121.2(6) . .
C31 C30 C33 120.3(7) . .
C30 C29 C28 117.9(6) . .
C36 C37 C38 120.6(7) . .
C39 C37 C38 121.0(7) . .
C39 C37 C36 118.3(5) . .
C13 C12 C14 122.4(6) . .
C13 C12 C11 116.4(6) . .
C11 C12 C14 121.1(7) . .
C22 C21 N2 127.7(7) . .
C26 C21 N2 111.3(6) . .
C26 C21 C22 121.0(5) . .
C39 C40 C34 120.9(6) . .
C2 C3 C4 123.8(9) . .
C17 C16 C15 120.6(7) . .
C14 C20 C19 124.6(8) . .
C9 C10 N1 114.1(8) . .
C11 C10 N1 121.7(9) . .
C11 C10 C9 124.2(6) . .
C14 C15 C16 122.6(6) . .
C20 C19 C17 120.7(7) . .
C10 C9 C8 118.6(7) . .
C40 C39 C37 120.5(6) . .
C16 C17 C18 118.5(8) . .
C16 C17 C19 116.0(7) . .
C19 C17 C18 125.3(8) . .
C21 C26 C25 122.5(6) . .
C5 C4 C3 121.3(7) . .
C10 C11 C12 119.0(6) . .
C32 C31 C30 119.7(6) . .
C7 C6 C5 122.0(6) . .
C6 C7 C2 118.3(8) . .
loop_
_geom_bond_atom_site_label_1
_geom_bond_atom_site_label_2
_geom_bond_distance
_geom_bond_site_symmetry_2
Zn1 O4 2.046(5) 20_556
Zn1 O4 2.046(5) 28
Zn1 O10 2.179(5) 4
Zn1 O10 2.179(5) 8
Zn1 O1 2.094(4) 12
Zn1 O1 2.094(4) .
Zn2 O1 1.986(4) .
Zn2 O6 1.903(5) 36
Zn2 O11 1.905(4) 8
Zn2 O2 1.881(7) .
Zn3 O1 2.062(5) 30_455
Zn3 O7 1.955(5) .
Zn3 O5 2.005(5) 10_455
Zn3 O8 2.057(8) .
Zn3 O9 2.147(7) .
O4 C18 1.240(9) .
O10 C38 1.274(8) .
O6 C33 1.248(7) .
O11 C38 1.269(8) .
O7 C33 1.272(7) .
C38 C37 1.486(9) .
O2 C1 1.135(8) .
O5 C18 1.267(8) .
C24 C23 1.384(6) .
C24 C25 1.388(6) .
C33 C30 1.529(9) .
C8 C5 1.432(8) .
C8 C13 1.375(7) .
C8 C9 1.387(8) .
N1 N2 1.070(6) .
N1 C10 1.574(7) .
N1 O12 1.304(7) .
C35 C34 1.400(7) .
C35 C36 1.376(7) .
C27 C25 1.441(7) .
C27 C28 1.402(7) .
C27 C32 1.377(7) .
C23 C34 1.493(7) .
C23 C22 1.435(7) .
C5 C4 1.360(8) .
C5 C6 1.377(8) .
C25 C26 1.378(7) .
N2 C21 1.598(6) .
C18 C17 1.488(10) .
C34 C40 1.418(8) .
C28 C29 1.386(7) .
C13 C12 1.361(7) .
C32 C31 1.349(7) .
C36 C37 1.395(7) .
C22 C21 1.406(8) .
C14 C12 1.489(8) .
C14 C20 1.308(8) .
C14 C15 1.375(7) .
C2 C1 1.500(12) .
C2 C3 1.219(10) .
C2 C7 1.416(10) .
C1 O3 1.285(9) .
C30 C29 1.361(7) .
C30 C31 1.393(7) .
C37 C39 1.387(8) .
C12 C11 1.441(8) .
C21 C26 1.344(8) .
C40 C39 1.371(8) .
C3 C4 1.390(11) .
C16 C15 1.400(7) .
C16 C17 1.335(8) .
C20 C19 1.353(9) .
C10 C9 1.365(10) .
C10 C11 1.313(9) .
C19 C17 1.412(9) .
C6 C7 1.378(9) .
loop_
_smtbx_masks_void_nr
_smtbx_masks_void_average_x
_smtbx_masks_void_average_y
_smtbx_masks_void_average_z
_smtbx_masks_void_volume
_smtbx_masks_void_count_electrons
1 -0.137 -0.164 -0.689 82515.3 16536.3
