#------------------------------------------------------------------------------
#$Date: 2019-05-08 01:32:12 +0300 (Wed, 08 May 2019) $
#$Revision: 214980 $
#$URL: file:///home/coder/svn-repositories/cod/cif/1/55/09/1550987.cif $
#------------------------------------------------------------------------------
#
# This file is available in the Crystallography Open Database (COD),
# http://www.crystallography.net/
#
# All data on this site have been placed in the public domain by the
# contributors.
#
data_1550987
loop_
_publ_author_name
'Kim, Hyehyun'
'Kim, Dongwook'
'Moon, Dohyun'
'Choi, Yong Nam'
'Baek, Seung Bin'
'Lah, Myoung Soo'
_publ_section_title
;
 Symmetry-guided syntheses of mixed-linker Zr metal-organic frameworks
 with precise linker locations
;
_journal_name_full               'Chemical Science'
_journal_paper_doi               10.1039/C9SC01301F
_journal_year                    2019
_chemical_formula_sum            'C64 H42 N2 O40 Zr6'
_chemical_formula_weight         2026.31
_space_group_crystal_system      tetragonal
_space_group_IT_number           139
_space_group_name_Hall           '-I 4 2'
_space_group_name_H-M_alt        'I 4/m m m'
_symmetry_space_group_name_Hall  '-I 4 2'
_symmetry_space_group_name_H-M   'I 4/m m m'
_atom_sites_solution_hydrogens   geom
_audit_creation_method           SHELXL-2014/7
_audit_update_record
;
2019-02-08 deposited with the CCDC.    2019-05-07 downloaded from the CCDC.
;
_cell_angle_alpha                90
_cell_angle_beta                 90
_cell_angle_gamma                90
_cell_formula_units_Z            2
_cell_length_a                   14.955(2)
_cell_length_b                   14.955(2)
_cell_length_c                   26.077(5)
_cell_measurement_reflns_used    65714
_cell_measurement_temperature    250(2)
_cell_measurement_theta_max      33.456
_cell_measurement_theta_min      1.897
_cell_volume                     5832.2(16)
_computing_cell_refinement       HKL3000
_computing_data_collection       'PAL BL2D-SMDC Program'
_computing_data_reduction        HKL3000
_computing_molecular_graphics    ORTEP
_computing_publication_material  CIFTAB
_computing_structure_refinement  SHELXL
_computing_structure_solution    SHELXS
_diffrn_ambient_temperature      250(2)
_diffrn_measured_fraction_theta_full 0.999
_diffrn_measured_fraction_theta_max 0.941
_diffrn_measurement_device_type  'ADSC Q210 CCD area detector'
_diffrn_measurement_method       'omega scan'
_diffrn_radiation_type           synchrotron
_diffrn_radiation_wavelength     0.700
_diffrn_reflns_av_R_equivalents  0.0399
_diffrn_reflns_av_unetI/netI     0.0222
_diffrn_reflns_Laue_measured_fraction_full 0.999
_diffrn_reflns_Laue_measured_fraction_max 0.941
_diffrn_reflns_limit_h_max       21
_diffrn_reflns_limit_h_min       -21
_diffrn_reflns_limit_k_max       22
_diffrn_reflns_limit_k_min       -22
_diffrn_reflns_limit_l_max       38
_diffrn_reflns_limit_l_min       -38
_diffrn_reflns_number            34972
_diffrn_reflns_point_group_measured_fraction_full 0.999
_diffrn_reflns_point_group_measured_fraction_max 0.941
_diffrn_reflns_theta_full        24.835
_diffrn_reflns_theta_max         33.456
_diffrn_reflns_theta_min         1.897
_diffrn_source                   'PLSII 2D bending magnet'
_exptl_absorpt_coefficient_mu    0.550
_exptl_absorpt_correction_T_max  0.978
_exptl_absorpt_correction_T_min  0.975
_exptl_absorpt_correction_type   multi-scan
_exptl_absorpt_process_details   HKL3000
_exptl_crystal_colour            colorless
_exptl_crystal_density_diffrn    1.154
_exptl_crystal_description       block
_exptl_crystal_F_000             2000
_exptl_crystal_size_max          0.047
_exptl_crystal_size_mid          0.045
_exptl_crystal_size_min          0.040
_refine_diff_density_max         2.514
_refine_diff_density_min         -2.154
_refine_diff_density_rms         0.195
_refine_ls_extinction_coef       0.0069(7)
_refine_ls_extinction_expression Fc^*^=kFc[1+0.001xFc^2^\l^3^/sin(2\q)]^-1/4^
_refine_ls_extinction_method     'SHELXL-2014/7 (Sheldrick 2014'
_refine_ls_goodness_of_fit_ref   1.082
_refine_ls_hydrogen_treatment    constr
_refine_ls_matrix_type           full
_refine_ls_number_parameters     109
_refine_ls_number_reflns         3181
_refine_ls_number_restraints     190
_refine_ls_restrained_S_all      1.379
_refine_ls_R_factor_all          0.0758
_refine_ls_R_factor_gt           0.0677
_refine_ls_shift/su_max          0.001
_refine_ls_shift/su_mean         0.000
_refine_ls_structure_factor_coef Fsqd
_refine_ls_weighting_details
'w=1/[\s^2^(Fo^2^)+(0.1266P)^2^+28.8964P] where P=(Fo^2^+2Fc^2^)/3'
_refine_ls_weighting_scheme      calc
_refine_ls_wR_factor_gt          0.1923
_refine_ls_wR_factor_ref         0.1995
_reflns_Friedel_coverage         0.000
_reflns_number_gt                2723
_reflns_number_total             3181
_reflns_threshold_expression     'I > 2\s(I)'
_cod_data_source_file            c9sc01301f2.cif
_cod_data_source_block           P17_026ttg_sq
_cod_depositor_comments
;
The following automatic conversions were performed:

'_exptl_absorpt_correction_type' value 'Multi-scan' changed to
'multi-scan' according to
/home/data/users/saulius/crontab/automatic-downloads/rss-feeds/RSC/lib/dictionaries/cif_core.dic
dictionary named 'cif_core.dic' version 2.4.2 from 2011-04-26.

Automatic conversion script
Id: cif_fix_values 4973 2017-02-22 13:04:09Z antanas 
;
_cod_original_cell_volume        5832(2)
_cod_database_code               1550987
_shelx_shelxl_version_number     2014/7
_shelx_space_group_comment
;
The symmetry employed for this shelxl refinement is uniquely defined
by the following loop, which should always be used as a source of
symmetry information in preference to the above space-group names.
They are only intended as comments.
;
_shelx_res_file
;

    P17_026ttg_sq.res created by SHELXL-2014/7


TITL P17_026ttg in I4/mmm [Zr6O4(OH)4(ndc)4(nbdc)2(H2O)4]
CELL 0.70000  14.9550  14.9550  26.0771  90.000  90.000  90.000
ZERR    2.00   0.0021   0.0021   0.0052   0.000   0.000   0.000
LATT 2
SYMM -X, -Y, Z
SYMM -Y, X, Z
SYMM Y, -X, Z
SYMM -X, Y, -Z
SYMM X, -Y, -Z
SYMM Y, X, -Z
SYMM -Y, -X, -Z
SFAC C  H  N  O  Zr
DISP C          0.0030         0.0016          10.98
DISP N          0.0059         0.0032          18.71
DISP O          0.0105         0.0059          30.82
DISP Zr        -3.5084         0.5477        2341.16
UNIT 128 84 4 80 12
L.S. 20 0   21
ACTA
BOND
FMAP 2
PLAN 20
isor 0.01 o4
ISOR  0.1  O5 C7 C8 C9 C10 N1 N2
DELU  0.1 O4 O1S O5 C7 C8 C9 C10 N1 N2
SIMU  0.1 O4 O1S O5 C7 C8 C9 C10 N1 N2
ISOR 0.01 O1M O2 C2 C3 C4 C5 C6
RIGU 0.02 O1M
FLAT 0.05 C7 C8 C9 C10 C10_$2 C9_$2 N1 N2
FLAT 0.05 O4 O5 C7 C8
DFIX 1.35 0.01 C7 O4
DFIX 1.25 0.01 C7 O5
DFIX 1.45 0.01 C7 C8
DFIX 1.39 0.01 C8 C9
DFIX 1.39 0.01 C8 C10
DFIX 1.39 0.01 C9 C9_$2
DFIX 1.39 0.01 C10 C10_$2
DFIX 1.35 0.01 C9 N1
DFIX 1.35 0.01 C10 N2
DANG 2.40 0.01 O4 O5
DANG 2.45 0.01 O4 C8
DANG 2.45 0.01 O5 C8
DANG 2.45 0.01 C7 C9
DANG 2.45 0.01 C7 C10
DANG 2.45 0.01 C8 C9_$2
DANG 2.45 0.01 C8 C10_$2
DANG 2.40 0.01 C8 N1
DANG 2.40 0.01 C8 N2
DANG 2.45 0.01 C9 C10
DANG 2.40 0.01 C9_$2 N1
DANG 2.40 0.01 C10_$2 N2
DANG 2.55 0.01 O4 N1
DANG 2.80 0.01 C7 N1
DANG 2.55 0.01 O5 N2
DANG 2.80 0.01 C7 N2
EQIV $2 -x, y, -z
EQIV $1 x, y, -z
FREE Zr2  Zr1
ABIN
TEMP -23
exyz o4 o1s
eadp o4 o1s
SIZE 0.047 0.045 0.040
WGHT    0.126600   28.896400
EXTI    0.006933
FVAR       0.09917
MOLE 1
ZR1   5    0.500000    0.500000    0.094091    10.12500    0.01348    0.01348 =
         0.00299    0.00000    0.00000    0.00000
ZR2   5    0.381611    0.381611    0.000000    10.25000    0.01816    0.01816 =
         0.00572    0.00000    0.00000   -0.00694
O1M   4    0.500000    0.381619    0.045173    10.50000    0.02157    0.12437 =
         0.03899   -0.05899    0.00000    0.00000
O1    4    0.411551    0.411551    0.136771    10.50000    0.02847    0.02847 =
         0.01000    0.00349    0.00349   -0.00972
O2    4    0.334714    0.334714    0.077686    10.50000    0.07257    0.07257 =
         0.01065    0.00361    0.00361   -0.05315
C1    1    0.354735    0.354735    0.123410    10.50000    0.04637    0.04637 =
         0.01014    0.00407    0.00407   -0.02895
C2    1    0.306824    0.306824    0.165325    10.50000    0.07061    0.07061 =
         0.01315    0.00575    0.00575   -0.04813
C3    1    0.326572    0.326572    0.214877    10.50000    0.08569    0.08569 =
         0.01578    0.00507    0.00507   -0.06521
AFIX  43
H3    2    0.370105    0.370105    0.222146    10.50000   -1.20000
AFIX   0
C4    1    0.282515    0.282515    0.255724    10.50000    0.08646    0.08646 =
         0.01655    0.00505    0.00505   -0.06522
C5    1    0.242153    0.242153    0.153778    10.50000    0.10932    0.10932 =
         0.01665    0.00472    0.00472   -0.08189
AFIX  43
H5    2    0.228929    0.228929    0.119363    10.50000   -1.20000
AFIX   0
C6    1    0.302039    0.302039    0.307738    10.50000    0.11084    0.11084 =
         0.02067    0.00485    0.00485   -0.08416
part 1
O4    4    0.234265    0.393020    0.000000    10.25000    0.03424    0.11144 =
         0.04863    0.00000    0.00000   -0.02761
O5    4    0.225774    0.243146    0.000000    10.25000    0.17058    0.56215 =
         0.17649    0.00000    0.00000    0.20658
C7    1    0.185362    0.324967    0.000000    10.25000    0.20254    0.24877 =
         0.06994    0.00000    0.00000    0.13755
C8    1    0.088580    0.334288    0.000000    10.25000    0.02134    0.18172 =
         0.22951    0.00000    0.00000    0.02785
C9    1    0.047481    0.419763    0.000000    10.25000    0.20693    0.22537 =
         0.52114    0.00000    0.00000   -0.04669
C10   1    0.047235    0.252348    0.000000    10.25000    0.28847    0.31086 =
         0.19684    0.00000    0.00000   -0.03835
N1    3    0.097149    0.500000    0.000000    10.06250    0.31301    0.22655 =
         0.41867    0.00000    0.00000    0.00000
N2    3    0.081023    0.168087    0.000000    10.06250    0.32271    0.28674 =
         0.20252    0.00000    0.00000    0.02094
part 2
O1S   4    0.234265    0.393020    0.000000    10.25000    0.03424    0.11144 =
         0.04863    0.00000    0.00000   -0.02761
part 0
HKLF 4

REM  P17_026ttg in I4/mmm [Zr6O4(OH)4(ndc)4(nbdc)2(H2O)4]
REM R1 =  0.0677 for    2723 Fo > 4sig(Fo)  and  0.0758 for all    3181 data
REM    109 parameters refined using    190 restraints

END

WGHT      0.1266     28.8800

REM Highest difference peak  2.514,  deepest hole -2.154,  1-sigma level  0.195
Q1    1   0.2346  0.3738  0.0000  10.50000  0.05    2.51
Q2    1   0.5000  0.3533  0.0504  10.50000  0.05    2.51
Q3    1   0.5000  0.4087  0.0394  10.50000  0.05    2.45
Q4    1   0.2148  0.2148  0.0000  10.25000  0.05    1.95
Q5    1   0.1850  0.3997 -0.0409  11.00000  0.05    1.46
Q6    1   0.5000  0.3932  0.0299  10.50000  0.05    1.41
Q7    1   0.0857  0.3782 -0.0325  11.00000  0.05    1.15
Q8    1   0.1890  0.2988  0.0000  10.50000  0.05    1.08
Q9    1   0.3312  0.2632  0.3057  11.00000  0.05    0.93
Q10   1   0.1957  0.1957  0.0329  10.50000  0.05    0.83
Q11   1   0.5000  0.3278  0.0829  10.50000  0.05    0.83
Q12   1   0.1303  0.2173  0.0000  10.50000  0.05    0.82
Q13   1   0.5000  0.5000  0.0497  10.12500  0.05    0.81
Q14   1   0.1944  0.5000  0.0000  10.25000  0.05    0.74
Q15   1   0.5000  0.2705  0.0928  10.50000  0.05    0.74
Q16   1   0.3835  0.3835  0.0458  10.50000  0.05    0.72
Q17   1   0.2779  0.2128  0.1563  11.00000  0.05    0.72
Q18   1   0.0000  0.4195  0.0534  10.50000  0.05    0.72
Q19   1   0.3650  0.3175  0.0823  11.00000  0.05    0.71
Q20   1   0.5000  0.5000  0.2361  10.12500  0.05    0.70
;
_shelx_res_checksum              12710
_shelx_fab_file
;
    0    0    4   -160.45      0.00
    0    0    6   -116.10      0.00
    0    0    8    -31.64      0.00
    0    0   10     65.36      0.00
    0    0   12     66.11      0.00
    0    0   14     27.68      0.00
    0    0   16     -6.98      0.00
    0    0   18    -17.13      0.00
    0    0   20    -25.41      0.00
    0    0   22    -17.76      0.00
    0    0   24      2.96      0.00
    0    0   26     14.87      0.00
    0    0   28     10.99      0.00
    0    0   30      6.07      0.00
    0    0   32     -2.80      0.00
    0    0   34     -4.12      0.00
    0    0   36     -5.05      0.00
    0    1   37     -0.23      0.00
    0    1   35     -2.60      0.00
    0    1   33     -0.34      0.00
    0    1   31      0.30      0.00
    0    1   29      1.44      0.00
    0    1   27      1.62      0.00
    0    1   25      0.65      0.00
    0    1   23     -0.30      0.00
    0    1   21     -0.09      0.00
    0    1   19     -0.79      0.00
    0    1   17     -0.85      0.00
    0    1   15      0.90      0.00
    0    1   13     -0.43      0.00
    0    1   11      3.99      0.00
    0    1    9      6.68      0.00
    0    1    7    -12.44      0.00
    0    1    5     -2.38      0.00
    0    1    3    -12.56      0.00
    0    2   36     -2.57      0.00
    0    2   34     -2.02      0.00
    0    2   32      0.98      0.00
    0    2   30      3.93      0.00
    0    2   28      3.97      0.00
    0    2   26      2.83      0.00
    0    2   24     -1.64      0.00
    0    2   22     -7.51      0.00
    0    2   20     -4.66      0.00
    0    2   18      1.39      0.00
    0    2   16      0.27      0.00
    0    2   14      8.15      0.00
    0    2   12      9.54      0.00
    0    2   10      8.81      0.00
    0    2    8    -11.13      0.00
    0    2    6    -14.18      0.00
    0    2    4    -21.64      0.00
    0    2    2    -52.76      0.00
    0    2    0    164.71      0.00
    0    3   35     -2.96      0.00
    0    3   33     -2.15      0.00
    0    3   31     -2.00      0.00
    0    3   29     -0.57      0.00
    0    3   27      1.66      0.00
    0    3   25      0.75      0.00
    0    3   23      2.24      0.00
    0    3   21     10.27      0.00
    0    3   19     -2.88      0.00
    0    3   17     -0.26      0.00
    0    3   15     -1.35      0.00
    0    3   13    -13.57      0.00
    0    3   11    -17.24      0.00
    0    3    9      7.51      0.00
    0    3    7     18.70      0.00
    0    3    5     36.17      0.00
    0    3    3      9.77      0.00
    0    3    1    -43.77      0.00
    0    3   37     -0.48      0.00
    0    4   36      2.65      0.00
    0    4   34      0.44      0.00
    0    4   32     -0.51      0.00
    0    4   30     -2.05      0.00
    0    4   28     -1.15      0.00
    0    4   26     -0.15      0.00
    0    4   24      0.58      0.00
    0    4   22      1.11      0.00
    0    4   20      1.30      0.00
    0    4   18      2.74      0.00
    0    4   16     -0.89      0.00
    0    4   14     -0.87      0.00
    0    4   12     -5.88      0.00
    0    4   10      0.32      0.00
    0    4    8     12.37      0.00
    0    4    6     -2.51      0.00
    0    4    4     -9.09      0.00
    0    4    2    -15.62      0.00
    0    4    0     42.67      0.00
    0    5   35     -3.48      0.00
    0    5   33     -0.91      0.00
    0    5   31     -2.51      0.00
    0    5   29     -1.12      0.00
    0    5   27      4.59      0.00
    0    5   25      3.76      0.00
    0    5   23      3.23      0.00
    0    5   21     -5.42      0.00
    0    5   19     -6.72      0.00
    0    5   17     -3.65      0.00
    0    5   15      5.85      0.00
    0    5   13      8.42      0.00
    0    5   11      1.64      0.00
    0    5    9      8.45      0.00
    0    5    7    -16.48      0.00
    0    5    5    -16.59      0.00
    0    5    3     12.83      0.00
    0    5    1      6.95      0.00
    0    5   37      3.11      0.00
    0    6   34      1.96      0.00
    0    6   32      0.75      0.00
    0    6   30      2.39      0.00
    0    6   28     -1.18      0.00
    0    6   26     -2.04      0.00
    0    6   24     -2.34      0.00
    0    6   22     -5.53      0.00
    0    6   20      3.55      0.00
    0    6   18      7.53      0.00
    0    6   16      5.19      0.00
    0    6   14     -4.30      0.00
    0    6   12     -8.93      0.00
    0    6   10      3.00      0.00
    0    6    8     10.14      0.00
    0    6    6     -4.05      0.00
    0    6    4    -12.63      0.00
    0    6    2    -14.17      0.00
    0    6    0     48.20      0.00
    0    6   36     -0.43      0.00
    0    7   33      1.37      0.00
    0    7   31      0.62      0.00
    0    7   29      1.02      0.00
    0    7   27      0.02      0.00
    0    7   25     -1.89      0.00
    0    7   23     -0.13      0.00
    0    7   21     -1.85      0.00
    0    7   19     -0.81      0.00
    0    7   17      0.57      0.00
    0    7   15      3.91      0.00
    0    7   13      1.49      0.00
    0    7   11      0.86      0.00
    0    7    9      1.40      0.00
    0    7    7     -7.72      0.00
    0    7    5     -1.11      0.00
    0    7    3     -2.89      0.00
    0    7    1      7.45      0.00
    0    7   35      3.68      0.00
    0    8   34     -3.67      0.00
    0    8   32      1.19      0.00
    0    8   30      4.37      0.00
    0    8   28      1.62      0.00
    0    8   26     -3.38      0.00
    0    8   24     -3.41      0.00
    0    8   22     -2.11      0.00
    0    8   20      2.12      0.00
    0    8   18      6.35      0.00
    0    8   16      4.94      0.00
    0    8   14     -5.83      0.00
    0    8   12     -9.49      0.00
    0    8   10      1.10      0.00
    0    8    8      5.76      0.00
    0    8    6      7.56      0.00
    0    8    4     -4.64      0.00
    0    8    2     -7.74      0.00
    0    8    0     10.61      0.00
    0    9   33      2.33      0.00
    0    9   31     -1.88      0.00
    0    9   29     -0.33      0.00
    0    9   27      0.57      0.00
    0    9   25      3.23      0.00
    0    9   23      0.92      0.00
    0    9   21     -2.05      0.00
    0    9   19     -6.65      0.00
    0    9   17     -0.08      0.00
    0    9   15      1.70      0.00
    0    9   13      8.48      0.00
    0    9   11      3.66      0.00
    0    9    9     -1.59      0.00
    0    9    7     -8.50      0.00
    0    9    5     -9.42      0.00
    0    9    3     -1.16      0.00
    0    9    1     12.12      0.00
    0    9   35      0.02      0.00
    0   10   32     -1.14      0.00
    0   10   30     -0.27      0.00
    0   10   28      0.28      0.00
    0   10   26     -0.13      0.00
    0   10   24      1.79      0.00
    0   10   22      0.76      0.00
    0   10   20     -1.33      0.00
    0   10   18      0.59      0.00
    0   10   16     -1.93      0.00
    0   10   14     -1.19      0.00
    0   10   12      1.79      0.00
    0   10   10      2.55      0.00
    0   10    8      0.93      0.00
    0   10    6     -3.54      0.00
    0   10    4     -5.36      0.00
    0   10    2      0.77      0.00
    0   10    0      9.26      0.00
    0   10   34     -0.21      0.00
    0   11   31     -1.97      0.00
    0   11   29      2.61      0.00
    0   11   27     -0.28      0.00
    0   11   25      2.61      0.00
    0   11   23      0.70      0.00
    0   11   21     -3.63      0.00
    0   11   19     -1.64      0.00
    0   11   17     -1.05      0.00
    0   11   15      0.68      0.00
    0   11   13      4.74      0.00
    0   11   11      3.32      0.00
    0   11    9     -4.41      0.00
    0   11    7     -4.00      0.00
    0   11    5     -0.31      0.00
    0   11    3     -2.31      0.00
    0   11    1      4.69      0.00
    0   11   33     -0.31      0.00
    0   12   30      2.93      0.00
    0   12   28     -0.15      0.00
    0   12   26     -2.68      0.00
    0   12   24     -2.76      0.00
    0   12   22     -0.68      0.00
    0   12   20      5.08      0.00
    0   12   18      5.12      0.00
    0   12   16      0.18      0.00
    0   12   14     -4.43      0.00
    0   12   12     -7.99      0.00
    0   12   10     -4.19      0.00
    0   12    8      5.98      0.00
    0   12    6     10.20      0.00
    0   12    4      8.30      0.00
    0   12    2    -14.86      0.00
    0   12    0     -0.26      0.00
    0   12   32     -4.58      0.00
    0   13   27     -1.83      0.00
    0   13   25     -0.95      0.00
    0   13   23     -1.35      0.00
    0   13   21      0.88      0.00
    0   13   19      3.89      0.00
    0   13   17      1.88      0.00
    0   13   15     -1.88      0.00
    0   13   13     -5.50      0.00
    0   13   11     -3.17      0.00
    0   13    9      1.50      0.00
    0   13    7      5.02      0.00
    0   13    5      7.47      0.00
    0   13    3     -2.29      0.00
    0   13    1     -6.63      0.00
    0   13   29     -0.71      0.00
    0   13   31      2.87      0.00
    0   14   26     -0.34      0.00
    0   14   24      0.92      0.00
    0   14   22     -1.22      0.00
    0   14   20      1.59      0.00
    0   14   18     -0.48      0.00
    0   14   16     -0.35      0.00
    0   14   14     -1.42      0.00
    0   14   12     -1.97      0.00
    0   14   10      4.32      0.00
    0   14    8      0.37      0.00
    0   14    6     -0.52      0.00
    0   14    4     -4.72      0.00
    0   14    2      0.49      0.00
    0   14    0      3.74      0.00
    0   14   28      0.95      0.00
    0   14   30     -1.62      0.00
    0   15   25      1.37      0.00
    0   15   23     -1.91      0.00
    0   15   21     -1.16      0.00
    0   15   19     -1.51      0.00
    0   15   17      1.36      0.00
    0   15   15     -1.29      0.00
    0   15   13      1.63      0.00
    0   15   11      1.62      0.00
    0   15    9      1.14      0.00
    0   15    7     -4.72      0.00
    0   15    5     -0.79      0.00
    0   15    3      1.38      0.00
    0   15    1      0.06      0.00
    0   15   27      3.05      0.00
    0   16   24      2.29      0.00
    0   16   22     -3.41      0.00
    0   16   20      1.86      0.00
    0   16   18     -0.31      0.00
    0   16   16     -0.89      0.00
    0   16   14      1.56      0.00
    0   16   12      2.51      0.00
    0   16   10     -0.70      0.00
    0   16    8     -2.73      0.00
    0   16    6     -2.98      0.00
    0   16    4     -0.06      0.00
    0   16    2      0.97      0.00
    0   16    0      2.69      0.00
    0   16   26     -3.25      0.00
    0   17   21     -0.06      0.00
    0   17   19      1.98      0.00
    0   17   17      2.27      0.00
    0   17   15     -0.71      0.00
    0   17   13     -2.14      0.00
    0   17   11     -2.60      0.00
    0   17    9      0.67      0.00
    0   17    7     -0.44      0.00
    0   17    5      5.53      0.00
    0   17    3     -1.98      0.00
    0   17    1     -2.36      0.00
    0   17   23     -2.51      0.00
    0   17   25      0.74      0.00
    0   18   18      0.88      0.00
    0   18   16      1.11      0.00
    0   18   14      1.24      0.00
    0   18   12     -0.90      0.00
    0   18   10     -3.26      0.00
    0   18    8      2.23      0.00
    0   18    6     -3.07      0.00
    0   18    4      1.46      0.00
    0   18    2      0.58      0.00
    0   18    0     -0.63      0.00
    0   18   20     -1.07      0.00
    0   18   22     -1.47      0.00
    0   19   15      1.98      0.00
    0   19   13     -3.26      0.00
    0   19   11      1.82      0.00
    0   19    9     -0.30      0.00
    0   19    7     -3.40      0.00
    0   19    5      1.23      0.00
    0   19    3      1.05      0.00
    0   19    1     -0.32      0.00
    0   19   17     -0.26      0.00
    0   19   19      0.80      0.00
    0   20   12      0.46      0.00
    0   20   10      1.04      0.00
    0   20    8      0.33      0.00
    0   20    6     -3.46      0.00
    0   20    4     -1.23      0.00
    0   20    2      0.27      0.00
    0   20    0      4.48      0.00
    0   20   14     -1.19      0.00
    0   20   16      1.98      0.00
    0   21    7      0.49      0.00
    0   21    5     -1.62      0.00
    0   21    3      1.58      0.00
    0   21    1     -1.63      0.00
    0   21    9      2.59      0.00
    0   21   11      2.19      0.00
    1   22    3     -0.26      0.00
    1   22    1     -1.99      0.00
    1   21   12     -1.60      0.00
    1   21   10     -3.58      0.00
    1   21    8     -0.44      0.00
    1   21    6      2.99      0.00
    1   21    4      4.04      0.00
    1   21    2     -0.34      0.00
    1   21    0     -7.69      0.00
    1   20   17      0.94      0.00
    1   20   15     -0.29      0.00
    1   20   13      4.47      0.00
    1   20   11     -5.00      0.00
    1   20    9     -0.34      0.00
    1   20    7      1.39      0.00
    1   20    5      1.05      0.00
    1   20    3     -0.71      0.00
    1   20    1     -0.64      0.00
    1   19   20      1.88      0.00
    1   19   18     -2.15      0.00
    1   19   16     -1.25      0.00
    1   19   14     -1.15      0.00
    1   19   12      0.61      0.00
    1   19   10      0.14      0.00
    1   19    8      0.10      0.00
    1   19    6      1.30      0.00
    1   19    4     -1.99      0.00
    1   19    2      0.15      0.00
    1   19    0      0.06      0.00
    1   18   23      0.84      0.00
    1   18   21      4.00      0.00
    1   18   19      1.11      0.00
    1   18   17     -3.92      0.00
    1   18   15     -1.16      0.00
    1   18   13      1.78      0.00
    1   18   11      0.39      0.00
    1   18    9     -0.19      0.00
    1   18    7      0.88      0.00
    1   18    5     -4.95      0.00
    1   18    3      1.23      0.00
    1   18    1      1.45      0.00
    1   17   26     -1.21      0.00
    1   17   24     -2.47      0.00
    1   17   22      1.91      0.00
    1   17   20     -0.32      0.00
    1   17   18      0.27      0.00
    1   17   16      0.52      0.00
    1   17   14     -1.59      0.00
    1   17   12      0.46      0.00
    1   17   10     -0.54      0.00
    1   17    8     -0.05      0.00
    1   17    6      0.32      0.00
    1   17    4     -1.43      0.00
    1   17    2      0.22      0.00
    1   17    0      0.50      0.00
    1   16   27     -2.83      0.00
    1   16   25     -0.05      0.00
    1   16   23      2.60      0.00
    1   16   21     -1.88      0.00
    1   16   19      1.31      0.00
    1   16   17     -0.66      0.00
    1   16   15      1.68      0.00
    1   16   13     -1.92      0.00
    1   16   11     -0.70      0.00
    1   16    9     -0.17      0.00
    1   16    7      1.16      0.00
    1   16    5     -1.29      0.00
    1   16    3      0.35      0.00
    1   16    1     -0.44      0.00
    1   15   28      0.21      0.00
    1   15   26     -1.85      0.00
    1   15   24     -1.48      0.00
    1   15   22     -0.84      0.00
    1   15   20      0.85      0.00
    1   15   18      1.68      0.00
    1   15   16      1.54      0.00
    1   15   14     -0.29      0.00
    1   15   12     -3.45      0.00
    1   15   10     -1.47      0.00
    1   15    8     -0.18      0.00
    1   15    6      3.88      0.00
    1   15    4      3.84      0.00
    1   15    2     -4.51      0.00
    1   15    0     -2.79      0.00
    1   14   29      1.88      0.00
    1   14   27     -2.03      0.00
    1   14   25     -1.29      0.00
    1   14   23     -0.67      0.00
    1   14   21      0.61      0.00
    1   14   19      0.36      0.00
    1   14   17     -0.60      0.00
    1   14   15      0.96      0.00
    1   14   13      2.04      0.00
    1   14   11     -2.15      0.00
    1   14    9     -1.83      0.00
    1   14    7     -0.21      0.00
    1   14    5      2.21      0.00
    1   14    3     -0.36      0.00
    1   14    1     -1.17      0.00
    1   13   32      5.30      0.00
    1   13   30     -1.85      0.00
    1   13   28      0.07      0.00
    1   13   26      0.80      0.00
    1   13   24     -0.19      0.00
    1   13   22      0.25      0.00
    1   13   20     -1.32      0.00
    1   13   18     -3.10      0.00
    1   13   16     -1.46      0.00
    1   13   14      2.90      0.00
    1   13   12      5.78      0.00
    1   13   10      0.82      0.00
    1   13    8     -4.04      0.00
    1   13    6     -6.21      0.00
    1   13    4     -0.53      0.00
    1   13    2      4.56      0.00
    1   13    0     -0.13      0.00
    1   12   33      4.15      0.00
    1   12   31     -0.46      0.00
    1   12   29     -1.21      0.00
    1   12   27     -0.06      0.00
    1   12   25      0.54      0.00
    1   12   23     -0.72      0.00
    1   12   21      3.21      0.00
    1   12   19     -3.64      0.00
    1   12   17     -1.21      0.00
    1   12   15     -0.18      0.00
    1   12   13      1.16      0.00
    1   12   11      2.35      0.00
    1   12    9      3.36      0.00
    1   12    7     -5.33      0.00
    1   12    5     -2.73      0.00
    1   12    3     -3.44      0.00
    1   12    1      5.74      0.00
    1   11   34     -7.68      0.00
    1   11   32      3.69      0.00
    1   11   30      2.17      0.00
    1   11   28      0.67      0.00
    1   11   26      0.49      0.00
    1   11   24     -1.27      0.00
    1   11   22      0.14      0.00
    1   11   20     -1.55      0.00
    1   11   18     -1.17      0.00
    1   11   16      1.22      0.00
    1   11   14      1.14      0.00
    1   11   12     -0.32      0.00
    1   11   10      2.08      0.00
    1   11    8     -0.75      0.00
    1   11    6     -3.60      0.00
    1   11    4     -1.45      0.00
    1   11    2      2.45      0.00
    1   11    0      0.96      0.00
    1   10   33     -1.71      0.00
    1   10   31      1.40      0.00
    1   10   29      1.17      0.00
    1   10   27     -1.19      0.00
    1   10   25     -2.40      0.00
    1   10   23     -0.91      0.00
    1   10   21      3.57      0.00
    1   10   19      2.90      0.00
    1   10   17      1.64      0.00
    1   10   15     -2.62      0.00
    1   10   13     -4.82      0.00
    1   10   11     -6.23      0.00
    1   10    9      5.09      0.00
    1   10    7      4.56      0.00
    1   10    5      6.56      0.00
    1   10    3     -0.08      0.00
    1   10    1     -7.81      0.00
    1    9   34     -0.06      0.00
    1    9   32     -0.22      0.00
    1    9   30     -1.57      0.00
    1    9   28     -1.22      0.00
    1    9   26      0.36      0.00
    1    9   24      0.02      0.00
    1    9   22      1.67      0.00
    1    9   20      2.37      0.00
    1    9   18     -0.33      0.00
    1    9   16     -2.43      0.00
    1    9   14      0.78      0.00
    1    9   12     -2.18      0.00
    1    9   10     -0.35      0.00
    1    9    8      1.62      0.00
    1    9    6      0.71      0.00
    1    9    4      3.27      0.00
    1    9    2     -3.53      0.00
    1    9    0     -0.20      0.00
    1    8   35     -1.02      0.00
    1    8   33     -1.49      0.00
    1    8   31     -2.70      0.00
    1    8   29     -1.64      0.00
    1    8   27     -0.96      0.00
    1    8   25      2.75      0.00
    1    8   23      1.41      0.00
    1    8   21      1.59      0.00
    1    8   19      1.70      0.00
    1    8   17     -1.08      0.00
    1    8   15     -4.49      0.00
    1    8   13      0.55      0.00
    1    8   11     -1.16      0.00
    1    8    9      3.63      0.00
    1    8    7      1.82      0.00
    1    8    5     -1.52      0.00
    1    8    3     -2.76      0.00
    1    8    1      1.94      0.00
    1    7   36      1.91      0.00
    1    7   34      0.42      0.00
    1    7   32     -1.62      0.00
    1    7   30     -2.60      0.00
    1    7   28     -2.29      0.00
    1    7   26      2.63      0.00
    1    7   24      2.51      0.00
    1    7   22      1.47      0.00
    1    7   20     -2.18      0.00
    1    7   18     -1.19      0.00
    1    7   16     -1.06      0.00
    1    7   14      1.56      0.00
    1    7   12      3.53      0.00
    1    7   10     -0.50      0.00
    1    7    8      0.59      0.00
    1    7    6     -7.54      0.00
    1    7    4      1.80      0.00
    1    7    2      5.01      0.00
    1    7    0     -3.03      0.00
    1    6   37      0.25      0.00
    1    6   35     -0.34      0.00
    1    6   33      1.78      0.00
    1    6   31      0.36      0.00
    1    6   29      0.10      0.00
    1    6   27     -0.87      0.00
    1    6   25     -1.47      0.00
    1    6   23     -1.37      0.00
    1    6   21      2.48      0.00
    1    6   19      1.52      0.00
    1    6   17      4.87      0.00
    1    6   15     -3.86      0.00
    1    6   13     -3.76      0.00
    1    6   11     -3.60      0.00
    1    6    9     -0.70      0.00
    1    6    7     10.25      0.00
    1    6    5      7.97      0.00
    1    6    3     -9.63      0.00
    1    6    1     -1.01      0.00
    1    5   36     -3.09      0.00
    1    5   34     -1.81      0.00
    1    5   32      0.92      0.00
    1    5   30      2.83      0.00
    1    5   28      1.90      0.00
    1    5   26      0.93      0.00
    1    5   24     -1.33      0.00
    1    5   22      1.23      0.00
    1    5   20     -0.59      0.00
    1    5   18     -3.69      0.00
    1    5   16     -2.12      0.00
    1    5   14      2.39      0.00
    1    5   12      3.39      0.00
    1    5   10      4.84      0.00
    1    5    8     -8.64      0.00
    1    5    6     -0.51      0.00
    1    5    4     13.94      0.00
    1    5    2     -6.43      0.00
    1    5    0     -5.21      0.00
    1    4   37     -0.28      0.00
    1    4   35     -0.33      0.00
    1    4   33      0.33      0.00
    1    4   31      1.85      0.00
    1    4   29      2.31      0.00
    1    4   27     -1.70      0.00
    1    4   25     -0.41      0.00
    1    4   23     -0.95      0.00
    1    4   21     -0.93      0.00
    1    4   19      3.38      0.00
    1    4   17     -0.30      0.00
    1    4   15     -7.60      0.00
    1    4   13      3.87      0.00
    1    4   11     11.93      0.00
    1    4    9     -1.43      0.00
    1    4    7     -5.79      0.00
    1    4    5     -3.05      0.00
    1    4    3    -22.03      0.00
    1    4    1     25.36      0.00
    1    3   36      0.43      0.00
    1    3   34     -0.63      0.00
    1    3   32     -1.18      0.00
    1    3   30      0.20      0.00
    1    3   28     -0.47      0.00
    1    3   26      1.59      0.00
    1    3   24      1.83      0.00
    1    3   22     -0.01      0.00
    1    3   20     -0.92      0.00
    1    3   18     -3.46      0.00
    1    3   16     -1.75      0.00
    1    3   14      2.78      0.00
    1    3   12      2.12      0.00
    1    3   10     16.10      0.00
    1    3    8     -2.72      0.00
    1    3    6    -21.99      0.00
    1    3    4    -10.55      0.00
    1    3    2    -10.18      0.00
    1    3    0     63.74      0.00
    1    2   37      1.51      0.00
    1    2   35      0.80      0.00
    1    2   33      2.47      0.00
    1    2   31      0.66      0.00
    1    2   29      0.19      0.00
    1    2   27     -0.60      0.00
    1    2   25     -0.25      0.00
    1    2   23     -2.51      0.00
    1    2   21     -3.37      0.00
    1    2   19      0.23      0.00
    1    2   17      4.05      0.00
    1    2   15      1.79      0.00
    1    2   13      5.84      0.00
    1    2   11      7.15      0.00
    1    2    9     -0.25      0.00
    1    2    7    -18.30      0.00
    1    2    5    -13.65      0.00
    1    2    3    -14.71      0.00
    1    2    1     36.25      0.00
    1    1   36      2.12      0.00
    1    1   34      3.76      0.00
    1    1   32      0.61      0.00
    1    1   30     -2.92      0.00
    1    1   28     -6.03      0.00
    1    1   26     -5.25      0.00
    1    1   24     -0.97      0.00
    1    1   22      8.57      0.00
    1    1   20     11.18      0.00
    1    1   18      4.56      0.00
    1    1   16      3.70      0.00
    1    1   14     -7.42      0.00
    1    1   12    -29.13      0.00
    1    1   10    -12.93      0.00
    1    1    8     13.95      0.00
    1    1    6      9.34      0.00
    1    1    4     70.96      0.00
    1    1    2     38.91      0.00
    1    1    0   -195.05      0.00
    2   22    8      6.83      0.00
    2   22    6     -1.15      0.00
    2   22    4     -1.61      0.00
    2   22    2     -0.68      0.00
    2   22    0      0.07      0.00
    2   21   15     -3.36      0.00
    2   21   13     -4.91      0.00
    2   21   11      2.68      0.00
    2   21    9      3.52      0.00
    2   21    7      1.17      0.00
    2   21    5     -1.94      0.00
    2   21    3     -1.14      0.00
    2   21    1      0.13      0.00
    2   20   18      0.09      0.00
    2   20   16      0.48      0.00
    2   20   14     -5.19      0.00
    2   20   12      0.43      0.00
    2   20   10      3.07      0.00
    2   20    8     -0.16      0.00
    2   20    6     -0.58      0.00
    2   20    4     -2.00      0.00
    2   20    2      0.32      0.00
    2   20    0      1.69      0.00
    2   19   21     -2.10      0.00
    2   19   19     -0.81      0.00
    2   19   17      2.50      0.00
    2   19   15      0.49      0.00
    2   19   13     -3.20      0.00
    2   19   11      1.26      0.00
    2   19    9     -0.23      0.00
    2   19    7     -0.93      0.00
    2   19    5      0.55      0.00
    2   19    3     -1.33      0.00
    2   19    1      1.01      0.00
    2   18   24     -0.87      0.00
    2   18   22      1.53      0.00
    2   18   20      0.87      0.00
    2   18   18      0.46      0.00
    2   18   16     -0.38      0.00
    2   18   14     -2.12      0.00
    2   18   12     -1.23      0.00
    2   18   10      0.67      0.00
    2   18    8      1.06      0.00
    2   18    6     -0.33      0.00
    2   18    4      1.25      0.00
    2   18    2     -0.41      0.00
    2   18    0     -2.88      0.00
    2   17   25     -2.02      0.00
    2   17   23      0.26      0.00
    2   17   21      0.29      0.00
    2   17   19      1.42      0.00
    2   17   17      0.15      0.00
    2   17   15     -0.42      0.00
    2   17   13     -0.62      0.00
    2   17   11     -0.94      0.00
    2   17    9     -0.52      0.00
    2   17    7      0.92      0.00
    2   17    5      2.28      0.00
    2   17    3     -4.84      0.00
    2   17    1      1.89      0.00
    2   16   28     -3.51      0.00
    2   16   26     -0.05      0.00
    2   16   24      3.38      0.00
    2   16   22     -2.11      0.00
    2   16   20      0.30      0.00
    2   16   18     -0.50      0.00
    2   16   16     -1.20      0.00
    2   16   14      0.07      0.00
    2   16   12      1.51      0.00
    2   16   10     -0.09      0.00
    2   16    8      0.27      0.00
    2   16    6     -1.83      0.00
    2   16    4      0.56      0.00
    2   16    2     -0.98      0.00
    2   16    0      0.75      0.00
    2   15   29      0.46      0.00
    2   15   27      2.16      0.00
    2   15   25      0.37      0.00
    2   15   23     -0.12      0.00
    2   15   21     -0.84      0.00
    2   15   19     -1.79      0.00
    2   15   17     -2.18      0.00
    2   15   15     -0.35      0.00
    2   15   13      3.53      0.00
    2   15   11      3.77      0.00
    2   15    9      0.69      0.00
    2   15    7     -5.30      0.00
    2   15    5     -4.63      0.00
    2   15    3     -1.13      0.00
    2   15    1      5.16      0.00
    2   14   30     -4.61      0.00
    2   14   28     -0.65      0.00
    2   14   26      1.59      0.00
    2   14   24      2.16      0.00
    2   14   22     -0.01      0.00
    2   14   20     -0.41      0.00
    2   14   18     -1.82      0.00
    2   14   16     -0.79      0.00
    2   14   14     -0.58      0.00
    2   14   12     -0.01      0.00
    2   14   10      2.03      0.00
    2   14    8      2.43      0.00
    2   14    6     -1.99      0.00
    2   14    4     -1.30      0.00
    2   14    2     -3.18      0.00
    2   14    0      5.36      0.00
    2   13   31      1.13      0.00
    2   13   29     -1.16      0.00
    2   13   27     -0.57      0.00
    2   13   25     -0.27      0.00
    2   13   23     -0.58      0.00
    2   13   21      1.33      0.00
    2   13   19      1.62      0.00
    2   13   17     -0.94      0.00
    2   13   15     -0.69      0.00
    2   13   13     -1.44      0.00
    2   13   11     -2.26      0.00
    2   13    9      1.57      0.00
    2   13    7      2.27      0.00
    2   13    5      3.37      0.00
    2   13    3     -2.30      0.00
    2   13    1     -2.57      0.00
    2   12   32      1.04      0.00
    2   12   30      0.95      0.00
    2   12   28     -0.23      0.00
    2   12   26     -1.91      0.00
    2   12   24     -1.32      0.00
    2   12   22      0.55      0.00
    2   12   20      1.53      0.00
    2   12   18      1.25      0.00
    2   12   16      0.08      0.00
    2   12   14     -0.30      0.00
    2   12   12     -2.74      0.00
    2   12   10     -4.39      0.00
    2   12    8      2.13      0.00
    2   12    6      4.41      0.00
    2   12    4     11.18      0.00
    2   12    2    -14.98      0.00
    2   12    0      4.16      0.00
    2   11   33     -1.23      0.00
    2   11   31      0.19      0.00
    2   11   29      2.01      0.00
    2   11   27     -0.09      0.00
    2   11   25      0.77      0.00
    2   11   23     -0.13      0.00
    2   11   21     -2.34      0.00
    2   11   19      0.72      0.00
    2   11   17     -0.26      0.00
    2   11   15      0.22      0.00
    2   11   13      2.10      0.00
    2   11   11     -1.01      0.00
    2   11    9     -2.42      0.00
    2   11    7      0.05      0.00
    2   11    5      2.64      0.00
    2   11    3     -0.80      0.00
    2   11    1     -0.81      0.00
    2   10   34      0.03      0.00
    2   10   32     -0.14      0.00
    2   10   30     -2.42      0.00
    2   10   28      0.35      0.00
    2   10   26      2.98      0.00
    2   10   24      2.83      0.00
    2   10   22      0.42      0.00
    2   10   20     -4.26      0.00
    2   10   18     -4.08      0.00
    2   10   16     -0.84      0.00
    2   10   14      3.93      0.00
    2   10   12      7.55      0.00
    2   10   10     -0.47      0.00
    2   10    8     -5.61      0.00
    2   10    6     -5.93      0.00
    2   10    4      1.71      0.00
    2   10    2     -0.56      0.00
    2   10    0      8.28      0.00
    2    9   35     -1.10      0.00
    2    9   33     -0.38      0.00
    2    9   31      1.16      0.00
    2    9   29      1.98      0.00
    2    9   27     -0.90      0.00
    2    9   25      0.48      0.00
    2    9   23     -1.12      0.00
    2    9   21     -1.46      0.00
    2    9   19     -0.59      0.00
    2    9   17      4.14      0.00
    2    9   15      0.51      0.00
    2    9   13     -0.20      0.00
    2    9   11     -3.75      0.00
    2    9    9     -0.99      0.00
    2    9    7      1.80      0.00
    2    9    5      2.32      0.00
    2    9    3      0.31      0.00
    2    9    1     -1.87      0.00
    2    8   36      3.26      0.00
    2    8   34     -0.53      0.00
    2    8   32     -0.04      0.00
    2    8   30      0.72      0.00
    2    8   28      0.79      0.00
    2    8   26      1.27      0.00
    2    8   24     -0.52      0.00
    2    8   22      0.31      0.00
    2    8   20     -2.86      0.00
    2    8   18     -2.64      0.00
    2    8   16      2.73      0.00
    2    8   14      2.65      0.00
    2    8   12      3.60      0.00
    2    8   10     -2.25      0.00
    2    8    8     -4.89      0.00
    2    8    6     -0.64      0.00
    2    8    4      4.77      0.00
    2    8    2     -0.46      0.00
    2    8    0     -1.93      0.00
    2    7   35      4.71      0.00
    2    7   33     -1.66      0.00
    2    7   31      1.07      0.00
    2    7   29      2.29      0.00
    2    7   27     -1.35      0.00
    2    7   25     -2.35      0.00
    2    7   23     -1.99      0.00
    2    7   21     -0.24      0.00
    2    7   19      4.06      0.00
    2    7   17      3.74      0.00
    2    7   15      0.17      0.00
    2    7   13     -5.69      0.00
    2    7   11     -2.47      0.00
    2    7    9      3.05      0.00
    2    7    7     -0.19      0.00
    2    7    5      5.14      0.00
    2    7    3      1.04      0.00
    2    7    1     -4.45      0.00
    2    6   36      2.03      0.00
    2    6   34      2.01      0.00
    2    6   32     -0.58      0.00
    2    6   30      0.05      0.00
    2    6   28     -1.30      0.00
    2    6   26      0.68      0.00
    2    6   24      0.01      0.00
    2    6   22      0.98      0.00
    2    6   20      0.08      0.00
    2    6   18     -3.62      0.00
    2    6   16     -0.98      0.00
    2    6   14      3.03      0.00
    2    6   12      4.96      0.00
    2    6   10      3.22      0.00
    2    6    8     -2.26      0.00
    2    6    6    -13.08      0.00
    2    6    4      4.08      0.00
    2    6    2      4.39      0.00
    2    6    0      1.64      0.00
    2    5   37      0.67      0.00
    2    5   35      1.05      0.00
    2    5   33     -0.69      0.00
    2    5   31     -0.74      0.00
    2    5   29     -0.66      0.00
    2    5   27     -0.26      0.00
    2    5   25      0.53      0.00
    2    5   23      0.87      0.00
    2    5   21     -0.21      0.00
    2    5   19      0.22      0.00
    2    5   17     -2.42      0.00
    2    5   15     -0.15      0.00
    2    5   13      5.28      0.00
    2    5   11      0.77      0.00
    2    5    9      8.62      0.00
    2    5    7    -12.90      0.00
    2    5    5    -15.90      0.00
    2    5    3     19.23      0.00
    2    5    1     -0.77      0.00
    2    4   36      1.07      0.00
    2    4   34     -0.14      0.00
    2    4   32     -0.63      0.00
    2    4   30     -2.31      0.00
    2    4   28     -2.20      0.00
    2    4   26      0.66      0.00
    2    4   24      1.17      0.00
    2    4   22      6.37      0.00
    2    4   20      3.24      0.00
    2    4   18     -2.36      0.00
    2    4   16     -5.35      0.00
    2    4   14     -1.70      0.00
    2    4   12     -3.72      0.00
    2    4   10     -2.67      0.00
    2    4    8      2.60      0.00
    2    4    6      8.09      0.00
    2    4    4     27.49      0.00
    2    4    2      3.43      0.00
    2    4    0    -61.21      0.00
    2    3   37     -0.26      0.00
    2    3   35      0.76      0.00
    2    3   33     -0.06      0.00
    2    3   31     -0.50      0.00
    2    3   29     -1.03      0.00
    2    3   27     -1.41      0.00
    2    3   25     -0.60      0.00
    2    3   23      0.32      0.00
    2    3   21      8.35      0.00
    2    3   19     -1.17      0.00
    2    3   17      1.64      0.00
    2    3   15     -1.94      0.00
    2    3   13     -5.91      0.00
    2    3   11    -11.16      0.00
    2    3    9      2.81      0.00
    2    3    7      8.92      0.00
    2    3    5     21.19      0.00
    2    3    3      9.43      0.00
    2    3    1    -26.30      0.00
    2    2   38      0.19      0.00
    2    2   36     -1.93      0.00
    2    2   34     -1.08      0.00
    2    2   32      2.45      0.00
    2    2   30      2.27      0.00
    2    2   28     -0.81      0.00
    2    2   26     -2.69      0.00
    2    2   24     -2.91      0.00
    2    2   22      1.48      0.00
    2    2   20      7.35      0.00
    2    2   18      7.78      0.00
    2    2   16     -0.51      0.00
    2    2   14     -4.82      0.00
    2    2   12    -16.24      0.00
    2    2   10    -17.05      0.00
    2    2    8     -3.70      0.00
    2    2    6     40.51      0.00
    2    2    4     59.79      0.00
    2    2    2    -15.36      0.00
    2    2    0   -101.95      0.00
    3   22    9      3.30      0.00
    3   22    7     -1.90      0.00
    3   22    5      2.20      0.00
    3   22    3      0.42      0.00
    3   22    1     -1.68      0.00
    3   21   16      0.52      0.00
    3   21   14     -1.07      0.00
    3   21   12     -2.32      0.00
    3   21   10     -0.16      0.00
    3   21    8      2.70      0.00
    3   21    6     -0.44      0.00
    3   21    4      1.03      0.00
    3   21    2      0.21      0.00
    3   21    0     -3.95      0.00
    3   20   19     -0.95      0.00
    3   20   17      0.43      0.00
    3   20   15     -2.21      0.00
    3   20   13      1.02      0.00
    3   20   11     -2.96      0.00
    3   20    9      2.84      0.00
    3   20    7     -0.54      0.00
    3   20    5      2.37      0.00
    3   20    3     -0.16      0.00
    3   20    1     -2.36      0.00
    3   19   22     -2.31      0.00
    3   19   20      2.92      0.00
    3   19   18     -1.40      0.00
    3   19   16     -1.88      0.00
    3   19   14      0.49      0.00
    3   19   12      0.61      0.00
    3   19   10     -2.47      0.00
    3   19    8      5.41      0.00
    3   19    6     -2.91      0.00
    3   19    4     -2.46      0.00
    3   19    2      1.90      0.00
    3   19    0     -0.76      0.00
    3   18   25     -3.50      0.00
    3   18   23      0.41      0.00
    3   18   21     -0.25      0.00
    3   18   19      3.05      0.00
    3   18   17     -2.70      0.00
    3   18   15     -2.15      0.00
    3   18   13      0.00      0.00
    3   18   11      0.04      0.00
    3   18    9      2.76      0.00
    3   18    7     -0.37      0.00
    3   18    5     -1.66      0.00
    3   18    3      0.80      0.00
    3   18    1     -0.97      0.00
    3   17   26      3.04      0.00
    3   17   24     -1.70      0.00
    3   17   22     -2.33      0.00
    3   17   20      0.78      0.00
    3   17   18     -0.11      0.00
    3   17   16      0.73      0.00
    3   17   14      0.62      0.00
    3   17   12      1.00      0.00
    3   17   10     -3.76      0.00
    3   17    8      2.16      0.00
    3   17    6     -1.01      0.00
    3   17    4     -1.04      0.00
    3   17    2     -0.11      0.00
    3   17    0      1.65      0.00
    3   16   29     -8.33      0.00
    3   16   27      2.78      0.00
    3   16   25      3.35      0.00
    3   16   23      1.15      0.00
    3   16   21     -4.97      0.00
    3   16   19      0.64      0.00
    3   16   17      1.78      0.00
    3   16   15      0.18      0.00
    3   16   13     -1.26      0.00
    3   16   11     -2.65      0.00
    3   16    9      1.59      0.00
    3   16    7      1.16      0.00
    3   16    5      1.91      0.00
    3   16    3      1.88      0.00
    3   16    1     -4.79      0.00
    3   15   30      0.90      0.00
    3   15   28     -3.15      0.00
    3   15   26     -0.79      0.00
    3   15   24     -0.13      0.00
    3   15   22      0.18      0.00
    3   15   20      0.45      0.00
    3   15   18     -1.06      0.00
    3   15   16      1.22      0.00
    3   15   14      1.52      0.00
    3   15   12     -1.45      0.00
    3   15   10     -1.15      0.00
    3   15    8     -0.85      0.00
    3   15    6      1.34      0.00
    3   15    4      1.61      0.00
    3   15    2     -2.72      0.00
    3   15    0      0.71      0.00
    3   14   31      2.20      0.00
    3   14   29     -2.33      0.00
    3   14   27      1.11      0.00
    3   14   25     -0.59      0.00
    3   14   23      1.09      0.00
    3   14   21     -2.74      0.00
    3   14   19      1.14      0.00
    3   14   17     -0.38      0.00
    3   14   15      0.50      0.00
    3   14   13      1.09      0.00
    3   14   11     -2.52      0.00
    3   14    9     -1.18      0.00
    3   14    7      2.36      0.00
    3   14    5      2.92      0.00
    3   14    3      0.58      0.00
    3   14    1     -4.31      0.00
    3   13   32     -0.59      0.00
    3   13   30     -1.88      0.00
    3   13   28     -0.79      0.00
    3   13   26      2.65      0.00
    3   13   24      0.06      0.00
    3   13   22     -0.73      0.00
    3   13   20     -1.56      0.00
    3   13   18     -1.26      0.00
    3   13   16      0.75      0.00
    3   13   14      0.64      0.00
    3   13   12      2.03      0.00
    3   13   10      0.59      0.00
    3   13    8     -0.85      0.00
    3   13    6     -3.31      0.00
    3   13    4     -1.51      0.00
    3   13    2      2.15      0.00
    3   13    0      0.98      0.00
    3   12   33     -0.28      0.00
    3   12   31     -0.34      0.00
    3   12   29      1.39      0.00
    3   12   27      1.12      0.00
    3   12   25      0.58      0.00
    3   12   23     -0.35      0.00
    3   12   21     -1.54      0.00
    3   12   19     -1.53      0.00
    3   12   17     -0.77      0.00
    3   12   15      1.77      0.00
    3   12   13      0.23      0.00
    3   12   11      1.89      0.00
    3   12    9      0.19      0.00
    3   12    7     -2.30      0.00
    3   12    5     -0.96      0.00
    3   12    3     -1.26      0.00
    3   12    1      1.86      0.00
    3   11   34      0.86      0.00
    3   11   32     -0.23      0.00
    3   11   30      0.15      0.00
    3   11   28      0.29      0.00
    3   11   26      0.48      0.00
    3   11   24     -1.55      0.00
    3   11   22      0.35      0.00
    3   11   20     -0.22      0.00
    3   11   18      0.69      0.00
    3   11   16      2.23      0.00
    3   11   14     -2.30      0.00
    3   11   12     -2.64      0.00
    3   11   10     -0.15      0.00
    3   11    8      3.66      0.00
    3   11    6      0.26      0.00
    3   11    4      0.00      0.00
    3   11    2     -1.87      0.00
    3   11    0     -0.06      0.00
    3   10   35      1.12      0.00
    3   10   33     -2.82      0.00
    3   10   31      0.38      0.00
    3   10   29      1.07      0.00
    3   10   27      0.78      0.00
    3   10   25      0.10      0.00
    3   10   23      0.67      0.00
    3   10   21     -0.12      0.00
    3   10   19     -2.20      0.00
    3   10   17     -1.77      0.00
    3   10   15      1.82      0.00
    3   10   13      2.64      0.00
    3   10   11     -0.61      0.00
    3   10    9      0.29      0.00
    3   10    7     -2.93      0.00
    3   10    5     -0.43      0.00
    3   10    3      3.56      0.00
    3   10    1     -1.99      0.00
    3    9   36      0.93      0.00
    3    9   34     -0.74      0.00
    3    9   32      0.73      0.00
    3    9   30     -0.05      0.00
    3    9   28     -0.26      0.00
    3    9   26     -1.62      0.00
    3    9   24     -1.44      0.00
    3    9   22      2.04      0.00
    3    9   20      3.47      0.00
    3    9   18      1.79      0.00
    3    9   16     -1.38      0.00
    3    9   14     -3.01      0.00
    3    9   12     -5.60      0.00
    3    9   10      0.00      0.00
    3    9    8      6.59      0.00
    3    9    6      3.68      0.00
    3    9    4      2.10      0.00
    3    9    2     -6.42      0.00
    3    9    0     -0.49      0.00
    3    8   35      1.40      0.00
    3    8   33      0.03      0.00
    3    8   31     -1.19      0.00
    3    8   29     -1.86      0.00
    3    8   27      0.40      0.00
    3    8   25      2.20      0.00
    3    8   23      1.60      0.00
    3    8   21     -0.03      0.00
    3    8   19     -3.29      0.00
    3    8   17     -3.16      0.00
    3    8   15      1.27      0.00
    3    8   13      8.13      0.00
    3    8   11      0.03      0.00
    3    8    9     -0.42      0.00
    3    8    7     -6.11      0.00
    3    8    5     -5.51      0.00
    3    8    3      3.50      0.00
    3    8    1      3.91      0.00
    3    7   36     -0.55      0.00
    3    7   34      0.24      0.00
    3    7   32     -1.11      0.00
    3    7   30     -1.17      0.00
    3    7   28     -1.04      0.00
    3    7   26      1.43      0.00
    3    7   24      0.48      0.00
    3    7   22     -1.79      0.00
    3    7   20      0.47      0.00
    3    7   18      4.27      0.00
    3    7   16      1.74      0.00
    3    7   14     -2.79      0.00
    3    7   12     -3.82      0.00
    3    7   10     -3.84      0.00
    3    7    8      4.50      0.00
    3    7    6      7.46      0.00
    3    7    4      0.16      0.00
    3    7    2     -7.17      0.00
    3    7    0      3.58      0.00
    3    6   37      0.04      0.00
    3    6   35     -0.34      0.00
    3    6   33      2.36      0.00
    3    6   31      1.57      0.00
    3    6   29     -0.82      0.00
    3    6   27      0.41      0.00
    3    6   25     -0.19      0.00
    3    6   23      0.69      0.00
    3    6   21     -0.66      0.00
    3    6   19     -6.26      0.00
    3    6   17      2.76      0.00
    3    6   15      3.63      0.00
    3    6   13      5.66      0.00
    3    6   11     -4.02      0.00
    3    6    9     -5.06      0.00
    3    6    7      1.00      0.00
    3    6    5      6.86      0.00
    3    6    3     -3.42      0.00
    3    6    1     -0.49      0.00
    3    5   36     -0.46      0.00
    3    5   34     -0.47      0.00
    3    5   32      2.25      0.00
    3    5   30      3.04      0.00
    3    5   28      0.90      0.00
    3    5   26     -1.52      0.00
    3    5   24     -1.84      0.00
    3    5   22     -2.03      0.00
    3    5   20      0.98      0.00
    3    5   18      4.02      0.00
    3    5   16      0.18      0.00
    3    5   14     -1.25      0.00
    3    5   12     -2.69      0.00
    3    5   10     -2.86      0.00
    3    5    8     -0.07      0.00
    3    5    6     15.79      0.00
    3    5    4     -0.18      0.00
    3    5    2    -16.53      0.00
    3    5    0     14.29      0.00
    3    4   37     -1.48      0.00
    3    4   35     -0.81      0.00
    3    4   33     -0.79      0.00
    3    4   31      1.13      0.00
    3    4   29      1.30      0.00
    3    4   27      1.27      0.00
    3    4   25      1.01      0.00
    3    4   23     -0.23      0.00
    3    4   21      0.77      0.00
    3    4   19     -3.09      0.00
    3    4   17      0.69      0.00
    3    4   15     -2.92      0.00
    3    4   13      2.71      0.00
    3    4   11     -0.22      0.00
    3    4    9     -2.85      0.00
    3    4    7      3.44      0.00
    3    4    5     15.01      0.00
    3    4    3     -8.16      0.00
    3    4    1     -4.72      0.00
    3    3   38     -2.61      0.00
    3    3   36      3.05      0.00
    3    3   34     -1.05      0.00
    3    3   32      0.01      0.00
    3    3   30      1.49      0.00
    3    3   28      1.55      0.00
    3    3   26      0.53      0.00
    3    3   24      0.73      0.00
    3    3   22     -5.42      0.00
    3    3   20     -2.93      0.00
    3    3   18      1.85      0.00
    3    3   16      1.02      0.00
    3    3   14      5.28      0.00
    3    3   12      1.16      0.00
    3    3   10      8.74      0.00
    3    3    8     -0.24      0.00
    3    3    6     -9.38      0.00
    3    3    4    -29.22      0.00
    3    3    2    -23.13      0.00
    1    3   38      2.48      0.00
    3    3    0    103.78      0.00
    4   22   10     -3.82      0.00
    4   22    8      1.36      0.00
    4   22    6     -0.04      0.00
    4   22    4      0.71      0.00
    4   22    2     -0.56      0.00
    4   22    0     -1.04      0.00
    4   21   15      0.37      0.00
    4   21   13      0.84      0.00
    4   21   11     -0.20      0.00
    4   21    9     -0.16      0.00
    4   21    7      1.08      0.00
    4   21    5     -2.01      0.00
    4   21    3      0.80      0.00
    4   21    1     -0.31      0.00
    4   20   20     -4.71      0.00
    4   20   18     -3.12      0.00
    4   20   16      5.97      0.00
    4   20   14     -2.11      0.00
    4   20   12      1.19      0.00
    4   20   10     -0.21      0.00
    4   20    8     -3.82      0.00
    4   20    6      2.97      0.00
    4   20    4      0.41      0.00
    4   20    2     -1.31      0.00
    4   20    0      0.43      0.00
    4   19   23     -4.67      0.00
    4   19   21      1.23      0.00
    4   19   19     -6.05      0.00
    4   19   17      3.31      0.00
    4   19   15      3.64      0.00
    4   19   13     -0.22      0.00
    4   19   11     -0.82      0.00
    4   19    9     -2.65      0.00
    4   19    7     -0.35      0.00
    4   19    5     -0.49      0.00
    4   19    3      2.73      0.00
    4   19    1     -1.37      0.00
    4   18   24     -0.23      0.00
    4   18   22      3.94      0.00
    4   18   20     -3.04      0.00
    4   18   18     -1.47      0.00
    4   18   16      1.93      0.00
    4   18   14     -0.80      0.00
    4   18   12     -0.38      0.00
    4   18   10      0.74      0.00
    4   18    8     -1.08      0.00
    4   18    6      0.68      0.00
    4   18    4      0.81      0.00
    4   18    2     -1.15      0.00
    4   18    0     -0.67      0.00
    4   17   27     -6.42      0.00
    4   17   25      1.44      0.00
    4   17   23     -2.56      0.00
    4   17   21      2.45      0.00
    4   17   19     -0.14      0.00
    4   17   17     -0.90      0.00
    4   17   15      0.76      0.00
    4   17   13      0.43      0.00
    4   17   11     -1.41      0.00
    4   17    9     -0.93      0.00
    4   17    7      1.41      0.00
    4   17    5      1.06      0.00
    4   17    3     -1.70      0.00
    4   17    1     -0.23      0.00
    4   16   28      3.81      0.00
    4   16   26     -4.58      0.00
    4   16   24      1.14      0.00
    4   16   22     -0.38      0.00
    4   16   20      0.02      0.00
    4   16   18      0.42      0.00
    4   16   16     -0.99      0.00
    4   16   14     -1.03      0.00
    4   16   12      0.36      0.00
    4   16   10      1.37      0.00
    4   16    8     -0.35      0.00
    4   16    6     -0.01      0.00
    4   16    4      0.99      0.00
    4   16    2     -0.97      0.00
    4   16    0     -2.05      0.00
    4   15   29      3.58      0.00
    4   15   27     -0.75      0.00
    4   15   25      0.34      0.00
    4   15   23     -2.37      0.00
    4   15   21      0.79      0.00
    4   15   19      0.30      0.00
    4   15   17      0.42      0.00
    4   15   15     -0.64      0.00
    4   15   13     -1.12      0.00
    4   15   11      1.17      0.00
    4   15    9      0.89      0.00
    4   15    7     -0.67      0.00
    4   15    5     -0.83      0.00
    4   15    3      0.44      0.00
    4   15    1     -0.73      0.00
    4   14   32     -2.01      0.00
    4   14   30     -3.34      0.00
    4   14   28      2.21      0.00
    4   14   26      0.57      0.00
    4   14   24     -0.38      0.00
    4   14   22     -0.19      0.00
    4   14   20      1.05      0.00
    4   14   18     -0.53      0.00
    4   14   16     -1.30      0.00
    4   14   14     -1.07      0.00
    4   14   12     -0.29      0.00
    4   14   10      1.34      0.00
    4   14    8      1.79      0.00
    4   14    6      0.22      0.00
    4   14    4     -0.40      0.00
    4   14    2     -1.26      0.00
    4   14    0     -1.34      0.00
    4   13   33      3.69      0.00
    4   13   31     -2.55      0.00
    4   13   29     -0.61      0.00
    4   13   27     -1.29      0.00
    4   13   25      0.33      0.00
    4   13   23     -0.74      0.00
    4   13   21      1.25      0.00
    4   13   19      0.12      0.00
    4   13   17      0.25      0.00
    4   13   15     -0.31      0.00
    4   13   13     -1.05      0.00
    4   13   11     -0.38      0.00
    4   13    9      0.47      0.00
    4   13    7      0.40      0.00
    4   13    5      1.61      0.00
    4   13    3     -0.25      0.00
    4   13    1     -1.97      0.00
    4   12   34     -5.71      0.00
    4   12   32      2.09      0.00
    4   12   30      1.85      0.00
    4   12   28      0.64      0.00
    4   12   26     -1.15      0.00
    4   12   24     -1.04      0.00
    4   12   22     -0.35      0.00
    4   12   20      0.88      0.00
    4   12   18      0.28      0.00
    4   12   16     -1.77      0.00
    4   12   14      1.83      0.00
    4   12   12      0.19      0.00
    4   12   10     -1.97      0.00
    4   12    8      0.02      0.00
    4   12    6      0.88      0.00
    4   12    4      3.86      0.00
    4   12    2     -4.41      0.00
    4   12    0      0.39      0.00
    4   11   35      1.11      0.00
    4   11   33      1.95      0.00
    4   11   31     -1.12      0.00
    4   11   29     -0.79      0.00
    4   11   27     -1.06      0.00
    4   11   25      0.26      0.00
    4   11   23      0.92      0.00
    4   11   21      0.37      0.00
    4   11   19      1.27      0.00
    4   11   17     -1.18      0.00
    4   11   15     -2.62      0.00
    4   11   13      0.48      0.00
    4   11   11      1.80      0.00
    4   11    9      0.81      0.00
    4   11    7     -0.81      0.00
    4   11    5     -0.51      0.00
    4   11    3     -0.78      0.00
    4   11    1      0.45      0.00
    4   10   34     -2.65      0.00
    4   10   32      0.30      0.00
    4   10   30      0.56      0.00
    4   10   28     -0.14      0.00
    4   10   26      0.78      0.00
    4   10   24      0.58      0.00
    4   10   22     -0.68      0.00
    4   10   20      0.42      0.00
    4   10   18     -0.02      0.00
    4   10   16     -1.74      0.00
    4   10   14      0.04      0.00
    4   10   12      2.67      0.00
    4   10   10     -0.57      0.00
    4   10    8     -0.12      0.00
    4   10    6     -1.78      0.00
    4   10    4     -1.11      0.00
    4   10    2      1.00      0.00
    4   10    0      1.53      0.00
    4    9   35     -1.97      0.00
    4    9   33      1.44      0.00
    4    9   31     -0.54      0.00
    4    9   29     -0.30      0.00
    4    9   27     -1.80      0.00
    4    9   25     -0.02      0.00
    4    9   23      1.25      0.00
    4    9   21      1.77      0.00
    4    9   19      1.39      0.00
    4    9   17      0.53      0.00
    4    9   15     -4.67      0.00
    4    9   13     -0.39      0.00
    4    9   11     -0.76      0.00
    4    9    9      1.74      0.00
    4    9    7      3.04      0.00
    4    9    5      1.27      0.00
    4    9    3     -1.37      0.00
    4    9    1     -2.01      0.00
    4    8   36      1.25      0.00
    4    8   34     -1.04      0.00
    4    8   32      2.26      0.00
    4    8   30      1.48      0.00
    4    8   28     -0.17      0.00
    4    8   26     -0.88      0.00
    4    8   24     -1.56      0.00
    4    8   22     -0.72      0.00
    4    8   20      0.04      0.00
    4    8   18      1.56      0.00
    4    8   16      2.53      0.00
    4    8   14     -0.87      0.00
    4    8   12      0.19      0.00
    4    8   10     -2.92      0.00
    4    8    8      1.82      0.00
    4    8    6     -1.73      0.00
    4    8    4      2.35      0.00
    4    8    2      0.01      0.00
    4    8    0     -1.74      0.00
    4    7   37     -0.78      0.00
    4    7   35      2.33      0.00
    4    7   33     -2.59      0.00
    4    7   31     -1.54      0.00
    4    7   29      0.73      0.00
    4    7   27      0.93      0.00
    4    7   25      0.52      0.00
    4    7   23      0.80      0.00
    4    7   21      0.78      0.00
    4    7   19      0.87      0.00
    4    7   17     -1.84      0.00
    4    7   15     -4.76      0.00
    4    7   13      1.26      0.00
    4    7   11      3.64      0.00
    4    7    9      3.12      0.00
    4    7    7     -2.12      0.00
    4    7    5      1.53      0.00
    4    7    3     -3.15      0.00
    4    7    1      0.63      0.00
    4    6   36      2.48      0.00
    4    6   34      0.13      0.00
    4    6   32      0.78      0.00
    4    6   30      0.89      0.00
    4    6   28      0.07      0.00
    4    6   26      0.72      0.00
    4    6   24     -2.90      0.00
    4    6   22     -0.99      0.00
    4    6   20     -0.45      0.00
    4    6   18     -0.09      0.00
    4    6   16      1.52      0.00
    4    6   14      3.32      0.00
    4    6   12      1.14      0.00
    4    6   10      3.13      0.00
    4    6    8      2.14      0.00
    4    6    6    -19.03      0.00
    4    6    4      2.72      0.00
    4    6    2      7.52      0.00
    4    6    0      2.40      0.00
    4    5   37     -2.07      0.00
    4    5   35      0.92      0.00
    4    5   33     -0.83      0.00
    4    5   31      0.22      0.00
    4    5   29      0.90      0.00
    4    5   27      1.00      0.00
    4    5   25     -0.49      0.00
    4    5   23     -1.02      0.00
    4    5   21     -0.29      0.00
    4    5   19      1.86      0.00
    4    5   17     -1.33      0.00
    4    5   15     -4.37      0.00
    4    5   13      5.59      0.00
    4    5   11      2.22      0.00
    4    5    9      4.92      0.00
    4    5    7     -6.60      0.00
    4    5    5     -7.16      0.00
    4    5    3      6.12      0.00
    4    5    1      1.14      0.00
    4    4   38      2.93      0.00
    4    4   36     -1.45      0.00
    4    4   34     -0.77      0.00
    4    4   32     -0.74      0.00
    4    4   30     -1.37      0.00
    4    4   28      0.45      0.00
    4    4   26      4.35      0.00
    4    4   24     -0.79      0.00
    4    4   22      1.30      0.00
    4    4   20     -1.74      0.00
    4    4   18     -4.65      0.00
    4    4   16     -1.37      0.00
    4    4   14      5.41      0.00
    4    4   12      1.84      0.00
    4    4   10      5.19      0.00
    4    4    8     -1.45      0.00
    4    4    6    -16.61      0.00
    4    4    4     13.92      0.00
    4    4    2      7.00      0.00
    4    4    0    -16.69      0.00
    2    4   38      1.35      0.00
    0    4   38      0.44      0.00
    5   22   11      3.32      0.00
    5   22    9      2.19      0.00
    5   22    7     -0.57      0.00
    5   22    5     -2.30      0.00
    5   22    3     -2.00      0.00
    5   22    1      2.41      0.00
    5   21   14     -3.50      0.00
    5   21   12     -0.67      0.00
    5   21   10      1.20      0.00
    5   21    8      1.65      0.00
    5   21    6     -0.54      0.00
    5   21    4      0.57      0.00
    5   21    2     -0.74      0.00
    5   21    0     -1.10      0.00
    5   20   17     -0.94      0.00
    5   20   15     -3.37      0.00
    5   20   13     -0.47      0.00
    5   20   11      1.46      0.00
    5   20    9      1.33      0.00
    5   20    7      0.40      0.00
    5   20    5      0.45      0.00
    5   20    3     -1.66      0.00
    5   20    1     -0.23      0.00
    5   19   20      2.34      0.00
    5   19   18     -1.35      0.00
    5   19   16     -0.60      0.00
    5   19   14     -0.83      0.00
    5   19   12      1.62      0.00
    5   19   10     -0.42      0.00
    5   19    8      0.94      0.00
    5   19    6     -1.87      0.00
    5   19    4      0.22      0.00
    5   19    2      1.23      0.00
    5   19    0     -2.27      0.00
    5   18   23      1.74      0.00
    5   18   21      1.21      0.00
    5   18   19      2.49      0.00
    5   18   17     -2.02      0.00
    5   18   15     -1.81      0.00
    5   18   13     -0.89      0.00
    5   18   11      1.26      0.00
    5   18    9      0.55      0.00
    5   18    7      0.96      0.00
    5   18    5     -0.87      0.00
    5   18    3     -1.70      0.00
    5   18    1      0.83      0.00
    5   17   26      9.35      0.00
    5   17   24     -3.87      0.00
    5   17   22     -4.26      0.00
    5   17   20     -0.11      0.00
    5   17   18      2.20      0.00
    5   17   16      1.98      0.00
    5   17   14     -1.81      0.00
    5   17   12     -0.62      0.00
    5   17   10     -1.77      0.00
    5   17    8      1.28      0.00
    5   17    6      1.53      0.00
    5   17    4      0.58      0.00
    5   17    2     -1.48      0.00
    5   17    0     -1.28      0.00
    5   16   27     -0.38      0.00
    5   16   25     -0.73      0.00
    5   16   23      0.98      0.00
    5   16   21     -0.34      0.00
    5   16   19     -0.88      0.00
    5   16   17      1.21      0.00
    5   16   15     -0.32      0.00
    5   16   13     -0.37      0.00
    5   16   11      0.36      0.00
    5   16    9      0.08      0.00
    5   16    7     -0.76      0.00
    5   16    5     -0.21      0.00
    5   16    3      0.36      0.00
    5   16    1     -0.45      0.00
    5   15   28     -2.96      0.00
    5   15   26      0.62      0.00
    5   15   24     -0.39      0.00
    5   15   22     -0.86      0.00
    5   15   20      0.59      0.00
    5   15   18     -0.06      0.00
    5   15   16     -0.12      0.00
    5   15   14      0.14      0.00
    5   15   12      0.12      0.00
    5   15   10     -0.96      0.00
    5   15    8      0.61      0.00
    5   15    6      0.92      0.00
    5   15    4      0.57      0.00
    5   15    2     -2.16      0.00
    5   15    0      0.28      0.00
    5   14   31      2.73      0.00
    5   14   29     -2.98      0.00
    5   14   27     -0.24      0.00
    5   14   25     -1.84      0.00
    5   14   23      2.11      0.00
    5   14   21      1.43      0.00
    5   14   19     -1.48      0.00
    5   14   17     -1.43      0.00
    5   14   15     -0.60      0.00
    5   14   13      2.46      0.00
    5   14   11      0.93      0.00
    5   14    9     -1.18      0.00
    5   14    7     -1.13      0.00
    5   14    5      0.24      0.00
    5   14    3     -1.05      0.00
    5   14    1      0.77      0.00
    5   13   32     -2.08      0.00
    5   13   30      2.04      0.00
    5   13   28     -1.12      0.00
    5   13   26      0.51      0.00
    5   13   24     -0.24      0.00
    5   13   22     -0.55      0.00
    5   13   20     -1.03      0.00
    5   13   18      1.85      0.00
    5   13   16     -0.76      0.00
    5   13   14     -1.15      0.00
    5   13   12      0.80      0.00
    5   13   10      1.39      0.00
    5   13    8     -1.07      0.00
    5   13    6     -0.67      0.00
    5   13    4      1.29      0.00
    5   13    2     -1.30      0.00
    5   13    0      0.02      0.00
    5   12   33      2.74      0.00
    5   12   31     -1.66      0.00
    5   12   29      1.78      0.00
    5   12   27     -0.77      0.00
    5   12   25     -0.39      0.00
    5   12   23     -0.74      0.00
    5   12   21      0.36      0.00
    5   12   19     -0.21      0.00
    5   12   17      1.90      0.00
    5   12   15     -0.39      0.00
    5   12   13     -2.00      0.00
    5   12   11     -0.54      0.00
    5   12    9      1.10      0.00
    5   12    7      0.99      0.00
    5   12    5      0.48      0.00
    5   12    3     -2.33      0.00
    5   12    1      0.67      0.00
    5   11   34      1.03      0.00
    5   11   32     -0.06      0.00
    5   11   30     -1.30      0.00
    5   11   28      0.47      0.00
    5   11   26     -0.59      0.00
    5   11   24      0.84      0.00
    5   11   22      1.00      0.00
    5   11   20     -1.53      0.00
    5   11   18     -1.13      0.00
    5   11   16      0.88      0.00
    5   11   14      0.00      0.00
    5   11   12      0.84      0.00
    5   11   10      1.01      0.00
    5   11    8     -1.40      0.00
    5   11    6     -1.56      0.00
    5   11    4      1.25      0.00
    5   11    2     -0.09      0.00
    5   11    0     -0.28      0.00
    5   10   35      0.25      0.00
    5   10   33     -0.48      0.00
    5   10   31     -0.50      0.00
    5   10   29      1.26      0.00
    5   10   27      0.99      0.00
    5   10   25      0.70      0.00
    5   10   23     -0.57      0.00
    5   10   21     -0.78      0.00
    5   10   19     -2.20      0.00
    5   10   17      0.50      0.00
    5   10   15      1.49      0.00
    5   10   13      1.98      0.00
    5   10   11     -1.11      0.00
    5   10    9     -0.24      0.00
    5   10    7     -1.72      0.00
    5   10    5     -0.22      0.00
    5   10    3      1.05      0.00
    5   10    1     -0.03      0.00
    5    9   36      4.66      0.00
    5    9   34     -2.65      0.00
    5    9   32     -1.02      0.00
    5    9   30     -0.63      0.00
    5    9   28     -0.21      0.00
    5    9   26      0.64      0.00
    5    9   24      2.04      0.00
    5    9   22      2.27      0.00
    5    9   20     -1.17      0.00
    5    9   18     -3.72      0.00
    5    9   16     -2.92      0.00
    5    9   14      2.93      0.00
    5    9   12      3.14      0.00
    5    9   10      3.42      0.00
    5    9    8     -1.58      0.00
    5    9    6     -7.17      0.00
    5    9    4      0.07      0.00
    5    9    2      2.82      0.00
    5    9    0      1.62      0.00
    5    8   37     -3.86      0.00
    5    8   35      0.61      0.00
    5    8   33      0.76      0.00
    5    8   31      0.10      0.00
    5    8   29      1.09      0.00
    5    8   27      0.13      0.00
    5    8   25     -1.40      0.00
    5    8   23     -2.23      0.00
    5    8   21     -0.01      0.00
    5    8   19      2.19      0.00
    5    8   17      3.55      0.00
    5    8   15      0.46      0.00
    5    8   13     -1.76      0.00
    5    8   11     -4.80      0.00
    5    8    9      2.20      0.00
    5    8    7      1.28      0.00
    5    8    5     -0.17      0.00
    5    8    3     -0.45      0.00
    5    8    1      0.35      0.00
    5    7   36     -0.01      0.00
    5    7   34      0.78      0.00
    5    7   32     -2.40      0.00
    5    7   30     -1.58      0.00
    5    7   28     -1.04      0.00
    5    7   26      1.91      0.00
    5    7   24      1.23      0.00
    5    7   22      1.15      0.00
    5    7   20     -1.19      0.00
    5    7   18     -0.44      0.00
    5    7   16     -2.17      0.00
    5    7   14      1.49      0.00
    5    7   12      3.60      0.00
    5    7   10      1.30      0.00
    5    7    8     -3.51      0.00
    5    7    6     -3.37      0.00
    5    7    4      1.86      0.00
    5    7    2      2.46      0.00
    5    7    0     -2.12      0.00
    5    6   37      0.92      0.00
    5    6   35      0.80      0.00
    5    6   33      1.91      0.00
    5    6   31      0.87      0.00
    5    6   29     -0.37      0.00
    5    6   27     -0.99      0.00
    5    6   25     -1.99      0.00
    5    6   23     -0.94      0.00
    5    6   21     -0.75      0.00
    5    6   19      0.88      0.00
    5    6   17      4.39      0.00
    5    6   15      0.55      0.00
    5    6   13      0.91      0.00
    5    6   11     -3.81      0.00
    5    6    9      1.92      0.00
    5    6    7     -1.34      0.00
    5    6    5     -3.27      0.00
    5    6    3      2.67      0.00
    5    6    1      1.08      0.00
    5    5   38     -4.69      0.00
    5    5   36      0.45      0.00
    5    5   34     -0.18      0.00
    5    5   32      1.64      0.00
    5    5   30      1.99      0.00
    5    5   28     -1.08      0.00
    5    5   26     -1.97      0.00
    5    5   24      0.23      0.00
    5    5   22      3.45      0.00
    5    5   20      0.51      0.00
    5    5   18     -1.67      0.00
    5    5   16     -5.21      0.00
    5    5   14     -0.57      0.00
    5    5   12      6.66      0.00
    5    5   10      1.57      0.00
    5    5    8     -5.30      0.00
    5    5    6      8.11      0.00
    5    5    4     -0.46      0.00
    5    5    2     -7.06      0.00
    5    5    0      4.87      0.00
    3    5   38     -5.41      0.00
    1    5   38     -1.40      0.00
    6   22    8      3.30      0.00
    6   22    6     -4.05      0.00
    6   22    4     -2.40      0.00
    6   22    2      2.94      0.00
    6   22    0     -1.26      0.00
    6   21   13     -1.72      0.00
    6   21   11      0.36      0.00
    6   21    9     -0.03      0.00
    6   21    7      0.96      0.00
    6   21    5     -0.23      0.00
    6   21    3      0.86      0.00
    6   21    1     -1.34      0.00
    6   20   16      2.32      0.00
    6   20   14     -4.78      0.00
    6   20   12      1.52      0.00
    6   20   10      0.48      0.00
    6   20    8      1.08      0.00
    6   20    6     -0.25      0.00
    6   20    4     -1.44      0.00
    6   20    2      1.07      0.00
    6   20    0     -1.18      0.00
    6   19   19     -4.67      0.00
    6   19   17      3.72      0.00
    6   19   15      4.31      0.00
    6   19   13     -3.54      0.00
    6   19   11      1.36      0.00
    6   19    9     -2.55      0.00
    6   19    7      0.19      0.00
    6   19    5     -0.86      0.00
    6   19    3      1.59      0.00
    6   19    1     -0.32      0.00
    6   18   22     -1.26      0.00
    6   18   20      1.76      0.00
    6   18   18     -1.04      0.00
    6   18   16      0.29      0.00
    6   18   14     -1.33      0.00
    6   18   12      1.58      0.00
    6   18   10     -0.30      0.00
    6   18    8      0.31      0.00
    6   18    6     -1.53      0.00
    6   18    4     -0.75      0.00
    6   18    2      0.86      0.00
    6   18    0      0.47      0.00
    6   17   23     -2.53      0.00
    6   17   21     -1.63      0.00
    6   17   19      0.14      0.00
    6   17   17     -1.00      0.00
    6   17   15      0.98      0.00
    6   17   13      0.97      0.00
    6   17   11      0.66      0.00
    6   17    9     -0.84      0.00
    6   17    7     -0.88      0.00
    6   17    5      0.06      0.00
    6   17    3     -1.71      0.00
    6   17    1      1.56      0.00
    6   16   26     -1.75      0.00
    6   16   24      0.76      0.00
    6   16   22     -0.43      0.00
    6   16   20      0.87      0.00
    6   16   18     -1.05      0.00
    6   16   16      1.01      0.00
    6   16   14     -0.54      0.00
    6   16   12      0.56      0.00
    6   16   10      0.40      0.00
    6   16    8     -2.59      0.00
    6   16    6      0.73      0.00
    6   16    4      1.02      0.00
    6   16    2     -0.90      0.00
    6   16    0      0.29      0.00
    6   15   27      2.85      0.00
    6   15   25      1.37      0.00
    6   15   23     -2.46      0.00
    6   15   21     -0.10      0.00
    6   15   19      0.39      0.00
    6   15   17      0.28      0.00
    6   15   15      0.04      0.00
    6   15   13     -1.57      0.00
    6   15   11     -0.72      0.00
    6   15    9      1.46      0.00
    6   15    7      1.12      0.00
    6   15    5      0.58      0.00
    6   15    3     -0.27      0.00
    6   15    1     -1.68      0.00
    6   14   30     -7.62      0.00
    6   14   28      0.10      0.00
    6   14   26      1.78      0.00
    6   14   24     -0.28      0.00
    6   14   22      1.12      0.00
    6   14   20     -0.62      0.00
    6   14   18     -1.57      0.00
    6   14   16      2.14      0.00
    6   14   14     -0.12      0.00
    6   14   12     -1.08      0.00
    6   14   10     -0.03      0.00
    6   14    8      0.51      0.00
    6   14    6      0.18      0.00
    6   14    4     -1.70      0.00
    6   14    2      0.98      0.00
    6   14    0     -0.30      0.00
    6   13   31     -1.87      0.00
    6   13   29     -1.52      0.00
    6   13   27      2.56      0.00
    6   13   25      1.52      0.00
    6   13   23     -1.46      0.00
    6   13   21     -0.53      0.00
    6   13   19     -1.62      0.00
    6   13   17     -1.04      0.00
    6   13   15      1.47      0.00
    6   13   13      2.05      0.00
    6   13   11      0.27      0.00
    6   13    9      0.13      0.00
    6   13    7     -1.31      0.00
    6   13    5     -2.27      0.00
    6   13    3     -0.74      0.00
    6   13    1      2.26      0.00
    6   12   32      2.30      0.00
    6   12   30     -2.34      0.00
    6   12   28      0.91      0.00
    6   12   26      0.53      0.00
    6   12   24      0.10      0.00
    6   12   22     -0.43      0.00
    6   12   20     -1.78      0.00
    6   12   18     -1.12      0.00
    6   12   16      0.64      0.00
    6   12   14      3.29      0.00
    6   12   12      0.69      0.00
    6   12   10     -0.41      0.00
    6   12    8     -1.69      0.00
    6   12    6     -2.40      0.00
    6   12    4     -1.11      0.00
    6   12    2      1.18      0.00
    6   12    0      3.32      0.00
    6   11   33     -1.71      0.00
    6   11   31      1.39      0.00
    6   11   29     -0.63      0.00
    6   11   27      0.61      0.00
    6   11   25      0.57      0.00
    6   11   23     -0.43      0.00
    6   11   21      0.10      0.00
    6   11   19     -0.57      0.00
    6   11   17     -0.88      0.00
    6   11   15      0.03      0.00
    6   11   13      1.84      0.00
    6   11   11      0.28      0.00
    6   11    9     -0.74      0.00
    6   11    7     -0.84      0.00
    6   11    5     -0.53      0.00
    6   11    3     -0.60      0.00
    6   11    1      1.23      0.00
    6   10   34      0.01      0.00
    6   10   32      0.28      0.00
    6   10   30      0.46      0.00
    6   10   28      0.60      0.00
    6   10   26      0.26      0.00
    6   10   24     -2.13      0.00
    6   10   22     -0.01      0.00
    6   10   20      1.14      0.00
    6   10   18      3.10      0.00
    6   10   16     -0.66      0.00
    6   10   14     -2.08      0.00
    6   10   12     -2.52      0.00
    6   10   10     -0.33      0.00
    6   10    8      2.24      0.00
    6   10    6      2.33      0.00
    6   10    4      0.28      0.00
    6   10    2     -1.99      0.00
    6   10    0     -0.79      0.00
    6    9   35     -2.45      0.00
    6    9   33      0.27      0.00
    6    9   31     -0.49      0.00
    6    9   29     -0.72      0.00
    6    9   27     -0.90      0.00
    6    9   25     -0.39      0.00
    6    9   23      1.04      0.00
    6    9   21      1.31      0.00
    6    9   19      1.08      0.00
    6    9   17      1.76      0.00
    6    9   15     -2.34      0.00
    6    9   13     -1.52      0.00
    6    9   11     -2.66      0.00
    6    9    9      0.57      0.00
    6    9    7      4.34      0.00
    6    9    5     -0.36      0.00
    6    9    3      2.36      0.00
    6    9    1     -3.77      0.00
    6    8   36      1.11      0.00
    6    8   34     -2.52      0.00
    6    8   32      1.33      0.00
    6    8   30     -0.76      0.00
    6    8   28      0.15      0.00
    6    8   26      0.46      0.00
    6    8   24     -0.56      0.00
    6    8   22      1.61      0.00
    6    8   20     -0.70      0.00
    6    8   18      0.19      0.00
    6    8   16      1.47      0.00
    6    8   14     -2.08      0.00
    6    8   12     -0.28      0.00
    6    8   10     -1.64      0.00
    6    8    8      2.72      0.00
    6    8    6      1.94      0.00
    6    8    4     -0.76      0.00
    6    8    2     -2.71      0.00
    6    8    0      2.25      0.00
    6    7   37      2.83      0.00
    6    7   35      0.14      0.00
    6    7   33     -1.11      0.00
    6    7   31     -1.72      0.00
    6    7   29     -0.85      0.00
    6    7   27     -0.38      0.00
    6    7   25      1.56      0.00
    6    7   23      2.51      0.00
    6    7   21     -0.09      0.00
    6    7   19     -1.50      0.00
    6    7   17     -1.57      0.00
    6    7   15     -1.43      0.00
    6    7   13      3.37      0.00
    6    7   11      2.19      0.00
    6    7    9      1.09      0.00
    6    7    7     -3.56      0.00
    6    7    5     -3.82      0.00
    6    7    3      2.36      0.00
    6    7    1      1.47      0.00
    6    6   38     -1.49      0.00
    6    6   36      5.69      0.00
    6    6   34     -2.20      0.00
    6    6   32      0.21      0.00
    6    6   30     -0.13      0.00
    6    6   28     -0.42      0.00
    6    6   26      0.39      0.00
    6    6   24     -1.94      0.00
    6    6   22      1.09      0.00
    6    6   20     -0.07      0.00
    6    6   18      1.03      0.00
    6    6   16      1.18      0.00
    6    6   14     -1.06      0.00
    6    6   12     -0.51      0.00
    6    6   10      0.59      0.00
    6    6    8      6.29      0.00
    6    6    6     -7.06      0.00
    6    6    4     -4.62      0.00
    6    6    2     -0.13      0.00
    6    6    0     11.37      0.00
    4    6   38     -1.89      0.00
    2    6   38     -1.15      0.00
    0    6   38      2.36      0.00
    7   22    3     -1.99      0.00
    7   22    1      4.12      0.00
    7   22    5     -4.30      0.00
    7   21   10      0.16      0.00
    7   21    8     -1.44      0.00
    7   21    6      1.81      0.00
    7   21    4     -1.13      0.00
    7   21    2      0.06      0.00
    7   21    0      0.60      0.00
    7   20   13      0.66      0.00
    7   20   11      2.74      0.00
    7   20    9     -2.82      0.00
    7   20    7     -0.36      0.00
    7   20    5      0.30      0.00
    7   20    3      1.17      0.00
    7   20    1     -0.88      0.00
    7   19   16      3.16      0.00
    7   19   14      1.72      0.00
    7   19   12     -0.64      0.00
    7   19   10     -1.95      0.00
    7   19    8      0.42      0.00
    7   19    6     -1.04      0.00
    7   19    4     -0.72      0.00
    7   19    2      1.23      0.00
    7   19    0      0.63      0.00
    7   18   19     -0.19      0.00
    7   18   17      0.03      0.00
    7   18   15      0.56      0.00
    7   18   13     -1.16      0.00
    7   18   11     -0.07      0.00
    7   18    9     -0.94      0.00
    7   18    7      1.06      0.00
    7   18    5      0.44      0.00
    7   18    3     -0.26      0.00
    7   18    1     -0.39      0.00
    7   17   22     -1.13      0.00
    7   17   20     -1.09      0.00
    7   17   18      0.50      0.00
    7   17   16      1.00      0.00
    7   17   14      0.61      0.00
    7   17   12     -0.40      0.00
    7   17   10     -1.67      0.00
    7   17    8      0.18      0.00
    7   17    6      0.15      0.00
    7   17    4      0.01      0.00
    7   17    2      0.32      0.00
    7   17    0     -0.36      0.00
    7   16   23     -2.50      0.00
    7   16   21     -0.52      0.00
    7   16   19     -0.58      0.00
    7   16   17      2.20      0.00
    7   16   15      0.49      0.00
    7   16   13     -0.66      0.00
    7   16   11     -0.53      0.00
    7   16    9     -1.49      0.00
    7   16    7      1.22      0.00
    7   16    5     -0.05      0.00
    7   16    3      0.01      0.00
    7   16    1     -0.18      0.00
    7   15   26     -1.63      0.00
    7   15   24      1.05      0.00
    7   15   22      0.63      0.00
    7   15   20      0.98      0.00
    7   15   18     -3.45      0.00
    7   15   16     -0.46      0.00
    7   15   14      2.37      0.00
    7   15   12      1.36      0.00
    7   15   10      0.03      0.00
    7   15    8     -0.80      0.00
    7   15    6     -2.46      0.00
    7   15    4     -0.83      0.00
    7   15    2      1.33      0.00
    7   15    0      1.52      0.00
    7   14   27      0.00      0.00
    7   14   25      0.79      0.00
    7   14   23      1.16      0.00
    7   14   21     -0.02      0.00
    7   14   19     -1.28      0.00
    7   14   17      0.11      0.00
    7   14   15      0.02      0.00
    7   14   13      1.93      0.00
    7   14   11      0.31      0.00
    7   14    9     -3.67      0.00
    7   14    7      0.64      0.00
    7   14    5      1.73      0.00
    7   14    3     -0.31      0.00
    7   14    1     -0.51      0.00
    7   13   28     -2.76      0.00
    7   13   26      1.17      0.00
    7   13   24     -1.65      0.00
    7   13   22      0.57      0.00
    7   13   20      0.52      0.00
    7   13   18      2.64      0.00
    7   13   16     -1.69      0.00
    7   13   14     -1.28      0.00
    7   13   12     -1.78      0.00
    7   13   10      2.49      0.00
    7   13    8     -0.75      0.00
    7   13    6      1.32      0.00
    7   13    4      0.09      0.00
    7   13    2     -1.66      0.00
    7   13    0      0.91      0.00
    7   12   31     -0.99      0.00
    7   12   29      1.88      0.00
    7   12   27     -3.75      0.00
    7   12   25     -1.53      0.00
    7   12   23     -0.13      0.00
    7   12   21      1.47      0.00
    7   12   19      2.43      0.00
    7   12   17      2.22      0.00
    7   12   15     -2.40      0.00
    7   12   13     -4.06      0.00
    7   12   11     -0.07      0.00
    7   12    9      0.89      0.00
    7   12    7      3.27      0.00
    7   12    5      0.33      0.00
    7   12    3     -0.53      0.00
    7   12    1     -1.56      0.00
    7   11   32      3.28      0.00
    7   11   30     -2.05      0.00
    7   11   28      0.81      0.00
    7   11   26     -0.46      0.00
    7   11   24     -2.84      0.00
    7   11   22      1.84      0.00
    7   11   20      0.34      0.00
    7   11   18      1.95      0.00
    7   11   16     -0.02      0.00
    7   11   14     -1.43      0.00
    7   11   12     -2.73      0.00
    7   11   10      0.47      0.00
    7   11    8      1.63      0.00
    7   11    6      3.13      0.00
    7   11    4     -3.60      0.00
    7   11    2      0.74      0.00
    7   11    0     -0.48      0.00
    7   10   33      1.38      0.00
    7   10   31     -1.12      0.00
    7   10   29      1.24      0.00
    7   10   27      0.38      0.00
    7   10   25      1.55      0.00
    7   10   23     -0.58      0.00
    7   10   21     -0.77      0.00
    7   10   19     -1.20      0.00
    7   10   17     -2.04      0.00
    7   10   15     -0.12      0.00
    7   10   13      3.59      0.00
    7   10   11      3.04      0.00
    7   10    9     -0.31      0.00
    7   10    7     -4.60      0.00
    7   10    5     -4.13      0.00
    7   10    3      3.98      0.00
    7   10    1      1.04      0.00
    7    9   34     -1.31      0.00
    7    9   32      2.02      0.00
    7    9   30      0.59      0.00
    7    9   28      0.58      0.00
    7    9   26     -0.60      0.00
    7    9   24     -0.91      0.00
    7    9   22      0.75      0.00
    7    9   20      0.05      0.00
    7    9   18      0.64      0.00
    7    9   16     -1.02      0.00
    7    9   14      0.93      0.00
    7    9   12     -0.36      0.00
    7    9   10     -1.00      0.00
    7    9    8      1.40      0.00
    7    9    6     -0.80      0.00
    7    9    4     -0.93      0.00
    7    9    2      0.03      0.00
    7    9    0      1.86      0.00
    7    8   35     -2.01      0.00
    7    8   33      0.76      0.00
    7    8   31     -0.12      0.00
    7    8   29      1.88      0.00
    7    8   27     -0.81      0.00
    7    8   25     -0.26      0.00
    7    8   23      0.60      0.00
    7    8   21      0.35      0.00
    7    8   19      0.74      0.00
    7    8   17     -1.30      0.00
    7    8   15     -0.76      0.00
    7    8   13      0.82      0.00
    7    8   11      0.09      0.00
    7    8    9      1.12      0.00
    7    8    7     -0.79      0.00
    7    8    5     -1.01      0.00
    7    8    3     -0.21      0.00
    7    8    1      0.85      0.00
    7    7   36     -5.66      0.00
    7    7   34      3.11      0.00
    7    7   32      0.94      0.00
    7    7   30     -0.38      0.00
    7    7   28     -0.54      0.00
    7    7   26     -1.08      0.00
    7    7   24     -2.63      0.00
    7    7   22      0.06      0.00
    7    7   20      1.69      0.00
    7    7   18      6.79      0.00
    7    7   16     -0.51      0.00
    7    7   14     -2.00      0.00
    7    7   12     -4.10      0.00
    7    7   10     -2.69      0.00
    7    7    8      2.82      0.00
    7    7    6      0.64      0.00
    7    7    4      4.54      0.00
    7    7    2      0.91      0.00
    7    7    0     -9.03      0.00
    5    7   38      3.83      0.00
    3    7   38      4.53      0.00
    2    7   37     -3.39      0.00
    1    7   38      3.74      0.00
    0    7   37     -3.54      0.00
    8   21    5     -2.30      0.00
    8   21    3     -0.55      0.00
    8   21    1      1.23      0.00
    8   21    7     -0.70      0.00
    8   21    9      5.96      0.00
    8   20   10     -2.00      0.00
    8   20    8     -1.67      0.00
    8   20    6      1.94      0.00
    8   20    4      0.23      0.00
    8   20    2     -0.32      0.00
    8   20    0     -0.20      0.00
    8   20   12      1.33      0.00
    8   19   13     -0.93      0.00
    8   19   11     -1.54      0.00
    8   19    9     -0.19      0.00
    8   19    7      1.20      0.00
    8   19    5     -1.41      0.00
    8   19    3      1.47      0.00
    8   19    1     -0.49      0.00
    8   19   15      2.52      0.00
    8   18   18     -1.57      0.00
    8   18   16      0.43      0.00
    8   18   14      0.39      0.00
    8   18   12     -0.66      0.00
    8   18   10      1.14      0.00
    8   18    8     -1.24      0.00
    8   18    6     -0.30      0.00
    8   18    4     -0.26      0.00
    8   18    2      0.74      0.00
    8   18    0      0.07      0.00
    8   17   19      0.81      0.00
    8   17   17     -2.10      0.00
    8   17   15     -0.27      0.00
    8   17   13      1.30      0.00
    8   17   11     -0.02      0.00
    8   17    9     -0.79      0.00
    8   17    7     -0.27      0.00
    8   17    5     -1.04      0.00
    8   17    3      1.04      0.00
    8   17    1      0.25      0.00
    8   16   22     -1.16      0.00
    8   16   20      1.55      0.00
    8   16   18      1.09      0.00
    8   16   16      0.34      0.00
    8   16   14     -1.32      0.00
    8   16   12     -2.55      0.00
    8   16   10      0.30      0.00
    8   16    8      0.37      0.00
    8   16    6      2.74      0.00
    8   16    4      0.98      0.00
    8   16    2     -2.11      0.00
    8   16    0     -0.85      0.00
    8   15   23     -0.47      0.00
    8   15   21      2.59      0.00
    8   15   19      1.01      0.00
    8   15   17      0.36      0.00
    8   15   15     -0.27      0.00
    8   15   13     -2.42      0.00
    8   15   11     -0.85      0.00
    8   15    9      0.50      0.00
    8   15    7      0.94      0.00
    8   15    5      0.69      0.00
    8   15    3      2.75      0.00
    8   15    1     -3.28      0.00
    8   14   26      2.19      0.00
    8   14   24     -1.52      0.00
    8   14   22      0.82      0.00
    8   14   20     -0.21      0.00
    8   14   18      1.33      0.00
    8   14   16     -0.42      0.00
    8   14   14     -1.04      0.00
    8   14   12     -0.87      0.00
    8   14   10     -1.10      0.00
    8   14    8      2.16      0.00
    8   14    6      1.53      0.00
    8   14    4     -0.11      0.00
    8   14    2     -1.08      0.00
    8   14    0     -0.96      0.00
    8   13   27      0.60      0.00
    8   13   25     -0.68      0.00
    8   13   23      0.41      0.00
    8   13   21     -1.09      0.00
    8   13   19     -1.35      0.00
    8   13   17      0.05      0.00
    8   13   15      0.98      0.00
    8   13   13      1.24      0.00
    8   13   11      1.20      0.00
    8   13    9      0.64      0.00
    8   13    7     -2.57      0.00
    8   13    5     -4.42      0.00
    8   13    3      1.34      0.00
    8   13    1      2.91      0.00
    8   12   28     -0.31      0.00
    8   12   26      0.76      0.00
    8   12   24      2.42      0.00
    8   12   22      1.11      0.00
    8   12   20     -2.61      0.00
    8   12   18     -3.31      0.00
    8   12   16     -0.69      0.00
    8   12   14      2.86      0.00
    8   12   12      3.70      0.00
    8   12   10      0.69      0.00
    8   12    8     -3.18      0.00
    8   12    6     -3.38      0.00
    8   12    4      0.36      0.00
    8   12    2      1.06      0.00
    8   12    0      2.74      0.00
    8   11   31     -0.70      0.00
    8   11   29      2.49      0.00
    8   11   27     -1.58      0.00
    8   11   25      0.14      0.00
    8   11   23      0.98      0.00
    8   11   21     -1.48      0.00
    8   11   19      0.18      0.00
    8   11   17     -0.32      0.00
    8   11   15      0.18      0.00
    8   11   13      1.50      0.00
    8   11   11     -1.60      0.00
    8   11    9      0.30      0.00
    8   11    7     -0.02      0.00
    8   11    5     -0.23      0.00
    8   11    3     -0.17      0.00
    8   11    1      0.43      0.00
    8   10   32     -0.52      0.00
    8   10   30      1.22      0.00
    8   10   28      0.12      0.00
    8   10   26     -0.91      0.00
    8   10   24      0.43      0.00
    8   10   22      0.81      0.00
    8   10   20      0.47      0.00
    8   10   18      0.45      0.00
    8   10   16     -1.42      0.00
    8   10   14     -1.29      0.00
    8   10   12      0.38      0.00
    8   10   10     -0.45      0.00
    8   10    8      0.79      0.00
    8   10    6      1.01      0.00
    8   10    4      2.13      0.00
    8   10    2     -2.32      0.00
    8   10    0     -0.81      0.00
    8    9   33      1.21      0.00
    8    9   31     -0.22      0.00
    8    9   29      1.55      0.00
    8    9   27     -0.24      0.00
    8    9   25     -2.27      0.00
    8    9   23      1.43      0.00
    8    9   21      0.27      0.00
    8    9   19      1.26      0.00
    8    9   17      1.40      0.00
    8    9   15     -1.05      0.00
    8    9   13     -2.44      0.00
    8    9   11     -3.12      0.00
    8    9    9      0.99      0.00
    8    9    7      4.90      0.00
    8    9    5      1.21      0.00
    8    9    3     -1.47      0.00
    8    9    1     -1.72      0.00
    8    8   34     -2.51      0.00
    8    8   32     -0.09      0.00
    8    8   30     -1.35      0.00
    8    8   28     -0.46      0.00
    8    8   26      1.22      0.00
    8    8   24      1.94      0.00
    8    8   22      2.68      0.00
    8    8   20     -1.74      0.00
    8    8   18     -2.74      0.00
    8    8   16     -0.54      0.00
    8    8   14     -0.81      0.00
    8    8   12      2.72      0.00
    8    8   10      0.79      0.00
    8    8    8      0.35      0.00
    8    8    6     -2.65      0.00
    8    8    4      0.41      0.00
    8    8    2      2.34      0.00
    8    8    0     -3.40      0.00
    3    8   37     -0.44      0.00
    2    8   38     -5.26      0.00
    1    8   37      6.00      0.00
    0    8   38     -0.15      0.00
    0    8   36      2.45      0.00
    9   21    2      0.39      0.00
    9   21    4      0.90      0.00
    9   21    6     -0.02      0.00
    9   21    8     -1.10      0.00
    9   21   10      4.60      0.00
    9   20    7      0.21      0.00
    9   20    5      2.03      0.00
    9   20    3      1.40      0.00
    9   20    1     -1.47      0.00
    9   20    9     -3.98      0.00
    9   20   11      0.77      0.00
    9   20   13     -0.26      0.00
    9   19   10      0.63      0.00
    9   19    8      1.42      0.00
    9   19    6     -0.50      0.00
    9   19    4      0.64      0.00
    9   19    2      0.33      0.00
    9   19    0     -1.49      0.00
    9   19   12     -4.34      0.00
    9   19   14      2.74      0.00
    9   18   15      1.66      0.00
    9   18   13     -0.46      0.00
    9   18   11     -1.86      0.00
    9   18    9      1.47      0.00
    9   18    7     -1.51      0.00
    9   18    5      0.56      0.00
    9   18    3     -0.82      0.00
    9   18    1      1.31      0.00
    9   18   17     -0.66      0.00
    9   17   18      0.43      0.00
    9   17   16     -2.00      0.00
    9   17   14      1.70      0.00
    9   17   12     -1.27      0.00
    9   17   10      0.65      0.00
    9   17    8     -1.61      0.00
    9   17    6      1.69      0.00
    9   17    4     -0.01      0.00
    9   17    2     -0.49      0.00
    9   17    0      0.48      0.00
    9   17   20      0.15      0.00
    9   16   19     -0.20      0.00
    9   16   17     -1.79      0.00
    9   16   15      0.29      0.00
    9   16   13      0.40      0.00
    9   16   11      0.23      0.00
    9   16    9      1.00      0.00
    9   16    7     -1.26      0.00
    9   16    5     -1.04      0.00
    9   16    3     -0.33      0.00
    9   16    1      1.50      0.00
    9   16   21      0.40      0.00
    9   15   22      2.05      0.00
    9   15   20      0.74      0.00
    9   15   18     -3.68      0.00
    9   15   16      0.18      0.00
    9   15   14      1.71      0.00
    9   15   12      0.43      0.00
    9   15   10     -0.22      0.00
    9   15    8      0.23      0.00
    9   15    6     -1.56      0.00
    9   15    4     -1.55      0.00
    9   15    2      1.22      0.00
    9   15    0      2.19      0.00
    9   14   23      3.07      0.00
    9   14   21     -0.01      0.00
    9   14   19     -1.11      0.00
    9   14   17     -2.38      0.00
    9   14   15     -0.19      0.00
    9   14   13      1.53      0.00
    9   14   11     -0.86      0.00
    9   14    9      0.50      0.00
    9   14    7      0.47      0.00
    9   14    5      0.91      0.00
    9   14    3     -0.47      0.00
    9   14    1     -0.64      0.00
    9   14   25      2.08      0.00
    9   13   26     -2.83      0.00
    9   13   24      2.17      0.00
    9   13   22     -0.52      0.00
    9   13   20      0.51      0.00
    9   13   18      0.53      0.00
    9   13   16      0.41      0.00
    9   13   14     -0.26      0.00
    9   13   12     -1.03      0.00
    9   13   10     -0.82      0.00
    9   13    8      0.05      0.00
    9   13    6      1.33      0.00
    9   13    4      1.46      0.00
    9   13    2     -1.05      0.00
    9   13    0     -1.06      0.00
    9   12   27      0.56      0.00
    9   12   25     -1.34      0.00
    9   12   23      0.80      0.00
    9   12   21      1.89      0.00
    9   12   19      0.95      0.00
    9   12   17      0.84      0.00
    9   12   15     -3.01      0.00
    9   12   13     -2.38      0.00
    9   12   11     -0.65      0.00
    9   12    9      2.64      0.00
    9   12    7      2.21      0.00
    9   12    5      1.61      0.00
    9   12    3     -2.16      0.00
    9   12    1     -0.93      0.00
    9   11   28      1.73      0.00
    9   11   26     -0.44      0.00
    9   11   24     -0.83      0.00
    9   11   22     -0.61      0.00
    9   11   20     -1.49      0.00
    9   11   18      0.76      0.00
    9   11   16      0.55      0.00
    9   11   14      1.11      0.00
    9   11   12     -0.97      0.00
    9   11   10      0.88      0.00
    9   11    8      0.21      0.00
    9   11    6     -1.53      0.00
    9   11    4     -1.96      0.00
    9   11    2      1.77      0.00
    9   11    0      1.55      0.00
    9   10   29     -0.23      0.00
    9   10   27      4.27      0.00
    9   10   25     -0.49      0.00
    9   10   23     -0.55      0.00
    9   10   21     -0.84      0.00
    9   10   19     -2.40      0.00
    9   10   17      0.31      0.00
    9   10   15      0.38      0.00
    9   10   13      1.98      0.00
    9   10   11      0.62      0.00
    9   10    9     -0.13      0.00
    9   10    7     -2.04      0.00
    9   10    5     -0.86      0.00
    9   10    3      0.78      0.00
    9   10    1      0.81      0.00
    9    9   30      2.09      0.00
    9    9   28      1.99      0.00
    9    9   26      2.49      0.00
    9    9   24      0.28      0.00
    9    9   22     -1.64      0.00
    9    9   20     -3.36      0.00
    9    9   18     -2.58      0.00
    9    9   16      0.85      0.00
    9    9   14      4.34      0.00
    9    9   12      2.02      0.00
    9    9   10      0.61      0.00
    9    9    8     -1.74      0.00
    9    9    6     -6.33      0.00
    9    9    4      0.58      0.00
    9    9    2      2.40      0.00
    9    9    0      2.81      0.00
    2    9   37      0.15      0.00
    1    9   36      1.55      0.00
    0    9   37      0.90      0.00
    9    9   32     -1.63      0.00
   10   20    0      1.98      0.00
   10   20    2     -2.29      0.00
   10   20    4      1.59      0.00
   10   20    6      1.28      0.00
   10   20    8     -0.39      0.00
   10   20   10     -2.35      0.00
   10   20   12      2.17      0.00
   10   19    7      1.40      0.00
   10   19    5     -0.04      0.00
   10   19    3      2.49      0.00
   10   19    1     -2.05      0.00
   10   19    9     -3.10      0.00
   10   19   11      4.05      0.00
   10   19   13     -5.15      0.00
   10   19   15      2.60      0.00
   10   18   12      1.61      0.00
   10   18   10      0.30      0.00
   10   18    8      0.40      0.00
   10   18    6     -1.48      0.00
   10   18    4      0.57      0.00
   10   18    2     -0.31      0.00
   10   18    0      2.00      0.00
   10   18   14     -4.51      0.00
   10   18   16      0.08      0.00
   10   18   18      2.78      0.00
   10   17   15      0.07      0.00
   10   17   13     -2.49      0.00
   10   17   11      1.22      0.00
   10   17    9     -0.90      0.00
   10   17    7      2.19      0.00
   10   17    5     -0.82      0.00
   10   17    3      0.04      0.00
   10   17    1      0.00      0.00
   10   17   17     -1.71      0.00
   10   17   19      4.50      0.00
   10   16   18     -0.26      0.00
   10   16   16      0.20      0.00
   10   16   14     -1.86      0.00
   10   16   12      0.36      0.00
   10   16   10     -0.48      0.00
   10   16    8     -1.22      0.00
   10   16    6      1.59      0.00
   10   16    4      2.58      0.00
   10   16    2     -0.61      0.00
   10   16    0     -2.93      0.00
   10   16   20      2.50      0.00
   10   15   19      3.86      0.00
   10   15   17      0.71      0.00
   10   15   15      0.07      0.00
   10   15   13     -2.91      0.00
   10   15   11     -1.38      0.00
   10   15    9      0.05      0.00
   10   15    7      2.01      0.00
   10   15    5      2.07      0.00
   10   15    3      0.14      0.00
   10   15    1     -1.95      0.00
   10   15   21     -1.30      0.00
   10   15   23     -0.89      0.00
   10   14   22     -0.39      0.00
   10   14   20      0.14      0.00
   10   14   18      0.28      0.00
   10   14   16      0.36      0.00
   10   14   14     -0.82      0.00
   10   14   12     -0.66      0.00
   10   14   10      1.09      0.00
   10   14    8     -1.31      0.00
   10   14    6      0.99      0.00
   10   14    4      1.93      0.00
   10   14    2     -1.28      0.00
   10   14    0     -0.71      0.00
   10   14   24     -0.31      0.00
   10   13   23      3.77      0.00
   10   13   21     -1.61      0.00
   10   13   19     -2.51      0.00
   10   13   17      0.05      0.00
   10   13   15      2.48      0.00
   10   13   13      1.37      0.00
   10   13   11      1.11      0.00
   10   13    9     -1.12      0.00
   10   13    7     -2.56      0.00
   10   13    5     -1.17      0.00
   10   13    3     -1.10      0.00
   10   13    1      3.55      0.00
   10   13   25     -4.14      0.00
   10   12   26      1.53      0.00
   10   12   24     -1.17      0.00
   10   12   22      1.46      0.00
   10   12   20     -0.40      0.00
   10   12   18     -0.73      0.00
   10   12   16     -1.27      0.00
   10   12   14     -0.28      0.00
   10   12   12      0.26      0.00
   10   12   10      3.07      0.00
   10   12    8     -0.35      0.00
   10   12    6     -1.74      0.00
   10   12    4     -0.75      0.00
   10   12    2      1.19      0.00
   10   12    0      0.04      0.00
   10   11   27     -0.49      0.00
   10   11   25     -0.21      0.00
   10   11   23      0.00      0.00
   10   11   21     -1.37      0.00
   10   11   19     -1.02      0.00
   10   11   17      0.12      0.00
   10   11   15      0.42      0.00
   10   11   13      2.54      0.00
   10   11   11     -0.77      0.00
   10   11    9     -0.01      0.00
   10   11    7     -1.84      0.00
   10   11    5      0.00      0.00
   10   11    3      0.69      0.00
   10   11    1      0.46      0.00
   10   10   28      3.81      0.00
   10   10   26     -1.61      0.00
   10   10   24     -2.61      0.00
   10   10   22     -0.53      0.00
   10   10   20      2.05      0.00
   10   10   18      2.02      0.00
   10   10   16     -0.34      0.00
   10   10   14     -2.11      0.00
   10   10   12     -2.17      0.00
   10   10   10     -1.87      0.00
   10   10    8      2.40      0.00
   10   10    6      4.92      0.00
   10   10    4      1.63      0.00
   10   10    2     -2.84      0.00
   10   10    0     -3.75      0.00
    1   10   35     -0.06      0.00
    0   10   36      1.52      0.00
    2   10   36      1.02      0.00
    4   10   36      0.57      0.00
    9   10   31     -0.11      0.00
   10   10   30      1.59      0.00
   11   19    0     -3.74      0.00
   11   19    2      1.39      0.00
   11   19    4      1.94      0.00
   11   19    6      0.70      0.00
   11   19    8     -0.07      0.00
   11   19   10     -1.95      0.00
   11   19   12     -6.32      0.00
   11   19   14      7.21      0.00
   11   18    7      2.96      0.00
   11   18    5      1.84      0.00
   11   18    3     -0.79      0.00
   11   18    1     -1.10      0.00
   11   18    9      0.65      0.00
   11   18   11     -4.10      0.00
   11   18   13     -2.07      0.00
   11   18   15      1.13      0.00
   11   18   17      2.52      0.00
   11   17   12     -5.57      0.00
   11   17   10      0.85      0.00
   11   17    8     -1.02      0.00
   11   17    6      0.79      0.00
   11   17    4      0.79      0.00
   11   17    2      0.93      0.00
   11   17    0     -1.26      0.00
   11   17   14      2.33      0.00
   11   17   16      1.60      0.00
   11   17   18      2.40      0.00
   11   16   15      0.77      0.00
   11   16   13     -2.01      0.00
   11   16   11      0.82      0.00
   11   16    9     -1.62      0.00
   11   16    7      1.34      0.00
   11   16    5     -0.08      0.00
   11   16    3      0.35      0.00
   11   16    1      0.04      0.00
   11   16   17      0.96      0.00
   11   16   19     -1.10      0.00
   11   16   21      2.45      0.00
   11   15   16     -2.10      0.00
   11   15   14     -0.70      0.00
   11   15   12     -2.71      0.00
   11   15   10      0.23      0.00
   11   15    8      4.84      0.00
   11   15    6     -1.89      0.00
   11   15    4     -2.58      0.00
   11   15    2      0.84      0.00
   11   15    0      2.33      0.00
   11   15   18      3.66      0.00
   11   15   20      2.16      0.00
   11   15   22     -0.43      0.00
   11   14   19     -0.06      0.00
   11   14   17     -0.69      0.00
   11   14   15     -1.12      0.00
   11   14   13      0.25      0.00
   11   14   11     -0.58      0.00
   11   14    9     -0.57      0.00
   11   14    7      2.82      0.00
   11   14    5      0.97      0.00
   11   14    3     -0.24      0.00
   11   14    1     -1.51      0.00
   11   14   21      1.17      0.00
   11   14   23     -0.33      0.00
   11   13   22     -1.69      0.00
   11   13   18      1.31      0.00
   11   13   16     -0.02      0.00
   11   13   14     -1.19      0.00
   11   13   12     -0.56      0.00
   11   13   10     -0.74      0.00
   11   13    8      0.56      0.00
   11   13    6      2.16      0.00
   11   13    4     -0.08      0.00
   11   13    2      0.26      0.00
   11   13    0     -2.34      0.00
   11   13   20      1.54      0.00
   11   13   24      1.57      0.00
   11   12   23     -2.35      0.00
   11   12   21      0.78      0.00
   11   12   19      2.85      0.00
   11   12   17      1.16      0.00
   11   12   15     -4.32      0.00
   11   12   13     -0.72      0.00
   11   12   11     -0.37      0.00
   11   12    9      2.32      0.00
   11   12    7      1.37      0.00
   11   12    5      0.59      0.00
   11   12    3     -0.36      0.00
   11   12    1     -1.22      0.00
   11   12   25      1.55      0.00
   11   11   24      1.22      0.00
   11   11   22     -1.42      0.00
   11   11   20     -1.03      0.00
   11   11   18      0.92      0.00
   11   11   16      0.46      0.00
   11   11    8     -1.99      0.00
   11   11    6      1.69      0.00
   11   11    4     -2.36      0.00
   11   11    2     -0.10      0.00
   11   11    0      3.71      0.00
   11   11   10      0.83      0.00
   11   11   12     -0.19      0.00
   11   11   14      0.64      0.00
   11   11   26     -1.54      0.00
    2   11   35     -0.86      0.00
    9   11   30      1.45      0.00
   10   11   29      3.13      0.00
   11   11   28      0.63      0.00
   12   18    0      3.47      0.00
   12   18    2     -2.26      0.00
   12   18    4     -0.52      0.00
   12   18    6      0.74      0.00
   12   18    8      2.32      0.00
   12   18   10     -1.08      0.00
   12   18   12      0.86      0.00
   12   18   14     -1.52      0.00
   12   17    7     -1.72      0.00
   12   17    5     -0.50      0.00
   12   17    3      0.25      0.00
   12   17    1      2.18      0.00
   12   17    9     -2.52      0.00
   12   17   11      0.70      0.00
   12   17   13      3.52      0.00
   12   17   15     -0.73      0.00
   12   17   17     -3.00      0.00
   12   17   19      3.79      0.00
   12   16   10     -0.79      0.00
   12   16    8     -0.64      0.00
   12   16    6      2.14      0.00
   12   16    4     -0.14      0.00
   12   16    2     -0.57      0.00
   12   16    0     -0.21      0.00
   12   16   12      1.52      0.00
   12   16   14      0.83      0.00
   12   16   16     -2.90      0.00
   12   16   18     -2.27      0.00
   12   16   20      4.85      0.00
   12   15   11      0.28      0.00
   12   15    9      0.53      0.00
   12   15    7     -0.33      0.00
   12   15    5      0.64      0.00
   12   15    3      1.22      0.00
   12   15    1     -1.01      0.00
   12   15   13     -1.41      0.00
   12   15   15     -1.41      0.00
   12   15   17     -0.39      0.00
   12   15   19      5.65      0.00
   12   15   21      0.16      0.00
   12   14    8     -1.61      0.00
   12   14    6      1.12      0.00
   12   14    4      1.50      0.00
   12   14    2     -1.12      0.00
   12   14    0      0.35      0.00
   12   14   10     -0.46      0.00
   12   14   12      0.35      0.00
   12   14   14      0.67      0.00
   12   14   16      1.57      0.00
   12   14   18     -2.18      0.00
   12   14   20      0.96      0.00
   12   14   22     -1.26      0.00
   12   13    5     -0.20      0.00
   12   13    3     -0.34      0.00
   12   13    1      1.45      0.00
   12   13    7     -1.81      0.00
   12   13    9      0.47      0.00
   12   13   11      1.20      0.00
   12   13   13     -0.20      0.00
   12   13   15     -0.02      0.00
   12   13   17      0.00      0.00
   12   13   19      0.84      0.00
   12   13   21     -0.72      0.00
   12   13   23      1.40      0.00
   12   12    4     -1.58      0.00
   12   12    2     -0.44      0.00
   12   12    0      4.51      0.00
   12   12    6     -2.13      0.00
   12   12    8      0.38      0.00
   12   12   10      2.60      0.00
   12   12   12      1.52      0.00
   12   12   14     -0.30      0.00
   12   12   16     -2.55      0.00
   12   12   18     -0.70      0.00
   12   12   20      0.68      0.00
   12   12   22      1.18      0.00
   12   12   24      0.65      0.00
    7   12   33      5.24      0.00
    8   12   30     -2.06      0.00
    9   12   29     -3.67      0.00
   10   12   28      1.03      0.00
   11   12   27     -1.78      0.00
   13   17    0      1.95      0.00
   13   17    2      0.31      0.00
   13   17    4      2.46      0.00
   13   17    6     -2.01      0.00
   13   17    8     -3.59      0.00
   13   17   10      0.71      0.00
   13   17   12      0.23      0.00
   13   16    5     -1.49      0.00
   13   16    3      0.72      0.00
   13   16    1      1.11      0.00
   13   16    7     -0.93      0.00
   13   16    9      1.19      0.00
   13   16   11      0.62      0.00
   13   16   13     -2.60      0.00
   13   16   15      1.36      0.00
   13   16   17      0.08      0.00
   13   16   19      2.57      0.00
   13   15    4      1.02      0.00
   13   15    2     -1.58      0.00
   13   15    0      2.78      0.00
   13   15    6     -1.14      0.00
   13   15    8      0.21      0.00
   13   15   10      1.18      0.00
   13   15   12      0.23      0.00
   13   15   14     -1.80      0.00
   13   15   16      0.72      0.00
   13   15   18      0.37      0.00
   13   15   20      1.94      0.00
   13   14    3     -0.91      0.00
   13   14    1      0.28      0.00
   13   14    5      1.12      0.00
   13   14    7      0.00      0.00
   13   14    9     -0.38      0.00
   13   14   11      0.07      0.00
   13   14   13      0.69      0.00
   13   14   15      1.55      0.00
   13   14   17     -2.10      0.00
   13   14   19     -0.41      0.00
   13   14   21     -0.79      0.00
   13   13    2     -1.67      0.00
   13   13    0     -0.16      0.00
   13   13    4      1.35      0.00
   13   13    6      1.78      0.00
   13   13    8     -1.37      0.00
   13   13   10      0.88      0.00
   13   13   12      1.38      0.00
   13   13   14     -2.41      0.00
   13   13   16      0.76      0.00
   13   13   18     -1.50      0.00
   13   13   20      2.65      0.00
   13   13   22     -0.41      0.00
   13   13   24     -0.31      0.00
   12   13   25     -2.75      0.00
   11   13   26     -2.03      0.00
   10   13   27      0.33      0.00
    7   13   30      1.76      0.00
    8   13   31     -6.35      0.00
    8   13   29      4.44      0.00
    9   13   30      3.27      0.00
    9   13   28     -1.71      0.00
   14   16    2     -0.59      0.00
   14   16    4     -0.88      0.00
   14   16    6     -0.84      0.00
   14   16    8     -0.71      0.00
   14   16   10      0.62      0.00
   14   15    1     -0.38      0.00
   14   15    3     -0.21      0.00
   14   15    5      0.71      0.00
   14   15    7     -0.05      0.00
   14   15    9     -0.12      0.00
   14   15   11      1.84      0.00
   14   15   13     -1.09      0.00
   14   15   15      1.19      0.00
   14   15   17     -1.78      0.00
   14   14    0     -0.16      0.00
   14   14    2      0.40      0.00
   14   14    4      1.04      0.00
   14   14    6     -1.05      0.00
   14   14    8      0.01      0.00
   14   14   10     -0.85      0.00
   14   14   12      0.59      0.00
   14   14   14      0.64      0.00
   14   14   16      1.67      0.00
   14   14   18     -2.13      0.00
   14   14   20      0.64      0.00
   14   14   22     -0.65      0.00
   13   14   23      3.62      0.00
   12   14   24      1.72      0.00
   11   14   25      3.08      0.00
   10   14   26      2.43      0.00
    9   14   27      3.75      0.00
    7   14   29     -4.72      0.00
    8   14   28     -0.33      0.00
    9   14   29    -13.59      0.00
   14   16    0      4.01      0.00
   12   15   23     -5.28      0.00
   11   15   24     -2.23      0.00
   10   15   25      0.00      0.00
    9   15   24      1.89      0.00
    9   15   26     -3.26      0.00
    8   15   25     -1.81      0.00
    8   15   27     -3.00      0.00
   15   15   12     -3.54      0.00
   15   15   10      2.43      0.00
   15   15    8      1.38      0.00
   15   15    6     -0.46      0.00
   15   15    4      0.74      0.00
   15   15    2      1.60      0.00
   15   15    0     -5.01      0.00
   10   16   22     -2.72      0.00
   10   16   24      4.20      0.00
    9   16   23      1.21      0.00
    9   16   25      0.42      0.00
    8   16   24     -0.52      0.00
    7   16   25      2.66      0.00
   11   16   23     -0.20      0.00
   14   16   14      1.21      0.00
   14   16   12      2.11      0.00
   15   16    7     -1.10      0.00
   15   16    5     -0.65      0.00
   15   16    3      0.44      0.00
   15   16    1      0.60      0.00
    9   17   22     -0.53      0.00
    8   17   21      0.69      0.00
    8   17   23      1.45      0.00
    7   17   24     -0.61      0.00
    6   17   25      3.35      0.00
   13   17   16      8.62      0.00
   13   17   14     -2.60      0.00
   14   17    9     -1.60      0.00
   14   17    7     -1.07      0.00
   14   17    5      0.12      0.00
   14   17    3     -0.73      0.00
   14   17    1      1.53      0.00
    7   18   21      1.59      0.00
    5   18   25     -7.08      0.00
    1   18   25     -6.59      0.00
    0   18   24      0.63      0.00
   13   18   13     -4.02      0.00
   13   18   11     -1.10      0.00
   13   18    9      0.55      0.00
   13   18    7      0.75      0.00
   13   18    5      0.60      0.00
   13   18    3      0.35      0.00
   13   18    1     -0.45      0.00
    2   19   23      1.03      0.00
    1   19   22      2.15      0.00
    0   19   21     -3.25      0.00
    0   19   23      1.94      0.00
    7   19   18     -3.44      0.00
   12   19    9     -3.51      0.00
   12   19    7     -2.35      0.00
   12   19    5     -0.69      0.00
   12   19    3      2.62      0.00
   12   19    1      0.82      0.00
   13   19    8     -2.91      0.00
   13   19    6     -2.90      0.00
   13   19    4      3.72      0.00
   13   19    2     -0.95      0.00
   13   19    0      2.88      0.00
    1   20   19     -5.77      0.00
    0   20   18     -0.58      0.00
    0   20   20     -4.39      0.00
    1   20   21      3.10      0.00
    2   20   20      1.50      0.00
    7   20   15     -1.01      0.00
    8   20   14      1.25      0.00
   11   20    5      0.77      0.00
   11   20    3     -0.42      0.00
   11   20    1     -1.72      0.00
   11   20    7      4.66      0.00
   12   20    2     -5.15      0.00
   12   20    0      1.57      0.00
    7   21   12     -0.66      0.00
    8   21   11     -4.47      0.00
    0    1    1     20.68      0.00
    0    0    2   -110.23      0.00
    0    0    0      0.00      0.00
# SQUEEZE RESULTS (Version = 280417)
# Note: Data are Listed for all Voids in the P1 Unit Cell
# i.e. Centre of Gravity, Solvent Accessible Volume,
# Recovered number of Electrons in the Void and
# Details about the Squeezed Material
loop_
  _platon_squeeze_void_nr
  _platon_squeeze_void_average_x
  _platon_squeeze_void_average_y
  _platon_squeeze_void_average_z
  _platon_squeeze_void_volume
  _platon_squeeze_void_count_electrons
  _platon_squeeze_void_content
   1 -0.058 -0.044  0.000      2792       585 ' '
# Missing Reflections Below sin(th)/lambda = 0.25
loop_
  _platon_missing_refln_index_h
  _platon_missing_refln_index_k
  _platon_missing_refln_index_l
  _platon_missing_refln_theta
    0    1    1     1.546
    0    0    2     1.538
_platon_squeeze_void_probe_radius                  1.20
_platon_squeeze_details
)
TITL P17_026ttg in I4/mmm [Zr6O4(OH)4(ndc)4(nbdc)2(H2O)4]
CELL   14.9550   14.9550   26.0770     90.00     90.00     90.00
SPGR I4/mmm
# Solvent Accessible Volume =      2835
# Electrons Found in S.A.V. =       579
# Note: Atoms in Void are Labelled as Cxxx and Qxxx for all Others
Q101 0.373 0.766 0.000 !       5.06 eA-3
Q102 0.353 0.500 0.055 !       2.28 eA-3
Q103 0.090 1.000 0.461 !       2.26 eA-3
Q104 0.198 0.552 0.081 !       2.03 eA-3
Q105 0.211 0.219-0.004 !       1.94 eA-3
Q106 0.403 0.814 0.041 !       1.72 eA-3
Q107 0.298 0.813 0.000 !       1.54 eA-3
C108 0.109 0.502 0.164 !       1.49 eA-3
C109 0.148 0.498 0.109 !       1.48 eA-3
C110 0.500 0.813 0.101 !       1.44 eA-3
Q111 0.446 0.877 0.072 !       1.41 eA-3
Q112 0.375 0.908 0.035 !       1.40 eA-3
C113 1.000 0.996 0.242 !       1.37 eA-3
Q114 0.236 0.826 0.197 !       1.35 eA-3
Q115 0.914 0.328-0.001 !       1.15 eA-3
Q116 0.136 0.547 0.092 !       1.09 eA-3
C117 1.000 0.500 0.250 !       1.00 eA-3
Q118 0.500 0.187 0.003 !       1.00 eA-3
C119 1.000 0.638 0.127 !       0.95 eA-3
Q120 0.387 0.610 0.049 !       0.89 eA-3
Q121 0.500 0.677 0.081 !       0.89 eA-3
Q122 0.215 0.125 0.002 !       0.88 eA-3
Q123 0.402 0.983 0.064 !       0.86 eA-3
C124 0.148 0.498 0.172 !       0.85 eA-3
Q125 0.194 0.818 0.028 !       0.85 eA-3
Q126 0.468 0.469 0.000 !       0.82 eA-3
Q127 0.220 0.719 0.340 !       0.81 eA-3
C128 0.073 0.999 0.211 !       0.81 eA-3
C129 0.014 0.671 0.129 !       0.78 eA-3
C130 1.000 0.829 0.098 !       0.77 eA-3
C131 0.500 0.329 0.598 !       0.77 eA-3
C132 0.846 0.468 0.807 !       0.77 eA-3
C133 0.346 0.968 0.307 !       0.77 eA-3
C134 0.180 1.000 0.102 !       0.77 eA-3
Q135 1.000 0.633 0.438 !       0.76 eA-3
C136 1.000 1.003 0.195 !       0.76 eA-3
C137 0.500 0.850 0.349 !       0.74 eA-3
Q138 0.211 1.005 0.078 !       0.73 eA-3
C139 0.339 1.004 0.219 !       0.72 eA-3
Q140 0.612 0.500 0.000 !       0.70 eA-3
C141 0.012 0.719 0.109 !       0.70 eA-3
Q142 0.252 0.181 0.250 !       0.69 eA-3
C143 0.474 0.528 0.294 !       0.69 eA-3
C144 0.346 0.985 0.187 !       0.68 eA-3
Q145 1.000 0.796 0.436 !       0.68 eA-3
C146 0.500 0.493 0.227 !       0.67 eA-3
C147 0.161 0.524 0.225 !       0.67 eA-3
C148 0.093 0.500 0.234 !       0.65 eA-3
C149 1.000 0.569 0.295 !       0.64 eA-3
C150 0.500 0.069 0.795 !       0.64 eA-3
Q151 0.453 0.455 0.031 !       0.64 eA-3
Q152 0.500 0.671 0.429 !       0.63 eA-3
C153 0.500 0.888 0.330 !       0.63 eA-3
Q154 0.972 0.969 0.002 !       0.63 eA-3
Q155 0.500 0.504 0.195 !       0.61 eA-3
C156 0.198 0.504 0.336 !       0.61 eA-3
C157 0.698 1.004 0.836 !       0.61 eA-3
Q158 0.328 0.497 0.117 !       0.60 eA-3
C159 0.095 0.499 0.297 !       0.60 eA-3
Q160 0.274 0.500 0.000 !       0.60 eA-3
Q161 0.235 0.456 0.427 !       0.60 eA-3
Q162 0.853 1.001 0.914 !       0.60 eA-3
Q163 0.368 0.501 0.094 !       0.59 eA-3
Q164 1.000 0.990 0.336 !       0.58 eA-3
Q165 0.044 0.641 0.102 !       0.58 eA-3
Q166 0.300 0.499 0.039 !       0.58 eA-3
C167 0.180 0.499 0.242 !       0.58 eA-3
C168 0.157 0.468 0.260 !       0.57 eA-3
C169 0.403 0.996 0.234 !       0.57 eA-3
Q170 0.470 0.766 0.245 !       0.57 eA-3
C171 0.500 0.781 0.359 !       0.57 eA-3
Q172 0.139 0.625 0.100 !       0.55 eA-3
Q173 0.293 0.967 0.462 !       0.54 eA-3
C174 0.500 0.767 0.218 !       0.54 eA-3
Q175 0.469 0.998 0.070 !       0.54 eA-3
C176 1.000 0.704 0.320 !       0.54 eA-3
Q177 1.000 0.843 0.289 !       0.54 eA-3
Q178 0.195 0.498 0.422 !       0.53 eA-3
Q179 0.189 0.491 0.477 !       0.52 eA-3
C180 1.000 0.889 0.134 !       0.52 eA-3
Q181 1.000 0.611 0.101 !       0.51 eA-3
Q182 0.452 0.501 0.156 !       0.51 eA-3
Q183 0.295 0.362 0.211 !       0.51 eA-3
C184 0.500 0.034 0.771 !       0.51 eA-3
Q185 0.978 0.266 0.001 !       0.50 eA-3
C186 0.439 0.892 0.115 !       0.50 eA-3
C187 1.000 0.500 0.328 !       0.50 eA-3
)
;
_shelx_fab_checksum              54166
loop_
_space_group_symop_operation_xyz
'x, y, z'
'-x, -y, z'
'-y, x, z'
'y, -x, z'
'-x, y, -z'
'x, -y, -z'
'y, x, -z'
'-y, -x, -z'
'x+1/2, y+1/2, z+1/2'
'-x+1/2, -y+1/2, z+1/2'
'-y+1/2, x+1/2, z+1/2'
'y+1/2, -x+1/2, z+1/2'
'-x+1/2, y+1/2, -z+1/2'
'x+1/2, -y+1/2, -z+1/2'
'y+1/2, x+1/2, -z+1/2'
'-y+1/2, -x+1/2, -z+1/2'
'-x, -y, -z'
'x, y, -z'
'y, -x, -z'
'-y, x, -z'
'x, -y, z'
'-x, y, z'
'-y, -x, z'
'y, x, z'
'-x+1/2, -y+1/2, -z+1/2'
'x+1/2, y+1/2, -z+1/2'
'y+1/2, -x+1/2, -z+1/2'
'-y+1/2, x+1/2, -z+1/2'
'x+1/2, -y+1/2, z+1/2'
'-x+1/2, y+1/2, z+1/2'
'-y+1/2, -x+1/2, z+1/2'
'y+1/2, x+1/2, z+1/2'
loop_
_atom_site_label
_atom_site_type_symbol
_atom_site_fract_x
_atom_site_fract_y
_atom_site_fract_z
_atom_site_U_iso_or_equiv
_atom_site_adp_type
_atom_site_occupancy
_atom_site_site_symmetry_order
_atom_site_calc_flag
_atom_site_refinement_flags_posn
_atom_site_refinement_flags_adp
_atom_site_refinement_flags_occupancy
_atom_site_disorder_assembly
_atom_site_disorder_group
Zr1 Zr 0.5000 0.5000 0.09409(2) 0.00998(18) Uani 1 8 d S T P . .
Zr2 Zr 0.38161(2) 0.38161(2) 0.0000 0.01401(18) Uani 1 4 d S T P . .
O1M O 0.5000 0.3816(4) 0.04517(15) 0.0616(17) Uani 1 2 d S TU P A .
O1 O 0.41155(13) 0.41155(13) 0.13677(10) 0.0223(6) Uani 1 2 d S T P A .
O2 O 0.33471(16) 0.33471(16) 0.07769(12) 0.0519(13) Uani 1 2 d S TU P A .
C1 C 0.3547(2) 0.3547(2) 0.12341(15) 0.0343(11) Uani 1 2 d S T P . .
C2 C 0.3068(2) 0.3068(2) 0.16533(17) 0.0515(17) Uani 1 2 d S TU P A .
C3 C 0.3266(3) 0.3266(3) 0.21488(19) 0.062(2) Uani 1 2 d S TU P . .
H3 H 0.3701 0.3701 0.2221 0.075 Uiso 1 2 calc R U P A .
C4 C 0.2825(2) 0.2825(2) 0.25572(19) 0.063(2) Uani 1 2 d S TU P A .
C5 C 0.2422(3) 0.2422(3) 0.15378(19) 0.078(3) Uani 1 2 d S TU P . .
H5 H 0.2289 0.2289 0.1194 0.094 Uiso 1 2 calc R U P A .
C6 C 0.3020(3) 0.3020(3) 0.3077(2) 0.081(3) Uani 1 2 d S TU P . .
O4 O 0.2343(3) 0.3930(4) 0.0000 0.0648(16) Uani 0.5 2 d DS TU P A 1
O5 O 0.2258(7) 0.2431(6) 0.0000 0.303(16) Uani 0.5 2 d DS TU P A 1
C7 C 0.1854(4) 0.3250(5) 0.0000 0.174(13) Uani 0.5 2 d DS TU P A 1
C8 C 0.0886(4) 0.3343(5) 0.0000 0.144(12) Uani 0.5 2 d DS TU P A 1
C9 C 0.0475(3) 0.4198(5) 0.0000 0.32(3) Uani 0.5 2 d DS TU P A 1
C10 C 0.0472(3) 0.2523(6) 0.0000 0.27(3) Uani 0.5 2 d DS TU P A 1
N1 N 0.0971(6) 0.5000 0.0000 0.32(5) Uani 0.25 4 d DS TU P A 1
N2 N 0.0810(7) 0.1681(6) 0.0000 0.27(5) Uani 0.125 2 d DS TU P A 1
O1S O 0.2343(3) 0.3930(4) 0.0000 0.0648(16) Uani 0.5 2 d S TU P A 2
loop_
_atom_site_aniso_label
_atom_site_aniso_U_11
_atom_site_aniso_U_22
_atom_site_aniso_U_33
_atom_site_aniso_U_23
_atom_site_aniso_U_13
_atom_site_aniso_U_12
Zr1 0.0135(2) 0.0135(2) 0.0030(3) 0.000 0.000 0.000
Zr2 0.0182(2) 0.0182(2) 0.0057(2) 0.000 0.000 -0.00694(15)
O1M 0.0216(15) 0.124(4) 0.039(2) -0.059(3) 0.000 0.000
O1 0.0285(9) 0.0285(9) 0.0100(10) 0.0035(6) 0.0035(6) -0.0097(11)
O2 0.073(2) 0.073(2) 0.0107(13) 0.0036(8) 0.0036(8) -0.053(2)
C1 0.0464(18) 0.0464(18) 0.0101(15) 0.0041(9) 0.0041(9) -0.029(2)
C2 0.071(3) 0.071(3) 0.0131(17) 0.0057(11) 0.0057(11) -0.048(3)
C3 0.086(3) 0.086(3) 0.0158(18) 0.0051(12) 0.0051(12) -0.065(4)
C4 0.086(3) 0.086(3) 0.0166(19) 0.0051(12) 0.0051(12) -0.065(4)
C5 0.109(4) 0.109(4) 0.0167(19) 0.0047(13) 0.0047(13) -0.082(5)
C6 0.111(4) 0.111(4) 0.021(2) 0.0049(14) 0.0049(14) -0.084(5)
O4 0.034(2) 0.111(4) 0.049(3) 0.000 0.000 -0.028(3)
O5 0.17(2) 0.56(5) 0.176(19) 0.000 0.000 0.21(3)
C7 0.20(3) 0.25(3) 0.070(14) 0.000 0.000 0.14(2)
C8 0.021(7) 0.18(3) 0.23(3) 0.000 0.000 0.028(11)
C9 0.21(5) 0.23(4) 0.52(5) 0.000 0.000 -0.05(3)
C10 0.29(5) 0.31(4) 0.20(4) 0.000 0.000 -0.04(4)
N1 0.31(8) 0.23(6) 0.42(8) 0.000 0.000 0.000
N2 0.32(8) 0.29(6) 0.20(7) 0.000 0.000 0.02(7)
O1S 0.034(2) 0.111(4) 0.049(3) 0.000 0.000 -0.028(3)
loop_
_atom_type_symbol
_atom_type_description
_atom_type_scat_dispersion_real
_atom_type_scat_dispersion_imag
_atom_type_scat_source
C C 0.0030 0.0016 'International Tables Vol C Tables 4.2.6.8 and 6.1.1.4'
H H 0.0000 0.0000 'International Tables Vol C Tables 4.2.6.8 and 6.1.1.4'
N N 0.0059 0.0032 'International Tables Vol C Tables 4.2.6.8 and 6.1.1.4'
O O 0.0105 0.0059 'International Tables Vol C Tables 4.2.6.8 and 6.1.1.4'
Zr Zr -3.5084 0.5477 'International Tables Vol C Tables 4.2.6.8 and 6.1.1.4'
loop_
_geom_angle_atom_site_label_1
_geom_angle_atom_site_label_2
_geom_angle_atom_site_label_3
_geom_angle
_geom_angle_site_symmetry_1
_geom_angle_site_symmetry_3
O1 Zr1 O1 74.84(7) 2_665 3_655
O1 Zr1 O1 74.84(7) 2_665 4_565
O1 Zr1 O1 118.50(15) 3_655 4_565
O1 Zr1 O1 118.50(15) 2_665 .
O1 Zr1 O1 74.84(7) 3_655 .
O1 Zr1 O1 74.84(7) 4_565 .
O1 Zr1 O1M 142.37(3) 2_665 4_565
O1 Zr1 O1M 142.37(3) 3_655 4_565
O1 Zr1 O1M 78.81(13) 4_565 4_565
O1 Zr1 O1M 78.81(13) . 4_565
O1 Zr1 O1M 78.81(13) 2_665 3_655
O1 Zr1 O1M 78.81(13) 3_655 3_655
O1 Zr1 O1M 142.37(3) 4_565 3_655
O1 Zr1 O1M 142.37(3) . 3_655
O1M Zr1 O1M 108.5(3) 4_565 3_655
O1 Zr1 O1M 78.81(13) 2_665 2_665
O1 Zr1 O1M 142.37(3) 3_655 2_665
O1 Zr1 O1M 78.81(13) 4_565 2_665
O1 Zr1 O1M 142.37(3) . 2_665
O1M Zr1 O1M 70.02(16) 4_565 2_665
O1M Zr1 O1M 70.02(16) 3_655 2_665
O1 Zr1 O1M 142.37(3) 2_665 .
O1 Zr1 O1M 78.81(13) 3_655 .
O1 Zr1 O1M 142.37(3) 4_565 .
O1 Zr1 O1M 78.81(13) . .
O1M Zr1 O1M 70.02(16) 4_565 .
O1M Zr1 O1M 70.02(16) 3_655 .
O1M Zr1 O1M 108.5(3) 2_665 .
O1 Zr1 Zr2 110.97(5) 2_665 19_565
O1 Zr1 Zr2 166.33(7) 3_655 19_565
O1 Zr1 Zr2 75.17(7) 4_565 19_565
O1 Zr1 Zr2 110.97(5) . 19_565
O1M Zr1 Zr2 35.02(7) 4_565 19_565
O1M Zr1 Zr2 90.03(14) 3_655 19_565
O1M Zr1 Zr2 35.02(7) 2_665 19_565
O1M Zr1 Zr2 90.04(14) . 19_565
O1 Zr1 Zr2 110.97(5) 2_665 3_655
O1 Zr1 Zr2 75.17(7) 3_655 3_655
O1 Zr1 Zr2 166.33(7) 4_565 3_655
O1 Zr1 Zr2 110.97(5) . 3_655
O1M Zr1 Zr2 90.03(14) 4_565 3_655
O1M Zr1 Zr2 35.02(7) 3_655 3_655
O1M Zr1 Zr2 90.03(14) 2_665 3_655
O1M Zr1 Zr2 35.02(7) . 3_655
Zr2 Zr1 Zr2 91.16(2) 19_565 3_655
O1 Zr1 Zr2 75.17(7) 2_665 17_665
O1 Zr1 Zr2 110.97(5) 3_655 17_665
O1 Zr1 Zr2 110.97(5) 4_565 17_665
O1 Zr1 Zr2 166.33(7) . 17_665
O1M Zr1 Zr2 90.03(14) 4_565 17_665
O1M Zr1 Zr2 35.02(7) 3_655 17_665
O1M Zr1 Zr2 35.02(7) 2_665 17_665
O1M Zr1 Zr2 90.04(14) . 17_665
Zr2 Zr1 Zr2 60.670(12) 19_565 17_665
Zr2 Zr1 Zr2 60.670(12) 3_655 17_665
O1M Zr2 O1M 72.1(2) . 4_565
O1M Zr2 O1M 107.9(3) . 19_565
O1M Zr2 O1M 67.27(18) 4_565 19_565
O1M Zr2 O1M 67.27(18) . 18
O1M Zr2 O1M 107.9(3) 4_565 18
O1M Zr2 O1M 72.1(2) 19_565 18
O1M Zr2 O4 86.3(2) . 7
O1M Zr2 O4 146.11(8) 4_565 7
O1M Zr2 O4 146.11(8) 19_565 7
O1M Zr2 O4 86.3(2) 18 7
O1M Zr2 O1S 86.3(2) . 7
O1M Zr2 O1S 146.11(8) 4_565 7
O1M Zr2 O1S 146.11(8) 19_565 7
O1M Zr2 O1S 86.3(2) 18 7
O1M Zr2 O1S 146.11(8) . .
O1M Zr2 O1S 86.3(2) 4_565 .
O1M Zr2 O1S 86.3(2) 19_565 .
O1M Zr2 O1S 146.11(8) 18 .
O1S Zr2 O1S 98.9(3) 7 .
O1M Zr2 O4 146.11(8) . .
O1M Zr2 O4 86.3(2) 4_565 .
O1M Zr2 O4 86.3(2) 19_565 .
O1M Zr2 O4 146.11(8) 18 .
O4 Zr2 O4 98.9(3) 7 .
O1M Zr2 O2 139.15(8) . 18
O1M Zr2 O2 139.15(8) 4_565 18
O1M Zr2 O2 76.19(14) 19_565 18
O1M Zr2 O2 76.19(14) 18 18
O4 Zr2 O2 73.38(8) 7 18
O1S Zr2 O2 73.38(8) 7 18
O1S Zr2 O2 73.38(8) . 18
O4 Zr2 O2 73.38(8) . 18
O1M Zr2 O2 76.20(14) . .
O1M Zr2 O2 76.20(14) 4_565 .
O1M Zr2 O2 139.15(8) 19_565 .
O1M Zr2 O2 139.15(8) 18 .
O4 Zr2 O2 73.38(8) 7 .
O1S Zr2 O2 73.38(8) 7 .
O1S Zr2 O2 73.38(8) . .
O4 Zr2 O2 73.38(8) . .
O2 Zr2 O2 127.83(18) 18 .
O1M Zr2 Zr1 88.12(14) . 17_665
O1M Zr2 Zr1 88.12(14) 4_565 17_665
O1M Zr2 Zr1 36.08(12) 19_565 17_665
O1M Zr2 Zr1 36.08(12) 18 17_665
O4 Zr2 Zr1 117.68(9) 7 17_665
O1S Zr2 Zr1 117.68(9) 7 17_665
O1S Zr2 Zr1 117.68(9) . 17_665
O4 Zr2 Zr1 117.68(9) . 17_665
O2 Zr2 Zr1 71.67(9) 18 17_665
O2 Zr2 Zr1 160.51(9) . 17_665
O1M Zr2 Zr2 33.64(9) . 3_655
O1M Zr2 Zr2 90.00(16) 4_565 3_655
O1M Zr2 Zr2 90.00(16) 19_565 3_655
O1M Zr2 Zr2 33.64(9) 18 3_655
O4 Zr2 Zr2 85.57(15) 7 3_655
O1S Zr2 Zr2 85.57(15) 7 3_655
O1S Zr2 Zr2 175.57(15) . 3_655
O4 Zr2 Zr2 175.57(15) . 3_655
O2 Zr2 Zr2 108.11(6) 18 3_655
O2 Zr2 Zr2 108.12(6) . 3_655
Zr1 Zr2 Zr2 59.667(6) 17_665 3_655
Zr2 O1M Zr2 112.73(18) . 3_655
Zr2 O1M Zr1 108.90(18) . .
Zr2 O1M Zr1 108.90(18) 3_655 .
C1 O1 Zr1 133.1(2) . .
C1 O2 Zr2 134.4(3) . .
O1 C1 O2 125.7(4) . .
O1 C1 C2 116.7(4) . .
O2 C1 C2 117.6(4) . .
C3 C2 C5 120.3(4) . .
C3 C2 C1 119.3(4) . .
C5 C2 C1 120.4(4) . .
C2 C3 C4 120.9(5) . .
C4 C4 C3 118.9(6) 25 .
C4 C4 C6 119.2(6) 25 .
C3 C4 C6 121.9(5) . .
C6 C5 C2 120.5(5) 25 .
C5 C6 C4 120.1(6) 25 .
C7 O4 Zr2 121.3(5) . .
O5 O5 C7 161.3(5) 7 .
O5 O5 C7 14.8(4) 7 7
C7 O5 C7 146.5(8) . 7
O4 C7 O5 118.0(6) . .
O4 C7 C8 120.2(5) . .
O5 C7 C8 121.8(6) . .
O4 C7 O5 114.1(5) . 7
O5 C7 O5 3.9(2) . 7
C8 C7 O5 125.7(5) . 7
C10 C8 C9 127.5(6) . .
C10 C8 C7 111.3(5) . .
C9 C8 C7 121.2(5) . .
N1 C9 C8 122.6(5) . .
N1 C9 C9 121.8(4) . 5
C8 C9 C9 115.7(3) . 5
N2 C10 C8 131.4(6) . .
N2 C10 C10 111.9(5) . 5
C8 C10 C10 116.8(3) . 5
C9 N1 C9 116.5(9) . 21_565
C10 N2 N2 156.8(5) . 7
loop_
_geom_bond_atom_site_label_1
_geom_bond_atom_site_label_2
_geom_bond_distance
_geom_bond_site_symmetry_2
Zr1 O1 2.177(3) 2_665
Zr1 O1 2.177(3) 3_655
Zr1 O1 2.177(3) 4_565
Zr1 O1 2.177(3) .
Zr1 O1M 2.182(4) 4_565
Zr1 O1M 2.182(4) 3_655
Zr1 O1M 2.182(4) 2_665
Zr1 O1M 2.182(4) .
Zr1 Zr2 3.5057(7) 19_565
Zr1 Zr2 3.5057(7) 3_655
Zr1 Zr2 3.5057(7) 17_665
Zr2 O1M 2.127(2) .
Zr2 O1M 2.127(2) 4_565
Zr2 O1M 2.127(2) 19_565
Zr2 O1M 2.127(2) 18
Zr2 O4 2.210(5) 7
Zr2 O1S 2.210(5) 7
Zr2 O1S 2.210(5) .
Zr2 O4 2.210(5) .
Zr2 O2 2.255(3) 18
Zr2 O2 2.256(3) .
Zr2 Zr1 3.5057(7) 17_665
Zr2 Zr2 3.5411(8) 3_655
O1M Zr2 2.127(2) 3_655
O1 C1 1.251(5) .
O2 C1 1.265(5) .
C1 C2 1.490(6) .
C2 C3 1.358(7) .
C2 C5 1.401(8) .
C3 C4 1.415(7) .
C4 C4 1.407(11) 25
C4 C6 1.418(8) .
C5 C6 1.371(8) 25
C6 C5 1.371(8) 25
O4 C7 1.253(7) .
O5 O5 0.367(16) 7
O5 C7 1.365(7) .
O5 C7 1.717(12) 7
C7 C8 1.454(7) .
C7 O5 1.717(12) 7
C8 C10 1.373(7) .
C8 C9 1.418(6) .
C9 N1 1.411(7) .
C9 C9 1.420(8) 5
C10 N2 1.358(7) .
C10 C10 1.413(8) 5
N1 C9 1.411(7) 21_565
N2 N2 1.84(2) 7
